@<TRIPOS>MOLECULE
*****
 25 27 0 0 0
SMALL
GASTEIGER

@<TRIPOS>ATOM
      1 N         -13.1483  -17.4279   23.1114 N.pl3   1  UNL1       -0.3274
      2 C         -11.6984  -17.4499   22.7278 C.ar    1  UNL1        0.2163
      3 N         -11.0478  -16.2128   22.1835 N.ar    1  UNL1       -0.1978
      4 C          -9.5978  -16.2347   21.7999 C.ar    1  UNL1        0.1491
      5 N          -8.9472  -14.9976   21.2556 N.pl3   1  UNL1       -0.3413
      6 C          -8.7985  -17.4938   21.9605 C.ar    1  UNL1        0.1482
      7 N          -7.3486  -17.5157   21.5769 N.ar    1  UNL1       -0.2366
      8 C          -6.5492  -18.7747   21.7375 C.ar    1  UNL1        0.1125
      9 C          -7.1998  -20.0119   22.2818 C.ar    1  UNL1        0.1449
     10 N          -6.4005  -21.2709   22.4425 N.pl3   1  UNL1       -0.3414
     11 N          -8.6498  -19.9900   22.6655 N.ar    1  UNL1       -0.2091
     12 C          -9.4491  -18.7308   22.5048 C.ar    1  UNL1        0.1868
     13 N         -10.8991  -18.7089   22.8884 N.ar    1  UNL1       -0.1932
     14 H         -13.6730  -16.6015   23.0060 H       1  UNL1        0.1452
     15 H         -13.5754  -18.2399   23.4687 H       1  UNL1        0.1452
     16 H          -9.4719  -14.1712   21.1501 H       1  UNL1        0.1438
     17 H          -7.9956  -15.0119   21.0038 H       1  UNL1        0.1438
     18 H          -5.4488  -21.2853   22.1907 H       1  UNL1        0.1438
     19 H          -6.8275  -22.0829   22.7997 H       1  UNL1        0.1438
     20 C          -5.0993  -18.7967   21.3539 C.ar    1  UNL1        0.0204
     21 C          -4.7004  -19.1379   19.9487 C.ar    1  UNL1        0.0016
     22 C          -3.2504  -19.1598   19.5650 C.ar    1  UNL1        0.0000
     23 C          -2.1994  -18.8406   20.5866 C.ar    1  UNL1        0.0000
     24 C          -2.5983  -18.4995   21.9917 C.ar    1  UNL1        0.0000
     25 C          -4.0483  -18.4775   22.3754 C.ar    1  UNL1        0.0016
@<TRIPOS>BOND
     1     1     2    1
     2     2     3   ar
     3     3     4   ar
     4     4     5    1
     5     4     6   ar
     6     6     7   ar
     7     7     8   ar
     8     8    20    1
     9    20    21   ar
    10    21    22   ar
    11    22    23   ar
    12    23    24   ar
    13    24    25   ar
    14     8     9   ar
    15     9    10    1
    16     9    11   ar
    17    11    12   ar
    18    12    13   ar
    19    13     2   ar
    20    12     6   ar
    21    25    20   ar
    22     1    14    1
    23     1    15    1
    24     5    16    1
    25     5    17    1
    26    10    18    1
    27    10    19    1
@<TRIPOS>MOLECULE
*****
 25 27 0 0 0
SMALL
GASTEIGER

@<TRIPOS>ATOM
      1 N          -9.5890   -3.5390   19.2245 N.pl3   1  UNL1       -0.3274
      2 C         -10.6567   -4.5640   18.9809 C.ar    1  UNL1        0.2163
      3 N         -10.3039   -5.8799   18.3532 N.ar    1  UNL1       -0.1978
      4 C         -11.3716   -6.9049   18.1097 C.ar    1  UNL1        0.1491
      5 N         -11.0188   -8.2208   17.4819 N.pl3   1  UNL1       -0.3413
      6 C         -12.7921   -6.6141   18.4939 C.ar    1  UNL1        0.1482
      7 N         -13.8598   -7.6392   18.2503 N.ar    1  UNL1       -0.2366
      8 C         -15.2802   -7.3484   18.6345 C.ar    1  UNL1        0.1125
      9 C         -15.6331   -6.0325   19.2623 C.ar    1  UNL1        0.1449
     10 N         -17.0536   -5.7418   19.6465 N.pl3   1  UNL1       -0.3414
     11 N         -14.5654   -5.0075   19.5059 N.ar    1  UNL1       -0.2091
     12 C         -13.1449   -5.2983   19.1216 C.ar    1  UNL1        0.1868
     13 N         -12.0772   -4.2733   19.3652 N.ar    1  UNL1       -0.1932
     14 H          -8.6567   -3.7299   18.9723 H       1  UNL1        0.1452
     15 H          -9.8206   -2.6754   19.6365 H       1  UNL1        0.1452
     16 H         -10.0864   -8.4116   17.2297 H       1  UNL1        0.1438
     17 H         -11.7195   -8.8936   17.3220 H       1  UNL1        0.1438
     18 H         -17.7543   -6.4145   19.4867 H       1  UNL1        0.1438
     19 H         -17.2851   -4.8781   20.0585 H       1  UNL1        0.1438
     20 C         -16.3479   -8.3735   18.3910 C.ar    1  UNL1        0.0204
     21 C         -17.3673   -8.1530   17.3128 C.ar    1  UNL1        0.0016
     22 C         -18.4350   -9.1781   17.0693 C.ar    1  UNL1        0.0000
     23 C         -18.4833  -10.4236   17.9039 C.ar    1  UNL1        0.0000
     24 C         -17.4640  -10.6439   18.9820 C.ar    1  UNL1        0.0000
     25 C         -16.3963   -9.6189   19.2255 C.ar    1  UNL1        0.0016
@<TRIPOS>BOND
     1     1     2    1
     2     2     3   ar
     3     3     4   ar
     4     4     5    1
     5     4     6   ar
     6     6     7   ar
     7     7     8   ar
     8     8    20    1
     9    20    21   ar
    10    21    22   ar
    11    22    23   ar
    12    23    24   ar
    13    24    25   ar
    14     8     9   ar
    15     9    10    1
    16     9    11   ar
    17    11    12   ar
    18    12    13   ar
    19    13     2   ar
    20    12     6   ar
    21    25    20   ar
    22     1    14    1
    23     1    15    1
    24     5    16    1
    25     5    17    1
    26    10    18    1
    27    10    19    1
@<TRIPOS>MOLECULE
*****
 25 27 0 0 0
SMALL
GASTEIGER

@<TRIPOS>ATOM
      1 N          -6.6215  -14.2016   27.9625 N.pl3   1  UNL1       -0.3274
      2 C          -6.8072  -14.9221   26.6600 C.ar    1  UNL1        0.2163
      3 N          -5.7878  -14.7751   25.5696 N.ar    1  UNL1       -0.1978
      4 C          -5.9735  -15.4957   24.2672 C.ar    1  UNL1        0.1491
      5 N          -4.9540  -15.3486   23.1767 N.pl3   1  UNL1       -0.3413
      6 C          -7.1786  -16.3632   24.0552 C.ar    1  UNL1        0.1482
      7 N          -7.3643  -17.0838   22.7528 N.ar    1  UNL1       -0.2366
      8 C          -8.5694  -17.9514   22.5408 C.ar    1  UNL1        0.1125
      9 C          -9.5889  -18.0984   23.6313 C.ar    1  UNL1        0.1449
     10 N         -10.7940  -18.9660   23.4193 N.pl3   1  UNL1       -0.3414
     11 N          -9.4032  -17.3778   24.9337 N.ar    1  UNL1       -0.2091
     12 C          -8.1980  -16.5102   25.1457 C.ar    1  UNL1        0.1868
     13 N          -8.0123  -15.7897   26.4481 N.ar    1  UNL1       -0.1932
     14 H          -5.8305  -13.6321   28.1016 H       1  UNL1        0.1452
     15 H          -7.2906  -14.2980   28.6782 H       1  UNL1        0.1452
     16 H          -4.1630  -14.7792   23.3158 H       1  UNL1        0.1438
     17 H          -5.0759  -15.8216   22.3219 H       1  UNL1        0.1438
     18 H         -10.9159  -19.4389   22.5645 H       1  UNL1        0.1438
     19 H         -11.4631  -19.0625   24.1350 H       1  UNL1        0.1438
     20 C          -8.7551  -18.6719   21.2384 C.ar    1  UNL1        0.0204
     21 C         -10.0877  -18.6457   20.5501 C.ar    1  UNL1        0.0016
     22 C         -10.2734  -19.3663   19.2477 C.ar    1  UNL1        0.0000
     23 C          -9.1265  -20.1131   18.6335 C.ar    1  UNL1        0.0000
     24 C          -7.7941  -20.1392   19.3218 C.ar    1  UNL1        0.0000
     25 C          -7.6083  -19.4187   20.6242 C.ar    1  UNL1        0.0016
@<TRIPOS>BOND
     1     1     2    1
     2     2     3   ar
     3     3     4   ar
     4     4     5    1
     5     4     6   ar
     6     6     7   ar
     7     7     8   ar
     8     8    20    1
     9    20    21   ar
    10    21    22   ar
    11    22    23   ar
    12    23    24   ar
    13    24    25   ar
    14     8     9   ar
    15     9    10    1
    16     9    11   ar
    17    11    12   ar
    18    12    13   ar
    19    13     2   ar
    20    12     6   ar
    21    25    20   ar
    22     1    14    1
    23     1    15    1
    24     5    16    1
    25     5    17    1
    26    10    18    1
    27    10    19    1
@<TRIPOS>MOLECULE
*****
 25 27 0 0 0
SMALL
GASTEIGER

@<TRIPOS>ATOM
      1 N         -19.5252   -8.3286   20.2871 N.pl3   1  UNL1       -0.3274
      2 C         -18.1292   -7.9982   19.8489 C.ar    1  UNL1        0.2163
      3 N         -17.1789   -9.0983   19.4795 N.ar    1  UNL1       -0.1978
      4 C         -15.7829   -8.7678   19.0414 C.ar    1  UNL1        0.1491
      5 N         -14.8325   -9.8680   18.6719 N.pl3   1  UNL1       -0.3413
      6 C         -15.3373   -7.3372   18.9726 C.ar    1  UNL1        0.1482
      7 N         -13.9413   -7.0067   18.5345 N.ar    1  UNL1       -0.2366
      8 C         -13.4956   -5.5762   18.4657 C.ar    1  UNL1        0.1125
      9 C         -14.4460   -4.4759   18.8351 C.ar    1  UNL1        0.1449
     10 N         -14.0004   -3.0453   18.7664 N.pl3   1  UNL1       -0.3414
     11 N         -15.8420   -4.8064   19.2733 N.ar    1  UNL1       -0.2091
     12 C         -16.2876   -6.2371   19.3420 C.ar    1  UNL1        0.1868
     13 N         -17.6836   -6.5676   19.7802 N.ar    1  UNL1       -0.1932
     14 H         -19.8177   -9.2676   20.3322 H       1  UNL1        0.1452
     15 H         -20.1490   -7.6066   20.5295 H       1  UNL1        0.1452
     16 H         -15.1250  -10.8070   18.7171 H       1  UNL1        0.1438
     17 H         -13.9163   -9.6511   18.3844 H       1  UNL1        0.1438
     18 H         -13.0841   -2.8285   18.4788 H       1  UNL1        0.1438
     19 H         -14.6241   -2.3233   19.0088 H       1  UNL1        0.1438
     20 C         -12.0996   -5.2457   18.0276 C.ar    1  UNL1        0.0204
     21 C         -11.0062   -5.1105   19.0456 C.ar    1  UNL1        0.0016
     22 C          -9.6102   -4.7800   18.6075 C.ar    1  UNL1        0.0000
     23 C          -9.3076   -4.5847   17.1513 C.ar    1  UNL1        0.0000
     24 C         -10.4010   -4.7199   16.1333 C.ar    1  UNL1        0.0000
     25 C         -11.7970   -5.0504   16.5715 C.ar    1  UNL1        0.0016
@<TRIPOS>BOND
     1     1     2    1
     2     2     3   ar
     3     3     4   ar
     4     4     5    1
     5     4     6   ar
     6     6     7   ar
     7     7     8   ar
     8     8    20    1
     9    20    21   ar
    10    21    22   ar
    11    22    23   ar
    12    23    24   ar
    13    24    25   ar
    14     8     9   ar
    15     9    10    1
    16     9    11   ar
    17    11    12   ar
    18    12    13   ar
    19    13     2   ar
    20    12     6   ar
    21    25    20   ar
    22     1    14    1
    23     1    15    1
    24     5    16    1
    25     5    17    1
    26    10    18    1
    27    10    19    1
@<TRIPOS>MOLECULE
*****
 25 27 0 0 0
SMALL
GASTEIGER

@<TRIPOS>ATOM
      1 N         -17.0887  -11.7890   18.9818 N.pl3   1  UNL1       -0.3274
      2 C         -16.6207  -10.3649   18.9273 C.ar    1  UNL1        0.2163
      3 N         -17.5367   -9.2575   19.3568 N.ar    1  UNL1       -0.1978
      4 C         -17.0688   -7.8334   19.3023 C.ar    1  UNL1        0.1491
      5 N         -17.9849   -6.7260   19.7319 N.pl3   1  UNL1       -0.3413
      6 C         -15.6849   -7.5167   18.8181 C.ar    1  UNL1        0.1482
      7 N         -15.2169   -6.0926   18.7636 N.ar    1  UNL1       -0.2366
      8 C         -13.8330   -5.7759   18.2794 C.ar    1  UNL1        0.1125
      9 C         -12.9170   -6.8833   17.8498 C.ar    1  UNL1        0.1449
     10 N         -11.5331   -6.5666   17.3657 N.pl3   1  UNL1       -0.3414
     11 N         -13.3849   -8.3074   17.9044 N.ar    1  UNL1       -0.2091
     12 C         -14.7689   -8.6241   18.3885 C.ar    1  UNL1        0.1868
     13 N         -15.2368  -10.0482   18.4431 N.ar    1  UNL1       -0.1932
     14 H         -17.9970  -11.9969   19.2996 H       1  UNL1        0.1452
     15 H         -16.4875  -12.5158   18.6999 H       1  UNL1        0.1452
     16 H         -18.8932   -6.9338   20.0496 H       1  UNL1        0.1438
     17 H         -17.6778   -5.7913   19.6961 H       1  UNL1        0.1438
     18 H         -11.2259   -5.6320   17.3299 H       1  UNL1        0.1438
     19 H         -10.9318   -7.2935   17.0837 H       1  UNL1        0.1438
     20 C         -13.3651   -4.3518   18.2248 C.ar    1  UNL1        0.0204
     21 C         -13.5813   -3.5384   16.9832 C.ar    1  UNL1        0.0016
     22 C         -13.1134   -2.1143   16.9286 C.ar    1  UNL1        0.0000
     23 C         -12.4292   -1.5036   18.1157 C.ar    1  UNL1        0.0000
     24 C         -12.2130   -2.3170   19.3573 C.ar    1  UNL1        0.0000
     25 C         -12.6810   -3.7411   19.4118 C.ar    1  UNL1        0.0016
@<TRIPOS>BOND
     1     1     2    1
     2     2     3   ar
     3     3     4   ar
     4     4     5    1
     5     4     6   ar
     6     6     7   ar
     7     7     8   ar
     8     8    20    1
     9    20    21   ar
    10    21    22   ar
    11    22    23   ar
    12    23    24   ar
    13    24    25   ar
    14     8     9   ar
    15     9    10    1
    16     9    11   ar
    17    11    12   ar
    18    12    13   ar
    19    13     2   ar
    20    12     6   ar
    21    25    20   ar
    22     1    14    1
    23     1    15    1
    24     5    16    1
    25     5    17    1
    26    10    18    1
    27    10    19    1
@<TRIPOS>MOLECULE
*****
 25 27 0 0 0
SMALL
GASTEIGER

@<TRIPOS>ATOM
      1 N          -9.5956   -8.3237   18.9864 N.pl3   1  UNL1       -0.3274
      2 C         -10.4171   -7.0689   18.9602 C.ar    1  UNL1        0.2163
      3 N          -9.7422   -5.7298   18.9963 N.ar    1  UNL1       -0.1978
      4 C         -10.5637   -4.4750   18.9701 C.ar    1  UNL1        0.1491
      5 N          -9.8887   -3.1358   19.0061 N.pl3   1  UNL1       -0.3413
      6 C         -12.0600   -4.5593   18.9079 C.ar    1  UNL1        0.1482
      7 N         -12.8814   -3.3045   18.8818 N.ar    1  UNL1       -0.2366
      8 C         -14.3777   -3.3887   18.8196 C.ar    1  UNL1        0.1125
      9 C         -15.0527   -4.7279   18.7836 C.ar    1  UNL1        0.1449
     10 N         -16.5490   -4.8122   18.7214 N.pl3   1  UNL1       -0.3414
     11 N         -14.2312   -5.9827   18.8097 N.ar    1  UNL1       -0.2091
     12 C         -12.7348   -5.8984   18.8719 C.ar    1  UNL1        0.1868
     13 N         -11.9134   -7.1532   18.8981 N.ar    1  UNL1       -0.1932
     14 H          -8.6135   -8.2684   19.0272 H       1  UNL1        0.1452
     15 H         -10.0386   -9.2026   18.9627 H       1  UNL1        0.1452
     16 H          -8.9066   -3.0805   19.0470 H       1  UNL1        0.1438
     17 H         -10.4279   -2.3123   18.9890 H       1  UNL1        0.1438
     18 H         -17.0881   -3.9886   18.7042 H       1  UNL1        0.1438
     19 H         -16.9919   -5.6911   18.6978 H       1  UNL1        0.1438
     20 C         -15.1992   -2.1339   18.7935 C.ar    1  UNL1        0.0204
     21 C         -15.7309   -1.6126   17.4913 C.ar    1  UNL1        0.0016
     22 C         -16.5523   -0.3578   17.4651 C.ar    1  UNL1        0.0000
     23 C         -16.8421    0.3757   18.7412 C.ar    1  UNL1        0.0000
     24 C         -16.3104   -0.1457   20.0432 C.ar    1  UNL1        0.0000
     25 C         -15.4889   -1.4005   20.0694 C.ar    1  UNL1        0.0016
@<TRIPOS>BOND
     1     1     2    1
     2     2     3   ar
     3     3     4   ar
     4     4     5    1
     5     4     6   ar
     6     6     7   ar
     7     7     8   ar
     8     8    20    1
     9    20    21   ar
    10    21    22   ar
    11    22    23   ar
    12    23    24   ar
    13    24    25   ar
    14     8     9   ar
    15     9    10    1
    16     9    11   ar
    17    11    12   ar
    18    12    13   ar
    19    13     2   ar
    20    12     6   ar
    21    25    20   ar
    22     1    14    1
    23     1    15    1
    24     5    16    1
    25     5    17    1
    26    10    18    1
    27    10    19    1
@<TRIPOS>MOLECULE
*****
 25 27 0 0 0
SMALL
GASTEIGER

@<TRIPOS>ATOM
      1 N         -16.5591  -10.7400   18.4559 N.pl3   1  UNL1       -0.3274
      2 C         -15.9402   -9.3835   18.2919 C.ar    1  UNL1        0.2163
      3 N         -16.7729   -8.2324   17.8109 N.ar    1  UNL1       -0.1978
      4 C         -16.1539   -6.8759   17.6470 C.ar    1  UNL1        0.1491
      5 N         -16.9867   -5.7247   17.1659 N.pl3   1  UNL1       -0.3413
      6 C         -14.7023   -6.6706   17.9640 C.ar    1  UNL1        0.1482
      7 N         -14.0834   -5.3141   17.8001 N.ar    1  UNL1       -0.2366
      8 C         -12.6317   -5.1088   18.1171 C.ar    1  UNL1        0.1125
      9 C         -11.7990   -6.2600   18.5982 C.ar    1  UNL1        0.1449
     10 N         -10.3473   -6.0546   18.9152 N.pl3   1  UNL1       -0.3414
     11 N         -12.4179   -7.6164   18.7621 N.ar    1  UNL1       -0.2091
     12 C         -13.8696   -7.8217   18.4450 C.ar    1  UNL1        0.1868
     13 N         -14.4886   -9.1782   18.6090 N.ar    1  UNL1       -0.1932
     14 H         -17.5119  -10.8747   18.2478 H       1  UNL1        0.1452
     15 H         -16.0126  -11.4956   18.7716 H       1  UNL1        0.1452
     16 H         -17.9395   -5.8595   16.9578 H       1  UNL1        0.1438
     17 H         -16.5805   -4.8344   17.0583 H       1  UNL1        0.1438
     18 H          -9.9411   -5.1643   18.8076 H       1  UNL1        0.1438
     19 H          -9.8008   -6.8102   19.2310 H       1  UNL1        0.1438
     20 C         -12.0128   -3.7523   17.9532 C.ar    1  UNL1        0.0204
     21 C         -12.2042   -2.7076   19.0125 C.ar    1  UNL1        0.0016
     22 C         -11.5853   -1.3511   18.8485 C.ar    1  UNL1        0.0000
     23 C         -10.7749   -1.0393   17.6253 C.ar    1  UNL1        0.0000
     24 C         -10.5835   -2.0840   16.5661 C.ar    1  UNL1        0.0000
     25 C         -11.2025   -3.4405   16.7300 C.ar    1  UNL1        0.0016
@<TRIPOS>BOND
     1     1     2    1
     2     2     3   ar
     3     3     4   ar
     4     4     5    1
     5     4     6   ar
     6     6     7   ar
     7     7     8   ar
     8     8    20    1
     9    20    21   ar
    10    21    22   ar
    11    22    23   ar
    12    23    24   ar
    13    24    25   ar
    14     8     9   ar
    15     9    10    1
    16     9    11   ar
    17    11    12   ar
    18    12    13   ar
    19    13     2   ar
    20    12     6   ar
    21    25    20   ar
    22     1    14    1
    23     1    15    1
    24     5    16    1
    25     5    17    1
    26    10    18    1
    27    10    19    1
@<TRIPOS>MOLECULE
*****
 25 27 0 0 0
SMALL
GASTEIGER

@<TRIPOS>ATOM
      1 N          -9.2625   -7.6788   19.0446 N.pl3   1  UNL1       -0.3274
      2 C         -10.4328   -6.7407   19.0279 C.ar    1  UNL1        0.2163
      3 N         -11.8257   -7.2765   19.1784 N.ar    1  UNL1       -0.1978
      4 C         -12.9961   -6.3384   19.1616 C.ar    1  UNL1        0.1491
      5 N         -14.3890   -6.8742   19.3121 N.pl3   1  UNL1       -0.3413
      6 C         -12.7734   -4.8645   18.9945 C.ar    1  UNL1        0.1482
      7 N         -13.9438   -3.9263   18.9777 N.ar    1  UNL1       -0.2366
      8 C         -13.7212   -2.4524   18.8106 C.ar    1  UNL1        0.1125
      9 C         -12.3282   -1.9166   18.6601 C.ar    1  UNL1        0.1449
     10 N         -12.1056   -0.4427   18.4929 N.pl3   1  UNL1       -0.3414
     11 N         -11.1579   -2.8547   18.6768 N.ar    1  UNL1       -0.2091
     12 C         -11.3805   -4.3287   18.8440 C.ar    1  UNL1        0.1868
     13 N         -10.2102   -5.2668   18.8607 N.ar    1  UNL1       -0.1932
     14 H          -9.4086   -8.6462   19.1543 H       1  UNL1        0.1452
     15 H          -8.3483   -7.3272   18.9459 H       1  UNL1        0.1452
     16 H         -14.5351   -7.8416   19.4218 H       1  UNL1        0.1438
     17 H         -15.1572   -6.2585   19.3011 H       1  UNL1        0.1438
     18 H         -12.8737    0.1731   18.4819 H       1  UNL1        0.1438
     19 H         -11.1914   -0.0910   18.3941 H       1  UNL1        0.1438
     20 C         -14.8915   -1.5143   18.7938 C.ar    1  UNL1        0.0204
     21 C         -15.4401   -1.0227   17.4871 C.ar    1  UNL1        0.0016
     22 C         -16.6104   -0.0846   17.4704 C.ar    1  UNL1        0.0000
     23 C         -17.2321    0.3620   18.7604 C.ar    1  UNL1        0.0000
     24 C         -16.6835   -0.1296   20.0671 C.ar    1  UNL1        0.0000
     25 C         -15.5132   -1.0677   20.0838 C.ar    1  UNL1        0.0016
@<TRIPOS>BOND
     1     1     2    1
     2     2     3   ar
     3     3     4   ar
     4     4     5    1
     5     4     6   ar
     6     6     7   ar
     7     7     8   ar
     8     8    20    1
     9    20    21   ar
    10    21    22   ar
    11    22    23   ar
    12    23    24   ar
    13    24    25   ar
    14     8     9   ar
    15     9    10    1
    16     9    11   ar
    17    11    12   ar
    18    12    13   ar
    19    13     2   ar
    20    12     6   ar
    21    25    20   ar
    22     1    14    1
    23     1    15    1
    24     5    16    1
    25     5    17    1
    26    10    18    1
    27    10    19    1
@<TRIPOS>MOLECULE
*****
 25 27 0 0 0
SMALL
GASTEIGER

@<TRIPOS>ATOM
      1 N           7.6615   -6.4900   24.8463 N.pl3   1  UNL1       -0.3274
      2 C           7.3582   -5.5919   26.0087 C.ar    1  UNL1        0.2163
      3 N           7.0870   -4.1345   25.7797 N.ar    1  UNL1       -0.1978
      4 C           6.7838   -3.2363   26.9422 C.ar    1  UNL1        0.1491
      5 N           6.5126   -1.7789   26.7131 N.pl3   1  UNL1       -0.3413
      6 C           6.7516   -3.7955   28.3336 C.ar    1  UNL1        0.1482
      7 N           6.4484   -2.8973   29.4961 N.ar    1  UNL1       -0.2366
      8 C           6.4163   -3.4565   30.8876 C.ar    1  UNL1        0.1125
      9 C           6.6874   -4.9140   31.1166 C.ar    1  UNL1        0.1449
     10 N           6.6553   -5.4732   32.5081 N.pl3   1  UNL1       -0.3414
     11 N           6.9907   -5.8121   29.9542 N.ar    1  UNL1       -0.2091
     12 C           7.0228   -5.2529   28.5627 C.ar    1  UNL1        0.1868
     13 N           7.3261   -6.1511   27.4002 N.ar    1  UNL1       -0.1932
     14 H           7.6825   -6.1230   23.9330 H       1  UNL1        0.1452
     15 H           7.8394   -7.4466   24.9966 H       1  UNL1        0.1452
     16 H           6.5337   -1.4118   25.7998 H       1  UNL1        0.1438
     17 H           6.3136   -1.1893   27.4760 H       1  UNL1        0.1438
     18 H           6.4562   -4.8836   33.2710 H       1  UNL1        0.1438
     19 H           6.8332   -6.4297   32.6584 H       1  UNL1        0.1438
     20 C           6.1130   -2.5583   32.0500 C.ar    1  UNL1        0.0204
     21 C           4.7272   -2.5146   32.6225 C.ar    1  UNL1        0.0016
     22 C           4.4239   -1.6164   33.7849 C.ar    1  UNL1        0.0000
     23 C           5.5065   -0.7620   34.3749 C.ar    1  UNL1        0.0000
     24 C           6.8922   -0.8057   33.8025 C.ar    1  UNL1        0.0000
     25 C           7.1955   -1.7039   32.6400 C.ar    1  UNL1        0.0016
@<TRIPOS>BOND
     1     1     2    1
     2     2     3   ar
     3     3     4   ar
     4     4     5    1
     5     4     6   ar
     6     6     7   ar
     7     7     8   ar
     8     8    20    1
     9    20    21   ar
    10    21    22   ar
    11    22    23   ar
    12    23    24   ar
    13    24    25   ar
    14     8     9   ar
    15     9    10    1
    16     9    11   ar
    17    11    12   ar
    18    12    13   ar
    19    13     2   ar
    20    12     6   ar
    21    25    20   ar
    22     1    14    1
    23     1    15    1
    24     5    16    1
    25     5    17    1
    26    10    18    1
    27    10    19    1
