@<TRIPOS>MOLECULE
*****
 25 28 0 0 0
SMALL
GASTEIGER

@<TRIPOS>ATOM
      1 N          -8.6419  -15.7436   24.1265 N.3     1  UNL1       -0.3204
      2 C          -7.9448  -16.8975   23.4687 C.3     1  UNL1        0.0783
      3 C          -6.4586  -16.8607   23.2690 C.3     1  UNL1        0.1229
      4 N          -5.7615  -18.0145   22.6113 N.ar    1  UNL1       -0.3122
      5 C          -6.5505  -19.2051   22.1532 C.ar    1  UNL1        0.1224
      6 N          -5.5955  -20.1864   21.5409 N.ar    1  UNL1       -0.2122
      7 C          -4.2162  -19.6023   21.6204 C.ar    1  UNL1        0.1795
      8 N          -2.8801  -20.1192   21.1759 N.ar    1  UNL1       -0.2238
      9 C          -1.6466  -19.2938   21.3930 C.ar    1  UNL1        0.1007
     10 C          -1.7492  -17.9515   22.0545 C.ar    1  UNL1        0.0223
     11 C          -3.0853  -17.4346   22.4990 C.ar    1  UNL1        0.0219
     12 C          -4.3188  -18.2599   22.2820 C.ar    1  UNL1        0.0971
     13 C          -8.0367  -19.2419   22.3530 C.3     1  UNL1        0.0698
     14 C          -8.7339  -18.0881   23.0107 C.3     1  UNL1        0.0482
     15 H          -7.9578  -15.0277   24.3712 H       1  UNL1        0.1189
     16 H          -9.1122  -16.0675   24.9717 H       1  UNL1        0.1189
     17 C         -10.2201  -18.1249   23.2105 C.ar    1  UNL1        0.0091
     18 C         -11.1362  -17.6868   22.1066 C.ar    1  UNL1        0.0300
     19 C         -12.6225  -17.7235   22.3063 C.ar    1  UNL1        0.1672
     20 F         -13.5386  -17.2854   21.2024 F       1  UNL1       -0.2018
     21 C         -13.1924  -18.1984   23.6099 C.ar    1  UNL1        0.1696
     22 F         -14.6786  -18.2352   23.8097 F       1  UNL1       -0.2017
     23 C         -12.2762  -18.6366   24.7139 C.ar    1  UNL1        0.0612
     24 C         -10.7900  -18.5998   24.5141 C.ar    1  UNL1        0.1386
     25 F          -9.8738  -19.0379   25.6180 F       1  UNL1       -0.2044
@<TRIPOS>BOND
     1     2     1    1
     2     2     3    1
     3     3     4    1
     4     4     5   ar
     5     5     6   ar
     6     6     7   ar
     7     7     8   ar
     8     8     9   ar
     9     9    10   ar
    10    10    11   ar
    11    11    12   ar
    12     5    13    1
    13    13    14    1
    14    14    17    1
    15    17    18   ar
    16    18    19   ar
    17    19    20    1
    18    19    21   ar
    19    21    22    1
    20    21    23   ar
    21    23    24   ar
    22    24    25    1
    23    14     2    1
    24    24    17   ar
    25    12     4   ar
    26    12     7   ar
    27     1    15    1
    28     1    16    1
@<TRIPOS>MOLECULE
*****
 25 28 0 0 0
SMALL
GASTEIGER

@<TRIPOS>ATOM
      1 N          -9.5757  -19.5891   19.9358 N.3     1  UNL1       -0.3204
      2 C          -8.3967  -19.1156   20.7333 C.3     1  UNL1        0.0783
      3 C          -7.0088  -19.2754   20.1871 C.3     1  UNL1        0.1229
      4 N          -5.8299  -18.8019   20.9845 N.ar    1  UNL1       -0.3122
      5 C          -6.0388  -18.1686   22.3281 C.ar    1  UNL1        0.1224
      6 N          -4.6939  -17.8006   22.8812 N.ar    1  UNL1       -0.2122
      7 C          -3.6538  -18.2066   21.8795 C.ar    1  UNL1        0.1795
      8 N          -2.1582  -18.0927   21.8833 N.ar    1  UNL1       -0.2238
      9 C          -1.3646  -18.5977   20.7150 C.ar    1  UNL1        0.1007
     10 C          -2.0667  -19.2165   19.5427 C.ar    1  UNL1        0.0223
     11 C          -3.5623  -19.3304   19.5389 C.ar    1  UNL1        0.0219
     12 C          -4.3559  -18.8255   20.7073 C.ar    1  UNL1        0.0971
     13 C          -7.4267  -18.0087   22.8742 C.3     1  UNL1        0.0698
     14 C          -8.6056  -18.4822   22.0769 C.3     1  UNL1        0.0482
     15 H          -9.2518  -19.9901   19.0556 H       1  UNL1        0.1189
     16 H         -10.1944  -18.8014   19.7434 H       1  UNL1        0.1189
     17 C          -9.9935  -18.3223   22.6230 C.ar    1  UNL1        0.0091
     18 C         -10.7911  -17.0946   22.2966 C.ar    1  UNL1        0.0300
     19 C         -12.1790  -16.9348   22.8428 C.ar    1  UNL1        0.1672
     20 F         -12.9766  -15.7071   22.5163 F       1  UNL1       -0.2018
     21 C         -12.7691  -18.0026   23.7153 C.ar    1  UNL1        0.1696
     22 F         -14.1570  -17.8427   24.2615 F       1  UNL1       -0.2017
     23 C         -11.9715  -19.2302   24.0417 C.ar    1  UNL1        0.0612
     24 C         -10.5836  -19.3901   23.4955 C.ar    1  UNL1        0.1386
     25 F          -9.7860  -20.6178   23.8220 F       1  UNL1       -0.2044
@<TRIPOS>BOND
     1     2     1    1
     2     2     3    1
     3     3     4    1
     4     4     5   ar
     5     5     6   ar
     6     6     7   ar
     7     7     8   ar
     8     8     9   ar
     9     9    10   ar
    10    10    11   ar
    11    11    12   ar
    12     5    13    1
    13    13    14    1
    14    14    17    1
    15    17    18   ar
    16    18    19   ar
    17    19    20    1
    18    19    21   ar
    19    21    22    1
    20    21    23   ar
    21    23    24   ar
    22    24    25    1
    23    14     2    1
    24    24    17   ar
    25    12     4   ar
    26    12     7   ar
    27     1    15    1
    28     1    16    1
@<TRIPOS>MOLECULE
*****
 25 28 0 0 0
SMALL
GASTEIGER

@<TRIPOS>ATOM
      1 N          -9.2107  -15.7965   24.5947 N.3     1  UNL1       -0.3204
      2 C          -8.4842  -16.8655   23.8333 C.3     1  UNL1        0.0783
      3 C          -6.9907  -16.8111   23.7043 C.3     1  UNL1        0.1229
      4 N          -6.2643  -17.8800   22.9430 N.ar    1  UNL1       -0.3122
      5 C          -7.0313  -19.0034   22.3106 C.ar    1  UNL1        0.1224
      6 N          -6.0493  -19.9075   21.6264 N.ar    1  UNL1       -0.2122
      7 C          -4.6754  -19.3430   21.8358 C.ar    1  UNL1        0.1795
      8 N          -3.3207  -19.8081   21.3907 N.ar    1  UNL1       -0.2238
      9 C          -2.0987  -19.0202   21.7593 C.ar    1  UNL1        0.1007
     10 C          -2.2316  -17.7671   22.5730 C.ar    1  UNL1        0.0223
     11 C          -3.5864  -17.3020   23.0181 C.ar    1  UNL1        0.0219
     12 C          -4.8083  -18.0899   22.6495 C.ar    1  UNL1        0.0971
     13 C          -8.5247  -19.0578   22.4396 C.3     1  UNL1        0.0698
     14 C          -9.2512  -17.9888   23.2010 C.3     1  UNL1        0.0482
     15 H          -8.5386  -15.1183   24.9535 H       1  UNL1        0.1189
     16 H          -9.7171  -16.2181   25.3733 H       1  UNL1        0.1189
     17 C         -10.7447  -18.0432   23.3299 C.ar    1  UNL1        0.0091
     18 C         -11.3705  -18.4840   24.6199 C.ar    1  UNL1        0.0300
     19 C         -12.8640  -18.5384   24.7489 C.ar    1  UNL1        0.1672
     20 F         -13.4898  -18.9791   26.0389 F       1  UNL1       -0.2018
     21 C         -13.7315  -18.1521   23.5879 C.ar    1  UNL1        0.1696
     22 F         -15.2250  -18.2065   23.7169 F       1  UNL1       -0.2017
     23 C         -13.1057  -17.7113   22.2979 C.ar    1  UNL1        0.0612
     24 C         -11.6122  -17.6569   22.1689 C.ar    1  UNL1        0.1386
     25 F         -10.9864  -17.2162   20.8790 F       1  UNL1       -0.2044
@<TRIPOS>BOND
     1     2     1    1
     2     2     3    1
     3     3     4    1
     4     4     5   ar
     5     5     6   ar
     6     6     7   ar
     7     7     8   ar
     8     8     9   ar
     9     9    10   ar
    10    10    11   ar
    11    11    12   ar
    12     5    13    1
    13    13    14    1
    14    14    17    1
    15    17    18   ar
    16    18    19   ar
    17    19    20    1
    18    19    21   ar
    19    21    22    1
    20    21    23   ar
    21    23    24   ar
    22    24    25    1
    23    14     2    1
    24    24    17   ar
    25    12     4   ar
    26    12     7   ar
    27     1    15    1
    28     1    16    1
@<TRIPOS>MOLECULE
*****
 25 28 0 0 0
SMALL
GASTEIGER

@<TRIPOS>ATOM
      1 N          -8.2457  -19.3893   19.7711 N.3     1  UNL1       -0.3204
      2 C          -7.0138  -19.0138   20.5402 C.3     1  UNL1        0.0783
      3 C          -5.6893  -18.9307   19.8408 C.3     1  UNL1        0.1229
      4 N          -4.4574  -18.5552   20.6098 N.ar    1  UNL1       -0.3122
      5 C          -4.5499  -18.2629   22.0781 C.ar    1  UNL1        0.1224
      6 N          -3.1748  -17.9207   22.5700 N.ar    1  UNL1       -0.2122
      7 C          -2.2324  -18.0017   21.4058 C.ar    1  UNL1        0.1795
      8 N          -0.7550  -17.7689   21.2923 N.ar    1  UNL1       -0.2238
      9 C          -0.0703  -17.9283   19.9673 C.ar    1  UNL1        0.1007
     10 C          -0.8630  -18.3205   18.7558 C.ar    1  UNL1        0.0223
     11 C          -2.3404  -18.5532   18.8692 C.ar    1  UNL1        0.0219
     12 C          -3.0252  -18.3938   20.1943 C.ar    1  UNL1        0.0971
     13 C          -5.8743  -18.3460   22.7774 C.3     1  UNL1        0.0698
     14 C          -7.1062  -18.7214   22.0085 C.3     1  UNL1        0.0482
     15 H          -8.0005  -19.5518   18.7945 H       1  UNL1        0.1189
     16 H          -8.9267  -18.6321   19.8292 H       1  UNL1        0.1189
     17 C          -8.4306  -18.8045   22.7078 C.ar    1  UNL1        0.0091
     18 C          -8.8022  -20.0446   23.4654 C.ar    1  UNL1        0.0300
     19 C         -10.1266  -20.1277   24.1648 C.ar    1  UNL1        0.1672
     20 F         -10.4982  -21.3679   24.9223 F       1  UNL1       -0.2018
     21 C         -11.0794  -18.9707   24.1065 C.ar    1  UNL1        0.1696
     22 F         -12.4038  -19.0538   24.8058 F       1  UNL1       -0.2017
     23 C         -10.7078  -17.7306   23.3489 C.ar    1  UNL1        0.0612
     24 C          -9.3834  -17.6475   22.6496 C.ar    1  UNL1        0.1386
     25 F          -9.0118  -16.4073   21.8920 F       1  UNL1       -0.2044
@<TRIPOS>BOND
     1     2     1    1
     2     2     3    1
     3     3     4    1
     4     4     5   ar
     5     5     6   ar
     6     6     7   ar
     7     7     8   ar
     8     8     9   ar
     9     9    10   ar
    10    10    11   ar
    11    11    12   ar
    12     5    13    1
    13    13    14    1
    14    14    17    1
    15    17    18   ar
    16    18    19   ar
    17    19    20    1
    18    19    21   ar
    19    21    22    1
    20    21    23   ar
    21    23    24   ar
    22    24    25    1
    23    14     2    1
    24    24    17   ar
    25    12     4   ar
    26    12     7   ar
    27     1    15    1
    28     1    16    1
@<TRIPOS>MOLECULE
*****
 25 28 0 0 0
SMALL
GASTEIGER

@<TRIPOS>ATOM
      1 N          -7.7119  -18.9295   19.1091 N.3     1  UNL1       -0.3204
      2 C          -8.2424  -18.9708   20.5116 C.3     1  UNL1        0.0783
      3 C          -9.6996  -18.7260   20.7698 C.3     1  UNL1        0.1229
      4 N         -10.2301  -18.7673   22.1722 N.ar    1  UNL1       -0.3122
      5 C          -9.3034  -19.0533   23.3165 C.ar    1  UNL1        0.1224
      6 N         -10.1084  -19.0300   24.5819 N.ar    1  UNL1       -0.2122
      7 C         -11.5327  -18.7295   24.2197 C.ar    1  UNL1        0.1795
      8 N         -12.7708  -18.5828   25.0537 N.ar    1  UNL1       -0.2238
      9 C         -14.0842  -18.2738   24.3983 C.ar    1  UNL1        0.1007
     10 C         -14.1594  -18.1114   22.9090 C.ar    1  UNL1        0.0223
     11 C         -12.9213  -18.2581   22.0751 C.ar    1  UNL1        0.0219
     12 C         -11.6079  -18.5672   22.7305 C.ar    1  UNL1        0.0971
     13 C          -7.8461  -19.2981   23.0583 C.3     1  UNL1        0.0698
     14 C          -7.3157  -19.2568   21.6558 C.3     1  UNL1        0.0482
     15 H          -8.4741  -18.7237   18.4632 H       1  UNL1        0.1189
     16 H          -7.3018  -19.8333   18.8739 H       1  UNL1        0.1189
     17 C          -5.8584  -19.5015   21.3977 C.ar    1  UNL1        0.0091
     18 C          -4.8244  -18.6395   22.0592 C.ar    1  UNL1        0.0300
     19 C          -3.3672  -18.8843   21.8010 C.ar    1  UNL1        0.1672
     20 F          -2.3332  -18.0222   22.4626 F       1  UNL1       -0.2018
     21 C          -2.9441  -19.9910   20.8813 C.ar    1  UNL1        0.1696
     22 F          -1.4869  -20.2357   20.6231 F       1  UNL1       -0.2017
     23 C          -3.9781  -20.8530   20.2197 C.ar    1  UNL1        0.0612
     24 C          -5.4353  -20.6083   20.4779 C.ar    1  UNL1        0.1386
     25 F          -6.4694  -21.4703   19.8163 F       1  UNL1       -0.2044
@<TRIPOS>BOND
     1     2     1    1
     2     2     3    1
     3     3     4    1
     4     4     5   ar
     5     5     6   ar
     6     6     7   ar
     7     7     8   ar
     8     8     9   ar
     9     9    10   ar
    10    10    11   ar
    11    11    12   ar
    12     5    13    1
    13    13    14    1
    14    14    17    1
    15    17    18   ar
    16    18    19   ar
    17    19    20    1
    18    19    21   ar
    19    21    22    1
    20    21    23   ar
    21    23    24   ar
    22    24    25    1
    23    14     2    1
    24    24    17   ar
    25    12     4   ar
    26    12     7   ar
    27     1    15    1
    28     1    16    1
@<TRIPOS>MOLECULE
*****
 25 28 0 0 0
SMALL
GASTEIGER

@<TRIPOS>ATOM
      1 N          -4.8571  -16.9886   23.3081 N.3     1  UNL1       -0.3204
      2 C          -5.9579  -17.5791   22.4777 C.3     1  UNL1        0.0783
      3 C          -7.3901  -17.3655   22.8695 C.3     1  UNL1        0.1229
      4 N          -8.4909  -17.9560   22.0391 N.ar    1  UNL1       -0.3122
      5 C          -8.1596  -18.7600   20.8169 C.ar    1  UNL1        0.1224
      6 N          -9.4480  -19.2154   20.1985 N.ar    1  UNL1       -0.2122
      7 C         -10.5756  -18.6928   21.0384 C.ar    1  UNL1        0.1795
      8 N         -12.0645  -18.8252   20.9143 N.ar    1  UNL1       -0.2238
      9 C         -12.9619  -18.1792   21.9278 C.ar    1  UNL1        0.1007
     10 C         -12.3704  -17.4008   23.0654 C.ar    1  UNL1        0.0223
     11 C         -10.8814  -17.2684   23.1895 C.ar    1  UNL1        0.0219
     12 C          -9.9840  -17.9144   22.1760 C.ar    1  UNL1        0.0971
     13 C          -6.7275  -18.9736   20.4251 C.3     1  UNL1        0.0698
     14 C          -5.6266  -18.3831   21.2555 C.3     1  UNL1        0.0482
     15 H          -5.2603  -16.4781   24.0938 H       1  UNL1        0.1189
     16 H          -4.3043  -16.3504   22.7358 H       1  UNL1        0.1189
     17 C          -4.1945  -18.5967   20.8637 C.ar    1  UNL1        0.0091
     18 C          -3.6743  -18.0210   19.5800 C.ar    1  UNL1        0.0300
     19 C          -2.2422  -18.2346   19.1882 C.ar    1  UNL1        0.1672
     20 F          -1.7220  -17.6589   17.9045 F       1  UNL1       -0.2018
     21 C          -1.3304  -19.0239   20.0801 C.ar    1  UNL1        0.1696
     22 F           0.1017  -19.2375   19.6883 F       1  UNL1       -0.2017
     23 C          -1.8507  -19.5996   21.3638 C.ar    1  UNL1        0.0612
     24 C          -3.2828  -19.3860   21.7556 C.ar    1  UNL1        0.1386
     25 F          -3.8030  -19.9617   23.0393 F       1  UNL1       -0.2044
@<TRIPOS>BOND
     1     2     1    1
     2     2     3    1
     3     3     4    1
     4     4     5   ar
     5     5     6   ar
     6     6     7   ar
     7     7     8   ar
     8     8     9   ar
     9     9    10   ar
    10    10    11   ar
    11    11    12   ar
    12     5    13    1
    13    13    14    1
    14    14    17    1
    15    17    18   ar
    16    18    19   ar
    17    19    20    1
    18    19    21   ar
    19    21    22    1
    20    21    23   ar
    21    23    24   ar
    22    24    25    1
    23    14     2    1
    24    24    17   ar
    25    12     4   ar
    26    12     7   ar
    27     1    15    1
    28     1    16    1
@<TRIPOS>MOLECULE
*****
 25 28 0 0 0
SMALL
GASTEIGER

@<TRIPOS>ATOM
      1 N         -10.3298   -2.3256   17.1727 N.3     1  UNL1       -0.3204
      2 C         -11.6765   -2.2398   17.8278 C.3     1  UNL1        0.0783
      3 C         -12.3633   -0.9127   17.9593 C.3     1  UNL1        0.1229
      4 N         -13.7100   -0.8268   18.6144 N.ar    1  UNL1       -0.3122
      5 C         -14.3698   -2.0680   19.1380 C.ar    1  UNL1        0.1224
      6 N         -15.6902   -1.6756   19.7317 N.ar    1  UNL1       -0.2122
      7 C         -15.8465   -0.1921   19.5750 C.ar    1  UNL1        0.1795
      8 N         -16.9451    0.7489   19.9719 N.ar    1  UNL1       -0.2238
      9 C         -16.8198    2.2145   19.6782 C.ar    1  UNL1        0.1007
     10 C         -15.5959    2.7391   18.9876 C.ar    1  UNL1        0.0223
     11 C         -14.4973    1.7982   18.5907 C.ar    1  UNL1        0.0219
     12 C         -14.6226    0.3326   18.8844 C.ar    1  UNL1        0.0971
     13 C         -13.6829   -3.3950   19.0066 C.3     1  UNL1        0.0698
     14 C         -12.3363   -3.4809   18.3515 C.3     1  UNL1        0.0482
     15 H         -10.0346   -1.3945   16.8790 H       1  UNL1        0.1189
     16 H         -10.3863   -2.9370   16.3582 H       1  UNL1        0.1189
     17 C         -11.6495   -4.8079   18.2200 C.ar    1  UNL1        0.0091
     18 C         -10.4932   -5.1458   19.1138 C.ar    1  UNL1        0.0300
     19 C          -9.8064   -6.4728   18.9824 C.ar    1  UNL1        0.1672
     20 F          -8.6502   -6.8107   19.8762 F       1  UNL1       -0.2018
     21 C         -10.2758   -7.4619   17.9571 C.ar    1  UNL1        0.1696
     22 F          -9.5890   -8.7890   17.8257 F       1  UNL1       -0.2017
     23 C         -11.4320   -7.1240   17.0633 C.ar    1  UNL1        0.0612
     24 C         -12.1189   -5.7970   17.1947 C.ar    1  UNL1        0.1386
     25 F         -13.2751   -5.4591   16.3009 F       1  UNL1       -0.2044
@<TRIPOS>BOND
     1     2     1    1
     2     2     3    1
     3     3     4    1
     4     4     5   ar
     5     5     6   ar
     6     6     7   ar
     7     7     8   ar
     8     8     9   ar
     9     9    10   ar
    10    10    11   ar
    11    11    12   ar
    12     5    13    1
    13    13    14    1
    14    14    17    1
    15    17    18   ar
    16    18    19   ar
    17    19    20    1
    18    19    21   ar
    19    21    22    1
    20    21    23   ar
    21    23    24   ar
    22    24    25    1
    23    14     2    1
    24    24    17   ar
    25    12     4   ar
    26    12     7   ar
    27     1    15    1
    28     1    16    1
@<TRIPOS>MOLECULE
*****
 25 28 0 0 0
SMALL
GASTEIGER

@<TRIPOS>ATOM
      1 N           6.5563   -5.2474   32.4607 N.3     1  UNL1       -0.3204
      2 C           6.7274   -4.7598   31.0525 C.3     1  UNL1        0.0783
      3 C           7.0167   -5.7358   29.9508 C.3     1  UNL1        0.1229
      4 N           7.1878   -5.2482   28.5426 N.ar    1  UNL1       -0.3122
      5 C           7.0696   -3.7846   28.2361 C.ar    1  UNL1        0.1224
      6 N           7.2858   -3.6006   26.7633 N.ar    1  UNL1       -0.2122
      7 C           7.5377   -4.9504   26.1595 C.ar    1  UNL1        0.1795
      8 N           7.8145   -5.3838   24.7504 N.ar    1  UNL1       -0.2238
      9 C           8.0306   -6.8355   24.4410 C.ar    1  UNL1        0.1007
     10 C           7.9700   -7.8538   25.5407 C.ar    1  UNL1        0.0223
     11 C           7.6932   -7.4204   26.9498 C.ar    1  UNL1        0.0219
     12 C           7.4771   -5.9687   27.2592 C.ar    1  UNL1        0.0971
     13 C           6.7802   -2.8086   29.3378 C.3     1  UNL1        0.0698
     14 C           6.6091   -3.2962   30.7460 C.3     1  UNL1        0.0482
     15 H           6.6683   -6.2609   32.4855 H       1  UNL1        0.1189
     16 H           5.6251   -5.0000   32.7954 H       1  UNL1        0.1189
     17 C           6.3198   -2.3202   31.8477 C.ar    1  UNL1        0.0091
     18 C           4.9338   -1.7732   32.0204 C.ar    1  UNL1        0.0300
     19 C           4.6445   -0.7972   33.1221 C.ar    1  UNL1        0.1672
     20 F           3.2585   -0.2503   33.2947 F       1  UNL1       -0.2018
     21 C           5.7412   -0.3682   34.0511 C.ar    1  UNL1        0.1696
     22 F           5.4519    0.6078   35.1528 F       1  UNL1       -0.2017
     23 C           7.1272   -0.9152   33.8784 C.ar    1  UNL1        0.0612
     24 C           7.4165   -1.8912   32.7767 C.ar    1  UNL1        0.1386
     25 F           8.8025   -2.4381   32.6041 F       1  UNL1       -0.2044
@<TRIPOS>BOND
     1     2     1    1
     2     2     3    1
     3     3     4    1
     4     4     5   ar
     5     5     6   ar
     6     6     7   ar
     7     7     8   ar
     8     8     9   ar
     9     9    10   ar
    10    10    11   ar
    11    11    12   ar
    12     5    13    1
    13    13    14    1
    14    14    17    1
    15    17    18   ar
    16    18    19   ar
    17    19    20    1
    18    19    21   ar
    19    21    22    1
    20    21    23   ar
    21    23    24   ar
    22    24    25    1
    23    14     2    1
    24    24    17   ar
    25    12     4   ar
    26    12     7   ar
    27     1    15    1
    28     1    16    1
@<TRIPOS>MOLECULE
*****
 25 28 0 0 0
SMALL
GASTEIGER

@<TRIPOS>ATOM
      1 N           4.4388    0.0333   17.4700 N.3     1  UNL1       -0.3204
      2 C           3.3327    0.2104   18.4676 C.3     1  UNL1        0.0783
      3 C           2.2985    1.2768   18.2594 C.3     1  UNL1        0.1229
      4 N           1.1924    1.4539   19.2570 N.ar    1  UNL1       -0.3122
      5 C           1.1204    0.5645   20.4627 C.ar    1  UNL1        0.1224
      6 N          -0.0771    0.9725   21.2687 N.ar    1  UNL1       -0.2122
      7 C          -0.7451    2.1140   20.5611 C.ar    1  UNL1        0.1795
      8 N          -1.9664    2.9210   20.8883 N.ar    1  UNL1       -0.2238
      9 C          -2.4032    4.0254   19.9722 C.ar    1  UNL1        0.1007
     10 C          -1.6186    4.3230   18.7288 C.ar    1  UNL1        0.0223
     11 C          -0.3973    3.5160   18.4016 C.ar    1  UNL1        0.0219
     12 C           0.0395    2.4116   19.3178 C.ar    1  UNL1        0.0971
     13 C           2.1545   -0.5019   20.6709 C.3     1  UNL1        0.0698
     14 C           3.2606   -0.6790   19.6734 C.3     1  UNL1        0.0482
     15 H           4.3334    0.7171   16.7206 H       1  UNL1        0.1189
     16 H           4.3972   -0.9081   17.0797 H       1  UNL1        0.1189
     17 C           4.2948   -1.7454   19.8816 C.ar    1  UNL1        0.0091
     18 C           4.1031   -3.1044   19.2762 C.ar    1  UNL1        0.0300
     19 C           5.1372   -4.1708   19.4844 C.ar    1  UNL1        0.1672
     20 F           4.9455   -5.5298   18.8791 F       1  UNL1       -0.2018
     21 C           6.3629   -3.8783   20.2980 C.ar    1  UNL1        0.1696
     22 F           7.3970   -4.9447   20.5062 F       1  UNL1       -0.2017
     23 C           6.5546   -2.5193   20.9033 C.ar    1  UNL1        0.0612
     24 C           5.5205   -1.4529   20.6951 C.ar    1  UNL1        0.1386
     25 F           5.7121   -0.0939   21.3005 F       1  UNL1       -0.2044
@<TRIPOS>BOND
     1     2     1    1
     2     2     3    1
     3     3     4    1
     4     4     5   ar
     5     5     6   ar
     6     6     7   ar
     7     7     8   ar
     8     8     9   ar
     9     9    10   ar
    10    10    11   ar
    11    11    12   ar
    12     5    13    1
    13    13    14    1
    14    14    17    1
    15    17    18   ar
    16    18    19   ar
    17    19    20    1
    18    19    21   ar
    19    21    22    1
    20    21    23   ar
    21    23    24   ar
    22    24    25    1
    23    14     2    1
    24    24    17   ar
    25    12     4   ar
    26    12     7   ar
    27     1    15    1
    28     1    16    1
