@<TRIPOS>MOLECULE
*****
 39 41 0 0 0
SMALL
GASTEIGER

@<TRIPOS>ATOM
      1 C           6.5207   -3.0906   25.8267 C.2     1  UNL1        0.2486
      2 O           7.1024   -1.7801   25.3865 O.2     1  UNL1       -0.2726
      3 N           5.6851   -3.8970   24.8772 N.am    1  UNL1       -0.2823
      4 H           5.3032   -4.7572   25.1662 H       1  UNL1        0.1549
      5 C           9.5201   -7.9672   26.1628 C.3     1  UNL1        0.1122
      6 N           8.8872   -7.0079   27.1268 N.am    1  UNL1       -0.2870
      7 C           8.1616   -5.7992   26.6146 C.2     1  UNL1        0.3048
      8 O           8.0689   -5.5498   25.1384 O.2     1  UNL1       -0.2526
      9 N           7.5288   -4.8399   27.5786 N.am    1  UNL1       -0.2498
     10 C           7.5391   -4.9571   29.0740 C.3     1  UNL1        0.1222
     11 C           6.7912   -3.7845   29.6360 C.ar    1  UNL1       -0.0029
     12 C           6.4794   -3.3747   31.0448 C.ar    1  UNL1        0.0155
     13 C           5.6952   -2.1230   31.3056 C.ar    1  UNL1        0.1054
     14 C           5.2227   -1.2811   30.1576 C.ar    1  UNL1        0.0181
     15 C           5.5344   -1.6909   28.7488 C.ar    1  UNL1       -0.0011
     16 C           6.3187   -2.9426   28.4880 C.ar    1  UNL1        0.0023
     17 C           6.7746   -3.5949   27.2165 C.3     1  UNL1        0.1762
     18 H           8.9482   -7.1716   28.0957 H       1  UNL1        0.1510
     19 S           5.3833   -1.7131   32.7145 S.O2    1  UNL1        0.0104
     20 C           5.0715   -1.3033   34.1233 C.3     1  UNL1        0.1816
     21 O           6.8374   -1.4344   32.9553 O.2     1  UNL1       -0.1686
     22 O           3.9293   -1.9919   32.4737 O.2     1  UNL1       -0.1686
     23 C           5.4312   -3.3928   23.4875 C.ar    1  UNL1        0.0503
     24 C           4.3260   -2.4102   23.2364 C.ar    1  UNL1        0.0144
     25 C           4.0722   -1.9059   21.8467 C.ar    1  UNL1       -0.0002
     26 C           4.9236   -2.3843   20.7082 C.ar    1  UNL1        0.0182
     27 C           6.0287   -3.3669   20.9593 C.ar    1  UNL1       -0.0002
     28 C           6.2826   -3.8711   22.3490 C.ar    1  UNL1        0.0144
     29 C           4.6698   -1.8801   19.3184 C.3     1  UNL1        0.2827
     30 O           5.4386   -0.6307   19.6312 O.3     1  UNL1       -0.3692
     31 H           5.4496   -0.0540   18.8513 H       1  UNL1        0.2112
     32 C           4.4160   -1.3759   17.9286 C.3     1  UNL1        0.4311
     33 F           4.1621   -0.8718   16.5389 F       1  UNL1       -0.1669
     34 F           5.8768   -1.5069   17.6143 F       1  UNL1       -0.1669
     35 F           3.5415   -1.2629   18.0127 F       1  UNL1       -0.1669
     36 C           3.9009   -3.1295   19.0056 C.3     1  UNL1        0.4311
     37 F           3.1319   -4.3789   18.6928 F       1  UNL1       -0.1669
     38 F           3.1558   -2.9068   19.4297 F       1  UNL1       -0.1669
     39 F           4.8566   -3.9494   18.1905 F       1  UNL1       -0.1669
@<TRIPOS>BOND
     1     5     6    1
     2     6     7   am
     3     7     8    2
     4     7     9   am
     5     9    10    1
     6    10    11    1
     7    11    12   ar
     8    12    13   ar
     9    13    19    1
    10    19    20    1
    11    19    21    2
    12    19    22    2
    13    13    14   ar
    14    14    15   ar
    15    15    16   ar
    16    16    17    1
    17    17     1    1
    18     1     2    2
    19     1     3   am
    20     3    23    1
    21    23    24   ar
    22    24    25   ar
    23    25    26   ar
    24    26    29    1
    25    29    30    1
    26    29    32    1
    27    32    33    1
    28    32    34    1
    29    32    35    1
    30    29    36    1
    31    36    37    1
    32    36    38    1
    33    36    39    1
    34    26    27   ar
    35    27    28   ar
    36    17     9    1
    37    28    23   ar
    38    16    11   ar
    39     6    18    1
    40     3     4    1
    41    30    31    1
@<TRIPOS>MOLECULE
*****
 39 41 0 0 0
SMALL
GASTEIGER

@<TRIPOS>ATOM
      1 C          -0.5108    2.8034   20.8713 C.2     1  UNL1        0.2486
      2 O           0.8126    3.3945   21.2571 O.2     1  UNL1       -0.2726
      3 N          -0.5700    1.4412   20.2458 N.am    1  UNL1       -0.2823
      4 H          -1.4386    1.0531   19.9925 H       1  UNL1        0.1549
      5 C          -3.0517    4.8807   16.1682 C.3     1  UNL1        0.1122
      6 N          -3.3133    4.8948   17.6451 N.am    1  UNL1       -0.2870
      7 C          -2.3665    4.2039   18.5811 C.2     1  UNL1        0.3048
      8 O          -1.1581    3.4989   18.0402 O.2     1  UNL1       -0.2526
      9 N          -2.6280    4.2179   20.0581 N.am    1  UNL1       -0.2498
     10 C          -3.7885    4.8782   20.7417 C.3     1  UNL1        0.1222
     11 C          -3.6527    4.6426   22.2169 C.ar    1  UNL1       -0.0029
     12 C          -4.5014    5.0578   23.3819 C.ar    1  UNL1        0.0155
     13 C          -4.1058    4.6670   24.7749 C.ar    1  UNL1        0.1054
     14 C          -2.8614    3.8611   25.0030 C.ar    1  UNL1        0.0181
     15 C          -2.0127    3.4459   23.8380 C.ar    1  UNL1       -0.0011
     16 C          -2.4084    3.8367   22.4449 C.ar    1  UNL1        0.0023
     17 C          -1.7751    3.5742   21.1107 C.3     1  UNL1        0.1762
     18 H          -4.1064    5.3575   18.0002 H       1  UNL1        0.1510
     19 S          -4.9545    5.0822   25.9400 S.O2    1  UNL1        0.0104
     20 C          -5.8032    5.4974   27.1050 C.3     1  UNL1        0.1816
     21 O          -4.5004    3.8726   26.7019 O.2     1  UNL1       -0.1686
     22 O          -5.4086    6.2919   25.1782 O.2     1  UNL1       -0.1686
     23 C           0.6943    0.6703   20.0064 C.ar    1  UNL1        0.0503
     24 C           1.2896   -0.1552   21.1083 C.ar    1  UNL1        0.0144
     25 C           2.5539   -0.9261   20.8688 C.ar    1  UNL1       -0.0002
     26 C           3.2228   -0.8714   19.5274 C.ar    1  UNL1        0.0182
     27 C           2.6276   -0.0459   18.4255 C.ar    1  UNL1       -0.0002
     28 C           1.3633    0.7250   18.6650 C.ar    1  UNL1        0.0144
     29 C           4.4872   -1.6422   19.2879 C.3     1  UNL1        0.2827
     30 O           5.2710   -0.3635   19.3091 O.3     1  UNL1       -0.3692
     31 H           6.2107   -0.5578   19.1676 H       1  UNL1        0.2112
     32 C           5.7514   -2.4131   19.0483 C.3     1  UNL1        0.4311
     33 F           7.0157   -3.1840   18.8088 F       1  UNL1       -0.1669
     34 F           6.2642   -1.9900   20.3930 F       1  UNL1       -0.1669
     35 F           5.5420   -2.7166   18.2430 F       1  UNL1       -0.1669
     36 C           3.7034   -2.9210   19.2666 C.3     1  UNL1        0.4311
     37 F           2.9195   -4.1998   19.2453 F       1  UNL1       -0.1669
     38 F           3.3150   -2.7965   18.4803 F       1  UNL1       -0.1669
     39 F           4.0632   -3.5889   20.5606 F       1  UNL1       -0.1669
@<TRIPOS>BOND
     1     5     6    1
     2     6     7   am
     3     7     8    2
     4     7     9   am
     5     9    10    1
     6    10    11    1
     7    11    12   ar
     8    12    13   ar
     9    13    19    1
    10    19    20    1
    11    19    21    2
    12    19    22    2
    13    13    14   ar
    14    14    15   ar
    15    15    16   ar
    16    16    17    1
    17    17     1    1
    18     1     2    2
    19     1     3   am
    20     3    23    1
    21    23    24   ar
    22    24    25   ar
    23    25    26   ar
    24    26    29    1
    25    29    30    1
    26    29    32    1
    27    32    33    1
    28    32    34    1
    29    32    35    1
    30    29    36    1
    31    36    37    1
    32    36    38    1
    33    36    39    1
    34    26    27   ar
    35    27    28   ar
    36    17     9    1
    37    28    23   ar
    38    16    11   ar
    39     6    18    1
    40     3     4    1
    41    30    31    1
@<TRIPOS>MOLECULE
*****
 39 41 0 0 0
SMALL
GASTEIGER

@<TRIPOS>ATOM
      1 C           5.6703   -1.6986   26.0798 C.2     1  UNL1        0.2486
      2 O           6.6350   -0.7882   25.3797 O.2     1  UNL1       -0.2726
      3 N           4.5921   -2.3913   25.3000 N.am    1  UNL1       -0.2823
      4 H           3.9589   -2.9890   25.7595 H       1  UNL1        0.1549
      5 C           3.2535    2.3441   29.3518 C.3     1  UNL1        0.1122
      6 N           4.0050    1.0654   29.5759 N.am    1  UNL1       -0.2870
      7 C           4.4891    0.2647   28.4036 C.2     1  UNL1        0.3048
      8 O           4.2217    0.7426   27.0071 O.2     1  UNL1       -0.2526
      9 N           5.2405   -1.0140   28.6277 N.am    1  UNL1       -0.2498
     10 C           5.5811   -1.6148   29.9592 C.3     1  UNL1        0.1222
     11 C           6.3344   -2.8885   29.7141 C.ar    1  UNL1       -0.0029
     12 C           6.9227   -3.9027   30.6497 C.ar    1  UNL1        0.0155
     13 C           7.6360   -5.1032   30.1022 C.ar    1  UNL1        0.1054
     14 C           7.7611   -5.2896   28.6191 C.ar    1  UNL1        0.0181
     15 C           7.1729   -4.2755   27.6835 C.ar    1  UNL1       -0.0011
     16 C           6.4595   -3.0750   28.2310 C.ar    1  UNL1        0.0023
     17 C           5.7835   -1.9164   27.5596 C.3     1  UNL1        0.1762
     18 H           4.1805    0.7518   30.4924 H       1  UNL1        0.1510
     19 S           8.2243   -6.1175   31.0379 S.O2    1  UNL1        0.0104
     20 C           8.8125   -7.1316   31.9735 C.3     1  UNL1        0.1816
     21 O           9.5308   -6.0352   30.3056 O.2     1  UNL1       -0.1686
     22 O           6.9178   -6.1997   31.7701 O.2     1  UNL1       -0.1686
     23 C           4.4789   -2.1735   23.8202 C.ar    1  UNL1        0.0503
     24 C           3.6139   -1.0694   23.2887 C.ar    1  UNL1        0.0144
     25 C           3.5007   -0.8515   21.8089 C.ar    1  UNL1       -0.0002
     26 C           4.2525   -1.7379   20.8608 C.ar    1  UNL1        0.0182
     27 C           5.1175   -2.8421   21.3923 C.ar    1  UNL1       -0.0002
     28 C           5.2307   -3.0599   22.8721 C.ar    1  UNL1        0.0144
     29 C           4.1393   -1.5201   19.3809 C.3     1  UNL1        0.2827
     30 O           4.7911   -0.1773   19.5286 O.3     1  UNL1       -0.3692
     31 H           4.8626    0.2449   18.6582 H       1  UNL1        0.2112
     32 C           4.0261   -1.3025   17.9011 C.3     1  UNL1        0.4311
     33 F           3.9129   -1.0848   16.4213 F       1  UNL1       -0.1669
     34 F           5.5188   -1.3800   17.7755 F       1  UNL1       -0.1669
     35 F           3.1431   -1.2414   17.8682 F       1  UNL1       -0.1669
     36 C           3.4875   -2.8630   19.2333 C.3     1  UNL1        0.4311
     37 F           2.8356   -4.2059   19.0857 F       1  UNL1       -0.1669
     38 F           2.7344   -2.6644   19.6552 F       1  UNL1       -0.1669
     39 F           4.4988   -3.6768   18.4815 F       1  UNL1       -0.1669
@<TRIPOS>BOND
     1     5     6    1
     2     6     7   am
     3     7     8    2
     4     7     9   am
     5     9    10    1
     6    10    11    1
     7    11    12   ar
     8    12    13   ar
     9    13    19    1
    10    19    20    1
    11    19    21    2
    12    19    22    2
    13    13    14   ar
    14    14    15   ar
    15    15    16   ar
    16    16    17    1
    17    17     1    1
    18     1     2    2
    19     1     3   am
    20     3    23    1
    21    23    24   ar
    22    24    25   ar
    23    25    26   ar
    24    26    29    1
    25    29    30    1
    26    29    32    1
    27    32    33    1
    28    32    34    1
    29    32    35    1
    30    29    36    1
    31    36    37    1
    32    36    38    1
    33    36    39    1
    34    26    27   ar
    35    27    28   ar
    36    17     9    1
    37    28    23   ar
    38    16    11   ar
    39     6    18    1
    40     3     4    1
    41    30    31    1
@<TRIPOS>MOLECULE
*****
 39 41 0 0 0
SMALL
GASTEIGER

@<TRIPOS>ATOM
      1 C           4.9016   -0.6996   32.6774 C.2     1  UNL1        0.2486
      2 O           3.5642   -1.3379   32.9091 O.2     1  UNL1       -0.2726
      3 N           5.4183    0.3293   33.6390 N.am    1  UNL1       -0.2823
      4 H           6.2961    0.7483   33.4869 H       1  UNL1        0.1549
      5 C           5.5170    3.3658   28.6794 C.3     1  UNL1        0.1122
      6 N           5.9716    1.9495   28.8731 N.am    1  UNL1       -0.2870
      7 C           5.5794    1.1985   30.1109 C.2     1  UNL1        0.3048
      8 O           4.7325    1.8638   31.1549 O.2     1  UNL1       -0.2526
      9 N           6.0341   -0.2177   30.3046 N.am    1  UNL1       -0.2498
     10 C           6.8801   -1.0102   29.3526 C.3     1  UNL1        0.1222
     11 C           7.0914   -2.3724   29.9439 C.ar    1  UNL1       -0.0029
     12 C           7.8428   -3.5742   29.4529 C.ar    1  UNL1        0.0155
     13 C           7.8788   -4.8254   30.2794 C.ar    1  UNL1        0.1054
     14 C           7.1634   -4.8748   31.5969 C.ar    1  UNL1        0.0181
     15 C           6.4120   -3.6731   32.0879 C.ar    1  UNL1       -0.0011
     16 C           6.3760   -2.4219   31.2614 C.ar    1  UNL1        0.0023
     17 C           5.7225   -1.0902   31.4843 C.3     1  UNL1        0.1762
     18 H           6.5275    1.5129   28.1878 H       1  UNL1        0.1510
     19 S           8.6303   -6.0272   29.7884 S.O2    1  UNL1        0.0104
     20 C           9.3817   -7.2290   29.2975 C.3     1  UNL1        0.1816
     21 O           8.6260   -5.4623   28.3989 O.2     1  UNL1       -0.1686
     22 O           8.6346   -6.5921   31.1780 O.2     1  UNL1       -0.1686
     23 C           4.5974    0.7199   34.8321 C.ar    1  UNL1        0.0503
     24 C           4.8981    0.1260   36.1763 C.ar    1  UNL1        0.0144
     25 C           4.0772    0.5166   37.3695 C.ar    1  UNL1       -0.0002
     26 C           2.9557    1.5011   37.2183 C.ar    1  UNL1        0.0182
     27 C           2.6550    2.0950   35.8741 C.ar    1  UNL1       -0.0002
     28 C           3.4759    1.7044   34.6810 C.ar    1  UNL1        0.0144
     29 C           2.1347    1.8917   38.4114 C.3     1  UNL1        0.2827
     30 O           1.9627    0.4446   38.7670 O.3     1  UNL1       -0.3692
     31 H           1.4251    0.3709   39.5711 H       1  UNL1        0.2112
     32 C           1.3138    2.2824   39.6045 C.3     1  UNL1        0.4311
     33 F           0.4928    2.6732   40.7976 F       1  UNL1       -0.1669
     34 F           0.1750    1.4506   39.0934 F       1  UNL1       -0.1669
     35 F           1.9221    2.7981   39.9900 F       1  UNL1       -0.1669
     36 C           2.3067    3.3388   38.0559 C.3     1  UNL1        0.4311
     37 F           2.4788    4.7859   37.7003 F       1  UNL1       -0.1669
     38 F           3.1772    3.3857   38.2125 F       1  UNL1       -0.1669
     39 F           0.9277    3.7837   37.6682 F       1  UNL1       -0.1669
@<TRIPOS>BOND
     1     5     6    1
     2     6     7   am
     3     7     8    2
     4     7     9   am
     5     9    10    1
     6    10    11    1
     7    11    12   ar
     8    12    13   ar
     9    13    19    1
    10    19    20    1
    11    19    21    2
    12    19    22    2
    13    13    14   ar
    14    14    15   ar
    15    15    16   ar
    16    16    17    1
    17    17     1    1
    18     1     2    2
    19     1     3   am
    20     3    23    1
    21    23    24   ar
    22    24    25   ar
    23    25    26   ar
    24    26    29    1
    25    29    30    1
    26    29    32    1
    27    32    33    1
    28    32    34    1
    29    32    35    1
    30    29    36    1
    31    36    37    1
    32    36    38    1
    33    36    39    1
    34    26    27   ar
    35    27    28   ar
    36    17     9    1
    37    28    23   ar
    38    16    11   ar
    39     6    18    1
    40     3     4    1
    41    30    31    1
@<TRIPOS>MOLECULE
*****
 39 41 0 0 0
SMALL
GASTEIGER

@<TRIPOS>ATOM
      1 C          -0.6126    2.7043   20.6843 C.2     1  UNL1        0.2486
      2 O           0.6427    3.5230   20.6234 O.2     1  UNL1       -0.2726
      3 N          -0.5665    1.2367   20.3769 N.am    1  UNL1       -0.2823
      4 H          -1.3904    0.6993   20.4168 H       1  UNL1        0.1549
      5 C          -1.6144    3.1842   26.3107 C.3     1  UNL1        0.1122
      6 N          -2.3280    3.5452   25.0416 N.am    1  UNL1       -0.2870
      7 C          -1.7005    3.2366   23.7146 C.2     1  UNL1        0.3048
      8 O          -0.3595    2.5671   23.6567 O.2     1  UNL1       -0.2526
      9 N          -2.4140    3.5976   22.4455 N.am    1  UNL1       -0.2498
     10 C          -3.7529    4.2666   22.3464 C.3     1  UNL1        0.1222
     11 C          -4.0803    4.4354   20.8924 C.ar    1  UNL1       -0.0029
     12 C          -5.2665    5.0303   20.1931 C.ar    1  UNL1        0.0155
     13 C          -5.3162    5.0605   18.6943 C.ar    1  UNL1        0.1054
     14 C          -4.1796    4.4958   17.8947 C.ar    1  UNL1        0.0181
     15 C          -2.9934    3.9009   18.5939 C.ar    1  UNL1       -0.0011
     16 C          -2.9438    3.8707   20.0927 C.ar    1  UNL1        0.0023
     17 C          -1.9140    3.3529   21.0526 C.3     1  UNL1        0.1762
     18 H          -3.2081    3.9846   25.0796 H       1  UNL1        0.1510
     19 S          -6.5024    5.6555   17.9950 S.O2    1  UNL1        0.0104
     20 C          -7.6885    6.2505   17.2957 C.3     1  UNL1        0.1816
     21 O          -7.3203    4.4518   18.3582 O.2     1  UNL1       -0.1686
     22 O          -5.6845    6.8592   17.6318 O.2     1  UNL1       -0.1686
     23 C           0.7349    0.5881   20.0085 C.ar    1  UNL1        0.0503
     24 C           1.5014   -0.1915   21.0354 C.ar    1  UNL1        0.0144
     25 C           2.8028   -0.8401   20.6671 C.ar    1  UNL1       -0.0002
     26 C           3.3376   -0.7090   19.2718 C.ar    1  UNL1        0.0182
     27 C           2.5711    0.0706   18.2449 C.ar    1  UNL1       -0.0002
     28 C           1.2697    0.7192   18.6133 C.ar    1  UNL1        0.0144
     29 C           4.6390   -1.3576   18.9034 C.3     1  UNL1        0.2827
     30 O           5.3004   -0.0117   18.8699 O.3     1  UNL1       -0.3692
     31 H           6.2364   -0.1171   18.6381 H       1  UNL1        0.2112
     32 C           5.9404   -2.0063   18.5350 C.3     1  UNL1        0.4311
     33 F           7.2417   -2.6549   18.1665 F       1  UNL1       -0.1669
     34 F           6.4976   -1.6535   19.8822 F       1  UNL1       -0.1669
     35 F           5.7075   -2.2597   17.7188 F       1  UNL1       -0.1669
     36 C           3.9776   -2.7035   18.9368 C.3     1  UNL1        0.4311
     37 F           3.3162   -4.0494   18.9702 F       1  UNL1       -0.1669
     38 F           3.5253   -2.6203   18.1799 F       1  UNL1       -0.1669
     39 F           4.4877   -3.3273   20.2021 F       1  UNL1       -0.1669
@<TRIPOS>BOND
     1     5     6    1
     2     6     7   am
     3     7     8    2
     4     7     9   am
     5     9    10    1
     6    10    11    1
     7    11    12   ar
     8    12    13   ar
     9    13    19    1
    10    19    20    1
    11    19    21    2
    12    19    22    2
    13    13    14   ar
    14    14    15   ar
    15    15    16   ar
    16    16    17    1
    17    17     1    1
    18     1     2    2
    19     1     3   am
    20     3    23    1
    21    23    24   ar
    22    24    25   ar
    23    25    26   ar
    24    26    29    1
    25    29    30    1
    26    29    32    1
    27    32    33    1
    28    32    34    1
    29    32    35    1
    30    29    36    1
    31    36    37    1
    32    36    38    1
    33    36    39    1
    34    26    27   ar
    35    27    28   ar
    36    17     9    1
    37    28    23   ar
    38    16    11   ar
    39     6    18    1
    40     3     4    1
    41    30    31    1
@<TRIPOS>MOLECULE
*****
 39 41 0 0 0
SMALL
GASTEIGER

@<TRIPOS>ATOM
      1 C           4.9107   -0.8807   26.6206 C.2     1  UNL1        0.2486
      2 O           5.6991    0.2067   25.9531 O.2     1  UNL1       -0.2726
      3 N           4.0261   -1.7753   25.8036 N.am    1  UNL1       -0.2823
      4 H           3.5086   -2.4891   26.2417 H       1  UNL1        0.1549
      5 C           8.2272   -5.2387   28.3234 C.3     1  UNL1        0.1122
      6 N           7.3871   -4.1856   28.9831 N.am    1  UNL1       -0.2870
      7 C           6.6432   -3.1869   28.1469 C.2     1  UNL1        0.3048
      8 O           6.7394   -3.2414   26.6510 O.2     1  UNL1       -0.2526
      9 N           5.8031   -2.1338   28.8066 N.am    1  UNL1       -0.2498
     10 C           5.6118   -1.9558   30.2836 C.3     1  UNL1        0.1222
     11 C           4.6973   -0.7858   30.4950 C.ar    1  UNL1       -0.0029
     12 C           4.1568   -0.1463   31.7395 C.ar    1  UNL1        0.0155
     13 C           3.2423    1.0383   31.6375 C.ar    1  UNL1        0.1054
     14 C           2.8683    1.5834   30.2910 C.ar    1  UNL1        0.0181
     15 C           3.4089    0.9439   29.0465 C.ar    1  UNL1       -0.0011
     16 C           4.3233   -0.2406   29.1485 C.ar    1  UNL1        0.0023
     17 C           5.0068   -1.0738   28.1050 C.3     1  UNL1        0.1762
     18 H           7.3240   -4.1498   29.9649 H       1  UNL1        0.1510
     19 S           2.7017    1.6778   32.8821 S.O2    1  UNL1        0.0104
     20 C           2.1611    2.3173   34.1266 C.3     1  UNL1        0.1816
     21 O           1.3170    1.6250   32.3078 O.2     1  UNL1       -0.1686
     22 O           4.0863    1.7306   33.4563 O.2     1  UNL1       -0.1686
     23 C           3.9300   -1.5823   24.3192 C.ar    1  UNL1        0.0503
     24 C           3.1454   -0.4319   23.7617 C.ar    1  UNL1        0.0144
     25 C           3.0493   -0.2388   22.2773 C.ar    1  UNL1       -0.0002
     26 C           3.7379   -1.1962   21.3504 C.ar    1  UNL1        0.0182
     27 C           4.5226   -2.3467   21.9079 C.ar    1  UNL1       -0.0002
     28 C           4.6187   -2.5397   23.3923 C.ar    1  UNL1        0.0144
     29 C           3.6419   -1.0033   19.8659 C.3     1  UNL1        0.2827
     30 O           5.1387   -1.0077   19.7685 O.3     1  UNL1       -0.3692
     31 H           5.4028   -0.8910   18.8424 H       1  UNL1        0.2112
     32 C           3.5458   -0.8103   18.3815 C.3     1  UNL1        0.4311
     33 F           3.4497   -0.6174   16.8971 F       1  UNL1       -0.1669
     34 F           3.7216   -2.2861   18.1783 F       1  UNL1       -0.1669
     35 F           3.4358    0.0685   18.3937 F       1  UNL1       -0.1669
     36 C           2.1451   -0.9988   19.9634 C.3     1  UNL1        0.4311
     37 F           0.6482   -0.9945   20.0609 F       1  UNL1       -0.1669
     38 F           2.0362   -1.8774   19.9922 F       1  UNL1       -0.1669
     39 F           1.7848    0.4572   19.9510 F       1  UNL1       -0.1669
@<TRIPOS>BOND
     1     5     6    1
     2     6     7   am
     3     7     8    2
     4     7     9   am
     5     9    10    1
     6    10    11    1
     7    11    12   ar
     8    12    13   ar
     9    13    19    1
    10    19    20    1
    11    19    21    2
    12    19    22    2
    13    13    14   ar
    14    14    15   ar
    15    15    16   ar
    16    16    17    1
    17    17     1    1
    18     1     2    2
    19     1     3   am
    20     3    23    1
    21    23    24   ar
    22    24    25   ar
    23    25    26   ar
    24    26    29    1
    25    29    30    1
    26    29    32    1
    27    32    33    1
    28    32    34    1
    29    32    35    1
    30    29    36    1
    31    36    37    1
    32    36    38    1
    33    36    39    1
    34    26    27   ar
    35    27    28   ar
    36    17     9    1
    37    28    23   ar
    38    16    11   ar
    39     6    18    1
    40     3     4    1
    41    30    31    1
@<TRIPOS>MOLECULE
*****
 39 41 0 0 0
SMALL
GASTEIGER

@<TRIPOS>ATOM
      1 C           5.8383   -1.9565   26.3416 C.2     1  UNL1        0.2486
      2 O           6.8791   -1.1646   25.6072 O.2     1  UNL1       -0.2726
      3 N           4.5779   -2.3699   25.6412 N.am    1  UNL1       -0.2823
      4 H           3.8947   -2.8897   26.1232 H       1  UNL1        0.1549
      5 C           7.5474   -7.3593   27.2246 C.3     1  UNL1        0.1122
      6 N           7.2437   -6.1596   28.0722 N.am    1  UNL1       -0.2870
      7 C           6.8065   -4.8774   27.4281 C.2     1  UNL1        0.3048
      8 O           6.6731   -4.7950   25.9364 O.2     1  UNL1       -0.2526
      9 N           6.5029   -3.6777   28.2757 N.am    1  UNL1       -0.2498
     10 C           6.5909   -3.6099   29.7716 C.3     1  UNL1        0.1222
     11 C           6.2003   -2.2255   30.1967 C.ar    1  UNL1       -0.0029
     12 C           6.1020   -1.5804   31.5473 C.ar    1  UNL1        0.0155
     13 C           5.6743   -0.1475   31.6648 C.ar    1  UNL1        0.1054
     14 C           5.3448    0.6403   30.4316 C.ar    1  UNL1        0.0181
     15 C           5.4431   -0.0047   29.0810 C.ar    1  UNL1       -0.0011
     16 C           5.8708   -1.4376   28.9635 C.ar    1  UNL1        0.0023
     17 C           6.0578   -2.3351   27.7763 C.3     1  UNL1        0.1762
     18 H           7.3313   -6.2137   29.0513 H       1  UNL1        0.1510
     19 S           5.5760    0.4976   33.0154 S.O2    1  UNL1        0.0104
     20 C           5.4777    1.1426   34.3661 C.3     1  UNL1        0.1816
     21 O           4.9565    1.7122   32.3903 O.2     1  UNL1       -0.1686
     22 O           6.1955   -0.7171   33.6406 O.2     1  UNL1       -0.1686
     23 C           4.3584   -1.9913   24.2064 C.ar    1  UNL1        0.0503
     24 C           4.7217   -2.9520   23.1132 C.ar    1  UNL1        0.0144
     25 C           4.5022   -2.5734   21.6785 C.ar    1  UNL1       -0.0002
     26 C           3.9194   -1.2341   21.3370 C.ar    1  UNL1        0.0182
     27 C           3.5561   -0.2735   22.4302 C.ar    1  UNL1       -0.0002
     28 C           3.7756   -0.6521   23.8650 C.ar    1  UNL1        0.0144
     29 C           3.6998   -0.8554   19.9023 C.3     1  UNL1        0.2827
     30 O           5.1833   -0.7654   19.6990 O.3     1  UNL1       -0.3692
     31 H           5.3691   -0.5151   18.7804 H       1  UNL1        0.2112
     32 C           3.4802   -0.4768   18.4676 C.3     1  UNL1        0.4311
     33 F           3.2606   -0.0981   17.0329 F       1  UNL1       -0.1669
     34 F           3.6841   -1.9056   18.0592 F       1  UNL1       -0.1669
     35 F           3.3449    0.3879   18.6035 F       1  UNL1       -0.1669
     36 C           2.2164   -0.9455   20.1056 C.3     1  UNL1        0.4311
     37 F           0.7330   -1.0357   20.3089 F       1  UNL1       -0.1669
     38 F           2.1512   -1.8262   20.0360 F       1  UNL1       -0.1669
     39 F           1.7886    0.4798   20.2941 F       1  UNL1       -0.1669
@<TRIPOS>BOND
     1     5     6    1
     2     6     7   am
     3     7     8    2
     4     7     9   am
     5     9    10    1
     6    10    11    1
     7    11    12   ar
     8    12    13   ar
     9    13    19    1
    10    19    20    1
    11    19    21    2
    12    19    22    2
    13    13    14   ar
    14    14    15   ar
    15    15    16   ar
    16    16    17    1
    17    17     1    1
    18     1     2    2
    19     1     3   am
    20     3    23    1
    21    23    24   ar
    22    24    25   ar
    23    25    26   ar
    24    26    29    1
    25    29    30    1
    26    29    32    1
    27    32    33    1
    28    32    34    1
    29    32    35    1
    30    29    36    1
    31    36    37    1
    32    36    38    1
    33    36    39    1
    34    26    27   ar
    35    27    28   ar
    36    17     9    1
    37    28    23   ar
    38    16    11   ar
    39     6    18    1
    40     3     4    1
    41    30    31    1
@<TRIPOS>MOLECULE
*****
 39 41 0 0 0
SMALL
GASTEIGER

@<TRIPOS>ATOM
      1 C           3.5293    0.1271   26.4332 C.2     1  UNL1        0.2486
      2 O           4.7965    0.8166   26.0225 O.2     1  UNL1       -0.2726
      3 N           2.8852   -0.8680   25.5139 N.am    1  UNL1       -0.2823
      4 H           2.0535   -1.3206   25.7834 H       1  UNL1        0.1549
      5 C          -1.4439    2.9753   26.2215 C.3     1  UNL1        0.1122
      6 N          -0.5484    2.4234   27.2907 N.am    1  UNL1       -0.2870
      7 C           0.7188    1.7139   26.9153 C.2     1  UNL1        0.3048
      8 O           1.0904    1.5564   25.4707 O.2     1  UNL1       -0.2526
      9 N           1.6144    1.1620   27.9846 N.am    1  UNL1       -0.2498
     10 C           1.3753    1.2425   29.4632 C.3     1  UNL1        0.1222
     11 C           2.5194    0.5629   30.1555 C.ar    1  UNL1       -0.0029
     12 C           2.8219    0.3351   31.6069 C.ar    1  UNL1        0.0155
     13 C           4.0706   -0.3931   32.0074 C.ar    1  UNL1        0.1054
     14 C           5.0167   -0.8937   30.9566 C.ar    1  UNL1        0.0181
     15 C           4.7142   -0.6659   29.5052 C.ar    1  UNL1       -0.0011
     16 C           3.4656    0.0623   29.1046 C.ar    1  UNL1        0.0023
     17 C           2.9062    0.4326   27.7630 C.3     1  UNL1        0.1762
     18 H          -0.7923    2.5267   28.2389 H       1  UNL1        0.1510
     19 S           4.3731   -0.6209   33.4589 S.O2    1  UNL1        0.0104
     20 C           4.6756   -0.8487   34.9103 C.3     1  UNL1        0.1816
     21 O           4.8456    0.7973   33.5830 O.2     1  UNL1       -0.1686
     22 O           3.9006   -2.0391   33.3348 O.2     1  UNL1       -0.1686
     23 C           3.5083   -1.1735   24.1841 C.ar    1  UNL1        0.0503
     24 C           2.9791   -0.5226   22.9406 C.ar    1  UNL1        0.0144
     25 C           3.6023   -0.8281   21.6108 C.ar    1  UNL1       -0.0002
     26 C           4.7545   -1.7845   21.5246 C.ar    1  UNL1        0.0182
     27 C           5.2837   -2.4354   22.7681 C.ar    1  UNL1       -0.0002
     28 C           4.6606   -2.1299   24.0979 C.ar    1  UNL1        0.0144
     29 C           5.3777   -2.0901   20.1948 C.3     1  UNL1        0.2827
     30 O           6.4173   -1.0369   20.4399 O.3     1  UNL1       -0.3692
     31 H           7.0213   -0.9962   19.6819 H       1  UNL1        0.2112
     32 C           6.0009   -2.3957   18.8650 C.3     1  UNL1        0.4311
     33 F           6.6240   -2.7013   17.5352 F       1  UNL1       -0.1669
     34 F           7.0831   -3.1753   19.5513 F       1  UNL1       -0.1669
     35 F           5.4115   -1.9608   18.3670 F       1  UNL1       -0.1669
     36 C           4.3381   -3.1432   19.9497 C.3     1  UNL1        0.4311
     37 F           3.2986   -4.1965   19.7046 F       1  UNL1       -0.1669
     38 F           4.7832   -3.8198   20.3085 F       1  UNL1       -0.1669
     39 F           3.2259   -2.4036   19.2671 F       1  UNL1       -0.1669
@<TRIPOS>BOND
     1     5     6    1
     2     6     7   am
     3     7     8    2
     4     7     9   am
     5     9    10    1
     6    10    11    1
     7    11    12   ar
     8    12    13   ar
     9    13    19    1
    10    19    20    1
    11    19    21    2
    12    19    22    2
    13    13    14   ar
    14    14    15   ar
    15    15    16   ar
    16    16    17    1
    17    17     1    1
    18     1     2    2
    19     1     3   am
    20     3    23    1
    21    23    24   ar
    22    24    25   ar
    23    25    26   ar
    24    26    29    1
    25    29    30    1
    26    29    32    1
    27    32    33    1
    28    32    34    1
    29    32    35    1
    30    29    36    1
    31    36    37    1
    32    36    38    1
    33    36    39    1
    34    26    27   ar
    35    27    28   ar
    36    17     9    1
    37    28    23   ar
    38    16    11   ar
    39     6    18    1
    40     3     4    1
    41    30    31    1
@<TRIPOS>MOLECULE
*****
 39 41 0 0 0
SMALL
GASTEIGER

@<TRIPOS>ATOM
      1 C           3.7828   -0.1968   31.4464 C.2     1  UNL1        0.2486
      2 O           3.5876   -1.1901   32.5532 O.2     1  UNL1       -0.2726
      3 N           3.9104    1.2639   31.7635 N.am    1  UNL1       -0.2823
      4 H           4.0386    1.9159   31.0371 H       1  UNL1        0.1549
      5 C          -1.0369    0.4666   28.4099 C.3     1  UNL1        0.1122
      6 N           0.3415   -0.0712   28.1635 N.am    1  UNL1       -0.2870
      7 C           1.3570   -0.0660   29.2675 C.2     1  UNL1        0.3048
      8 O           0.9940    0.4769   30.6178 O.2     1  UNL1       -0.2526
      9 N           2.7355   -0.6038   29.0211 N.am    1  UNL1       -0.2498
     10 C           3.2409   -1.1759   27.7299 C.3     1  UNL1        0.1222
     11 C           4.6683   -1.5895   27.9334 C.ar    1  UNL1       -0.0029
     12 C           5.6737   -2.2135   27.0115 C.ar    1  UNL1        0.0155
     13 C           7.0558   -2.5209   27.5067 C.ar    1  UNL1        0.1054
     14 C           7.4325   -2.2045   28.9237 C.ar    1  UNL1        0.0181
     15 C           6.4272   -1.5806   29.8456 C.ar    1  UNL1       -0.0011
     16 C           5.0451   -1.2731   29.3504 C.ar    1  UNL1        0.0023
     17 C           3.8505   -0.6639   30.0226 C.3     1  UNL1        0.1762
     18 H           0.5798   -0.4275   27.2772 H       1  UNL1        0.1510
     19 S           8.0613   -3.1449   26.5848 S.O2    1  UNL1        0.0104
     20 C           9.0667   -3.7688   25.6630 C.3     1  UNL1        0.1816
     21 O           7.6611   -2.1884   25.5009 O.2     1  UNL1       -0.1686
     22 O           8.4615   -4.1014   27.6687 O.2     1  UNL1       -0.1686
     23 C           3.8428    1.7310   33.1873 C.ar    1  UNL1        0.0503
     24 C           5.0842    1.7541   34.0288 C.ar    1  UNL1        0.0144
     25 C           5.0166    2.2212   35.4526 C.ar    1  UNL1       -0.0002
     26 C           3.7074    2.6652   36.0348 C.ar    1  UNL1        0.0182
     27 C           2.4660    2.6420   35.1933 C.ar    1  UNL1       -0.0002
     28 C           2.5336    2.1749   33.7695 C.ar    1  UNL1        0.0144
     29 C           3.6397    3.1323   37.4587 C.3     1  UNL1        0.2827
     30 O           4.4840    4.3217   37.1087 O.3     1  UNL1       -0.3692
     31 H           4.6246    4.8629   37.9013 H       1  UNL1        0.2112
     32 C           3.5719    3.5994   38.8825 C.3     1  UNL1        0.4311
     33 F           3.5041    4.0664   40.3063 F       1  UNL1       -0.1669
     34 F           2.8915    4.8596   38.4367 F       1  UNL1       -0.1669
     35 F           3.9658    2.8944   39.2463 F       1  UNL1       -0.1669
     36 C           2.7955    1.9429   37.8086 C.3     1  UNL1        0.4311
     37 F           1.9513    0.7533   38.1586 F       1  UNL1       -0.1669
     38 F           3.4134    1.3252   37.6628 F       1  UNL1       -0.1669
     39 F           1.4676    2.5357   38.1765 F       1  UNL1       -0.1669
@<TRIPOS>BOND
     1     5     6    1
     2     6     7   am
     3     7     8    2
     4     7     9   am
     5     9    10    1
     6    10    11    1
     7    11    12   ar
     8    12    13   ar
     9    13    19    1
    10    19    20    1
    11    19    21    2
    12    19    22    2
    13    13    14   ar
    14    14    15   ar
    15    15    16   ar
    16    16    17    1
    17    17     1    1
    18     1     2    2
    19     1     3   am
    20     3    23    1
    21    23    24   ar
    22    24    25   ar
    23    25    26   ar
    24    26    29    1
    25    29    30    1
    26    29    32    1
    27    32    33    1
    28    32    34    1
    29    32    35    1
    30    29    36    1
    31    36    37    1
    32    36    38    1
    33    36    39    1
    34    26    27   ar
    35    27    28   ar
    36    17     9    1
    37    28    23   ar
    38    16    11   ar
    39     6    18    1
    40     3     4    1
    41    30    31    1
