@<TRIPOS>MOLECULE
*****
 22 24 0 0 0
SMALL
GASTEIGER

@<TRIPOS>ATOM
      1 C           4.9180   -1.7564   18.3697 C.2     1  UNL1       -0.0420
      2 C           3.9179   -2.1822   19.4034 C.2     1  UNL1       -0.0240
      3 C           2.8307   -1.1498   19.4495 C.ar    1  UNL1       -0.0078
      4 C           1.5843   -1.0410   20.2769 C.ar    1  UNL1       -0.0006
      5 C           0.6661    0.1317   20.0992 C.ar    1  UNL1       -0.0000
      6 C           0.9943    1.1956   19.0940 C.ar    1  UNL1       -0.0003
      7 C           2.2406    1.0868   18.2666 C.ar    1  UNL1       -0.0040
      8 C           3.1588   -0.0858   18.4443 C.ar    1  UNL1       -0.0184
      9 C           4.4489   -0.4608   17.7770 C.3     1  UNL1        0.0480
     10 C           6.1677   -2.4962   17.9946 C.3     1  UNL1        0.0394
     11 C           7.4527   -2.2110   18.7140 C.3     1  UNL1        0.0765
     12 N           7.6511   -0.8923   19.4006 N.3     1  UNL1       -0.2712
     13 C           8.1271    0.2962   18.6190 C.3     1  UNL1        0.0896
     14 C           6.2267    0.0805   21.3436 C.3     1  UNL1        0.0188
     15 C           7.3734   -0.7620   20.8689 C.3     1  UNL1        0.0722
     16 C           3.9920   -3.4227   20.2434 C.3     1  UNL1        0.0730
     17 C           4.7908   -3.4220   21.5131 C.ar    1  UNL1        0.0825
     18 C           4.2779   -2.6964   22.7216 C.ar    1  UNL1        0.1139
     19 N           5.0766   -2.6957   23.9912 N.ar    1  UNL1       -0.2394
     20 C           6.3883   -3.4208   24.0524 C.ar    1  UNL1        0.1195
     21 C           6.9012   -4.1464   22.8439 C.ar    1  UNL1        0.1191
     22 N           6.1025   -4.1471   21.5743 N.ar    1  UNL1       -0.2446
@<TRIPOS>BOND
     1    14    15    1
     2    15    12    1
     3    12    13    1
     4    12    11    1
     5    11    10    1
     6    10     1    1
     7     1     2    2
     8     2    16    1
     9    16    17    1
    10    17    18   ar
    11    18    19   ar
    12    19    20   ar
    13    20    21   ar
    14    21    22   ar
    15     2     3    1
    16     3     4   ar
    17     4     5   ar
    18     5     6   ar
    19     6     7   ar
    20     7     8   ar
    21     8     9    1
    22     9     1    1
    23    22    17   ar
    24     8     3   ar
@<TRIPOS>MOLECULE
*****
 22 24 0 0 0
SMALL
GASTEIGER

@<TRIPOS>ATOM
      1 C           2.1135   -0.3321   20.5647 C.2     1  UNL1       -0.0420
      2 C           3.0438   -1.4271   20.9953 C.2     1  UNL1       -0.0240
      3 C           3.3079   -1.2608   22.4625 C.ar    1  UNL1       -0.0078
      4 C           4.1477   -2.0454   23.4264 C.ar    1  UNL1       -0.0006
      5 C           4.2204   -1.6321   24.8665 C.ar    1  UNL1       -0.0000
      6 C           3.4532   -0.4343   25.3427 C.ar    1  UNL1       -0.0003
      7 C           2.6134    0.3502   24.3788 C.ar    1  UNL1       -0.0040
      8 C           2.5407   -0.0631   22.9387 C.ar    1  UNL1       -0.0184
      9 C           1.8025    0.5109   21.7658 C.3     1  UNL1        0.0480
     10 C           1.5866   -0.1177   19.1768 C.3     1  UNL1        0.0394
     11 C           2.4907    0.4159   18.1054 C.3     1  UNL1        0.0765
     12 N           3.4277    1.5471   18.4095 N.3     1  UNL1       -0.2712
     13 C           2.9034    2.9490   18.5096 C.3     1  UNL1        0.0896
     14 C           5.4643    1.2710   19.9988 C.3     1  UNL1        0.0188
     15 C           4.8889    1.2766   18.6136 C.3     1  UNL1        0.0722
     16 C           3.6107   -2.5000   20.1136 C.3     1  UNL1        0.0730
     17 C           5.0141   -2.3826   19.5969 C.ar    1  UNL1        0.0825
     18 C           5.2687   -2.3471   18.1191 C.ar    1  UNL1        0.1139
     19 N           6.6720   -2.2297   17.6024 N.ar    1  UNL1       -0.2394
     20 C           7.8206   -2.1477   18.5636 C.ar    1  UNL1        0.1195
     21 C           7.5660   -2.1831   20.0414 C.ar    1  UNL1        0.1191
     22 N           6.1627   -2.3005   20.5581 N.ar    1  UNL1       -0.2446
@<TRIPOS>BOND
     1    14    15    1
     2    15    12    1
     3    12    13    1
     4    12    11    1
     5    11    10    1
     6    10     1    1
     7     1     2    2
     8     2    16    1
     9    16    17    1
    10    17    18   ar
    11    18    19   ar
    12    19    20   ar
    13    20    21   ar
    14    21    22   ar
    15     2     3    1
    16     3     4   ar
    17     4     5   ar
    18     5     6   ar
    19     6     7   ar
    20     7     8   ar
    21     8     9    1
    22     9     1    1
    23    22    17   ar
    24     8     3   ar
@<TRIPOS>MOLECULE
*****
 22 24 0 0 0
SMALL
GASTEIGER

@<TRIPOS>ATOM
      1 C           3.9356   -2.6982   20.4110 C.2     1  UNL1       -0.0420
      2 C           3.0596   -1.5996   20.9361 C.2     1  UNL1       -0.0240
      3 C           3.3679   -1.4170   22.3927 C.ar    1  UNL1       -0.0078
      4 C           2.8152   -0.4805   23.4259 C.ar    1  UNL1       -0.0006
      5 C           3.3291   -0.5298   24.8342 C.ar    1  UNL1       -0.0000
      6 C           4.3957   -1.5156   25.2094 C.ar    1  UNL1       -0.0003
      7 C           4.9483   -2.4521   24.1762 C.ar    1  UNL1       -0.0040
      8 C           4.4344   -2.4028   22.7679 C.ar    1  UNL1       -0.0184
      9 C           4.7853   -3.1946   21.5431 C.3     1  UNL1        0.0480
     10 C           3.9580   -3.2104   19.0014 C.3     1  UNL1        0.0394
     11 C           5.0702   -2.8132   18.0766 C.3     1  UNL1        0.0765
     12 N           5.0899   -1.4398   17.4737 N.3     1  UNL1       -0.2712
     13 C           3.8935   -0.9323   16.7247 C.3     1  UNL1        0.0896
     14 C           6.5088    0.5953   16.7024 C.3     1  UNL1        0.0188
     15 C           6.3061   -0.5740   17.6198 C.3     1  UNL1        0.0722
     16 C           2.0522   -0.8203   20.1438 C.3     1  UNL1        0.0730
     17 C           2.4061    0.5348   19.6066 C.ar    1  UNL1        0.0825
     18 C           1.3650    1.3617   18.9121 C.ar    1  UNL1        0.1139
     19 N           1.7188    2.7167   18.3750 N.ar    1  UNL1       -0.2394
     20 C           3.1139    3.2449   18.5323 C.ar    1  UNL1        0.1195
     21 C           4.1551    2.4180   19.2268 C.ar    1  UNL1        0.1191
     22 N           3.8012    1.0630   19.7639 N.ar    1  UNL1       -0.2446
@<TRIPOS>BOND
     1    14    15    1
     2    15    12    1
     3    12    13    1
     4    12    11    1
     5    11    10    1
     6    10     1    1
     7     1     2    2
     8     2    16    1
     9    16    17    1
    10    17    18   ar
    11    18    19   ar
    12    19    20   ar
    13    20    21   ar
    14    21    22   ar
    15     2     3    1
    16     3     4   ar
    17     4     5   ar
    18     5     6   ar
    19     6     7   ar
    20     7     8   ar
    21     8     9    1
    22     9     1    1
    23    22    17   ar
    24     8     3   ar
@<TRIPOS>MOLECULE
*****
 22 24 0 0 0
SMALL
GASTEIGER

@<TRIPOS>ATOM
      1 C           4.0532   -2.1305   18.8700 C.2     1  UNL1       -0.0420
      2 C           3.8871   -0.8599   18.0904 C.2     1  UNL1       -0.0240
      3 C           2.7052   -0.1243   18.6490 C.ar    1  UNL1       -0.0078
      4 C           2.0701    1.1831   18.2787 C.ar    1  UNL1       -0.0006
      5 C           0.8705    1.6745   19.0333 C.ar    1  UNL1       -0.0000
      6 C           0.3060    0.8584   20.1582 C.ar    1  UNL1       -0.0003
      7 C           0.9412   -0.4490   20.5285 C.ar    1  UNL1       -0.0040
      8 C           2.1408   -0.9404   19.7739 C.ar    1  UNL1       -0.0184
      9 C           2.9738   -2.1803   19.9105 C.3     1  UNL1        0.0480
     10 C           5.1125   -3.1691   18.6482 C.3     1  UNL1        0.0394
     11 C           5.3876   -4.1975   19.7049 C.3     1  UNL1        0.0765
     12 N           6.3351   -3.8865   20.8254 N.3     1  UNL1       -0.2712
     13 C           7.7331   -4.4295   20.7979 C.3     1  UNL1        0.0896
     14 C           4.7427   -3.4795   22.8376 C.3     1  UNL1        0.0188
     15 C           5.8845   -3.0327   21.9734 C.3     1  UNL1        0.0722
     16 C           4.7513   -0.4046   16.9520 C.3     1  UNL1        0.0730
     17 C           6.0092    0.3653   17.2264 C.ar    1  UNL1        0.0825
     18 C           6.5524    0.4414   18.6225 C.ar    1  UNL1        0.1139
     19 N           7.8101    1.2112   18.8970 N.ar    1  UNL1       -0.2394
     20 C           8.5247    1.9049   17.7753 C.ar    1  UNL1        0.1195
     21 C           7.9815    1.8288   16.3792 C.ar    1  UNL1        0.1191
     22 N           6.7237    1.0590   16.1048 N.ar    1  UNL1       -0.2446
@<TRIPOS>BOND
     1    14    15    1
     2    15    12    1
     3    12    13    1
     4    12    11    1
     5    11    10    1
     6    10     1    1
     7     1     2    2
     8     2    16    1
     9    16    17    1
    10    17    18   ar
    11    18    19   ar
    12    19    20   ar
    13    20    21   ar
    14    21    22   ar
    15     2     3    1
    16     3     4   ar
    17     4     5   ar
    18     5     6   ar
    19     6     7   ar
    20     7     8   ar
    21     8     9    1
    22     9     1    1
    23    22    17   ar
    24     8     3   ar
@<TRIPOS>MOLECULE
*****
 22 24 0 0 0
SMALL
GASTEIGER

@<TRIPOS>ATOM
      1 C           3.5837   -2.4751   20.1715 C.2     1  UNL1       -0.0420
      2 C           4.0882   -2.6619   21.5717 C.2     1  UNL1       -0.0240
      3 C           3.4999   -1.5776   22.4250 C.ar    1  UNL1       -0.0078
      4 C           3.6425   -1.2598   23.8839 C.ar    1  UNL1       -0.0006
      5 C           2.9170   -0.0851   24.4700 C.ar    1  UNL1       -0.0000
      6 C           2.0488    0.7719   23.5972 C.ar    1  UNL1       -0.0003
      7 C           1.9061    0.4541   22.1382 C.ar    1  UNL1       -0.0040
      8 C           2.6317   -0.7206   21.5521 C.ar    1  UNL1       -0.0184
      9 C           2.6835   -1.2753   20.1594 C.3     1  UNL1        0.0480
     10 C           3.9202   -3.3368   18.9907 C.3     1  UNL1        0.0394
     11 C           5.2266   -3.1539   18.2768 C.3     1  UNL1        0.0765
     12 N           5.8352   -1.7875   18.1647 N.3     1  UNL1       -0.2712
     13 C           7.1408   -1.4902   18.8409 C.3     1  UNL1        0.0896
     14 C           4.8756    0.6211   17.9984 C.3     1  UNL1        0.0188
     15 C           5.1382   -0.7184   17.3766 C.3     1  UNL1        0.0722
     16 C           5.0179   -3.7432   22.0370 C.3     1  UNL1        0.0730
     17 C           6.4994   -3.5844   21.8636 C.ar    1  UNL1        0.0825
     18 C           7.2017   -2.4007   22.4599 C.ar    1  UNL1        0.1139
     19 N           8.6832   -2.2418   22.2867 N.ar    1  UNL1       -0.2394
     20 C           9.4623   -3.2668   21.5170 C.ar    1  UNL1        0.1195
     21 C           8.7601   -4.4505   20.9207 C.ar    1  UNL1        0.1191
     22 N           7.2786   -4.6094   21.0940 N.ar    1  UNL1       -0.2446
@<TRIPOS>BOND
     1    14    15    1
     2    15    12    1
     3    12    13    1
     4    12    11    1
     5    11    10    1
     6    10     1    1
     7     1     2    2
     8     2    16    1
     9    16    17    1
    10    17    18   ar
    11    18    19   ar
    12    19    20   ar
    13    20    21   ar
    14    21    22   ar
    15     2     3    1
    16     3     4   ar
    17     4     5   ar
    18     5     6   ar
    19     6     7   ar
    20     7     8   ar
    21     8     9    1
    22     9     1    1
    23    22    17   ar
    24     8     3   ar
@<TRIPOS>MOLECULE
*****
 22 24 0 0 0
SMALL
GASTEIGER

@<TRIPOS>ATOM
      1 C           2.0501    4.1368   34.8163 C.2     1  UNL1       -0.0420
      2 C           1.6647    4.7339   36.1372 C.2     1  UNL1       -0.0240
      3 C           0.5055    5.6578   35.9077 C.ar    1  UNL1       -0.0078
      4 C          -0.2913    6.5195   36.8417 C.ar    1  UNL1       -0.0006
      5 C          -1.4192    7.3551   36.3130 C.ar    1  UNL1       -0.0000
      6 C          -1.7503    7.3289   34.8502 C.ar    1  UNL1       -0.0003
      7 C          -0.9534    6.4672   33.9162 C.ar    1  UNL1       -0.0040
      8 C           0.1745    5.6317   34.4449 C.ar    1  UNL1       -0.0184
      9 C           1.1291    4.6916   33.7704 C.3     1  UNL1        0.0480
     10 C           3.1614    3.1568   34.5823 C.3     1  UNL1        0.0394
     11 C           2.8932    1.8823   33.8383 C.3     1  UNL1        0.0765
     12 N           3.8364    0.7235   33.9712 N.3     1  UNL1       -0.2712
     13 C           3.7508   -0.4270   33.0125 C.3     1  UNL1        0.0896
     14 C           4.7587   -0.2731   36.1862 C.3     1  UNL1        0.0188
     15 C           4.8651    0.7152   35.0629 C.3     1  UNL1        0.0722
     16 C           2.3230    4.4560   37.4561 C.3     1  UNL1        0.0730
     17 C           2.0647    3.1593   38.1647 C.ar    1  UNL1        0.0825
     18 C           3.2096    2.2569   38.5182 C.ar    1  UNL1        0.1139
     19 N           2.9514    0.9603   39.2268 N.ar    1  UNL1       -0.2394
     20 C           1.5484    0.5662   39.5820 C.ar    1  UNL1        0.1195
     21 C           0.4036    1.4686   39.2285 C.ar    1  UNL1        0.1191
     22 N           0.6617    2.7652   38.5199 N.ar    1  UNL1       -0.2446
@<TRIPOS>BOND
     1    14    15    1
     2    15    12    1
     3    12    13    1
     4    12    11    1
     5    11    10    1
     6    10     1    1
     7     1     2    2
     8     2    16    1
     9    16    17    1
    10    17    18   ar
    11    18    19   ar
    12    19    20   ar
    13    20    21   ar
    14    21    22   ar
    15     2     3    1
    16     3     4   ar
    17     4     5   ar
    18     5     6   ar
    19     6     7   ar
    20     7     8   ar
    21     8     9    1
    22     9     1    1
    23    22    17   ar
    24     8     3   ar
@<TRIPOS>MOLECULE
*****
 22 24 0 0 0
SMALL
GASTEIGER

@<TRIPOS>ATOM
      1 C           3.4090   -1.4368   22.3836 C.2     1  UNL1       -0.0420
      2 C           2.5728   -0.7823   21.3241 C.2     1  UNL1       -0.0240
      3 C           1.7742    0.3094   21.9725 C.ar    1  UNL1       -0.0078
      4 C           0.7793    1.2876   21.4219 C.ar    1  UNL1       -0.0006
      5 C           0.1270    2.2861   22.3316 C.ar    1  UNL1       -0.0000
      6 C           0.4696    2.3064   23.7918 C.ar    1  UNL1       -0.0003
      7 C           1.4645    1.3281   24.3424 C.ar    1  UNL1       -0.0040
      8 C           2.1168    0.3296   23.4327 C.ar    1  UNL1       -0.0184
      9 C           3.1271   -0.7496   23.6868 C.3     1  UNL1        0.0480
     10 C           4.3600   -2.5781   22.1763 C.3     1  UNL1        0.0394
     11 C           5.6975   -2.3342   21.5428 C.3     1  UNL1        0.0765
     12 N           6.2800   -3.3503   20.6056 N.3     1  UNL1       -0.2712
     13 C           7.4418   -4.1933   21.0412 C.3     1  UNL1        0.0896
     14 C           4.5855   -4.5006   19.0071 C.3     1  UNL1        0.0188
     15 C           5.7008   -3.5234   19.2328 C.3     1  UNL1        0.0722
     16 C           2.5408   -1.1542   19.8713 C.3     1  UNL1        0.0730
     17 C           3.5799   -0.6118   18.9352 C.ar    1  UNL1        0.0825
     18 C           3.5855   -1.0329   17.4955 C.ar    1  UNL1        0.1139
     19 N           4.6244   -0.4905   16.5594 N.ar    1  UNL1       -0.2394
     20 C           5.6579    0.4730   17.0630 C.ar    1  UNL1        0.1195
     21 C           5.6523    0.8941   18.5027 C.ar    1  UNL1        0.1191
     22 N           4.6133    0.3518   19.4388 N.ar    1  UNL1       -0.2446
@<TRIPOS>BOND
     1    14    15    1
     2    15    12    1
     3    12    13    1
     4    12    11    1
     5    11    10    1
     6    10     1    1
     7     1     2    2
     8     2    16    1
     9    16    17    1
    10    17    18   ar
    11    18    19   ar
    12    19    20   ar
    13    20    21   ar
    14    21    22   ar
    15     2     3    1
    16     3     4   ar
    17     4     5   ar
    18     5     6   ar
    19     6     7   ar
    20     7     8   ar
    21     8     9    1
    22     9     1    1
    23    22    17   ar
    24     8     3   ar
@<TRIPOS>MOLECULE
*****
 22 24 0 0 0
SMALL
GASTEIGER

@<TRIPOS>ATOM
      1 C           3.5442   -2.3534   20.6128 C.2     1  UNL1       -0.0420
      2 C           2.5212   -1.2907   20.8851 C.2     1  UNL1       -0.0240
      3 C           2.7988   -0.7171   22.2430 C.ar    1  UNL1       -0.0078
      4 C           2.1182    0.3586   23.0365 C.ar    1  UNL1       -0.0006
      5 C           2.6321    0.7260   24.3969 C.ar    1  UNL1       -0.0000
      6 C           3.8266    0.0177   24.9639 C.ar    1  UNL1       -0.0003
      7 C           4.5072   -1.0580   24.1705 C.ar    1  UNL1       -0.0040
      8 C           3.9933   -1.4254   22.8100 C.ar    1  UNL1       -0.0184
      9 C           4.4539   -2.4367   21.8025 C.3     1  UNL1        0.0480
     10 C           3.6404   -3.1866   19.3692 C.3     1  UNL1        0.0394
     11 C           4.8645   -3.1071   18.5061 C.3     1  UNL1        0.0765
     12 N           5.5909   -1.8037   18.3529 N.3     1  UNL1       -0.2712
     13 C           7.0269   -1.6916   18.7720 C.3     1  UNL1        0.0896
     14 C           3.7813   -0.8043   16.7793 C.3     1  UNL1        0.0188
     15 C           4.8814   -0.6124   17.7807 C.3     1  UNL1        0.0722
     16 C           1.4149   -0.8745   19.9616 C.3     1  UNL1        0.0730
     17 C           1.0314    0.5718   19.8545 C.ar    1  UNL1        0.0825
     18 C           1.9098    1.5268   19.1020 C.ar    1  UNL1        0.1139
     19 N           1.5264    2.9730   18.9949 N.ar    1  UNL1       -0.2394
     20 C           0.2645    3.4641   19.6403 C.ar    1  UNL1        0.1195
     21 C          -0.6139    2.5090   20.3927 C.ar    1  UNL1        0.1191
     22 N          -0.2305    1.0628   20.4999 N.ar    1  UNL1       -0.2446
@<TRIPOS>BOND
     1    14    15    1
     2    15    12    1
     3    12    13    1
     4    12    11    1
     5    11    10    1
     6    10     1    1
     7     1     2    2
     8     2    16    1
     9    16    17    1
    10    17    18   ar
    11    18    19   ar
    12    19    20   ar
    13    20    21   ar
    14    21    22   ar
    15     2     3    1
    16     3     4   ar
    17     4     5   ar
    18     5     6   ar
    19     6     7   ar
    20     7     8   ar
    21     8     9    1
    22     9     1    1
    23    22    17   ar
    24     8     3   ar
@<TRIPOS>MOLECULE
*****
 22 24 0 0 0
SMALL
GASTEIGER

@<TRIPOS>ATOM
      1 C           4.7774   -1.8772   18.6967 C.2     1  UNL1       -0.0420
      2 C           4.3760   -0.6348   17.9581 C.2     1  UNL1       -0.0240
      3 C           3.0764   -0.1537   18.5322 C.ar    1  UNL1       -0.0078
      4 C           2.2070    1.0227   18.2005 C.ar    1  UNL1       -0.0006
      5 C           0.9357    1.2542   18.9623 C.ar    1  UNL1       -0.0000
      6 C           0.5339    0.3091   20.0556 C.ar    1  UNL1       -0.0003
      7 C           1.4032   -0.8673   20.3872 C.ar    1  UNL1       -0.0040
      8 C           2.6745   -1.0988   19.6255 C.ar    1  UNL1       -0.0184
      9 C           3.7258   -2.1639   19.7272 C.3     1  UNL1        0.0480
     10 C           6.0133   -2.6901   18.4483 C.3     1  UNL1        0.0394
     11 C           7.1035   -2.7310   19.4778 C.3     1  UNL1        0.0765
     12 N           7.6326   -1.4544   20.0611 N.3     1  UNL1       -0.2712
     13 C           8.6509   -0.6510   19.3077 C.3     1  UNL1        0.0896
     14 C           6.1971    0.1797   21.4821 C.3     1  UNL1        0.0188
     15 C           7.1433   -0.9811   21.3978 C.3     1  UNL1        0.0722
     16 C           5.1401    0.0128   16.8415 C.3     1  UNL1        0.0730
     17 C           6.1948    1.0344   17.1483 C.ar    1  UNL1        0.0825
     18 C           5.9724    2.0369   18.2417 C.ar    1  UNL1        0.1139
     19 N           7.0270    3.0585   18.5484 N.ar    1  UNL1       -0.2394
     20 C           8.3040    3.0777   17.7617 C.ar    1  UNL1        0.1195
     21 C           8.5263    2.0752   16.6683 C.ar    1  UNL1        0.1191
     22 N           7.4718    1.0536   16.3615 N.ar    1  UNL1       -0.2446
@<TRIPOS>BOND
     1    14    15    1
     2    15    12    1
     3    12    13    1
     4    12    11    1
     5    11    10    1
     6    10     1    1
     7     1     2    2
     8     2    16    1
     9    16    17    1
    10    17    18   ar
    11    18    19   ar
    12    19    20   ar
    13    20    21   ar
    14    21    22   ar
    15     2     3    1
    16     3     4   ar
    17     4     5   ar
    18     5     6   ar
    19     6     7   ar
    20     7     8   ar
    21     8     9    1
    22     9     1    1
    23    22    17   ar
    24     8     3   ar
