@<TRIPOS>MOLECULE
*****
 29 32 0 0 0
SMALL
GASTEIGER

@<TRIPOS>ATOM
      1 C           6.6153   -4.1182   29.3092 C.ar    1  UNL1        0.0785
      2 C           6.2483   -2.6666   29.2195 C.ar    1  UNL1        0.0183
      3 C           6.1177   -1.8475   30.4693 C.ar    1  UNL1        0.0168
      4 C           6.3541   -2.4799   31.8087 C.ar    1  UNL1        0.0636
      5 C           6.7212   -3.9315   31.8983 C.ar    1  UNL1        0.0462
      6 C           6.8518   -4.7507   30.6486 C.ar    1  UNL1        0.1547
      7 F           7.2188   -6.2024   30.7383 F       1  UNL1       -0.2028
      8 N           6.2235   -1.6608   33.0585 N.am    1  UNL1       -0.2010
      9 C           7.2761   -0.7631   33.6383 C.2     1  UNL1        0.2589
     10 O           8.6441   -0.5269   33.0702 O.2     1  UNL1       -0.2691
     11 C           6.7205   -0.1430   34.8861 C.ar    1  UNL1        0.0587
     12 C           7.3054    0.8236   35.8727 C.ar    1  UNL1        0.0055
     13 C           6.4943    1.2758   37.0507 C.ar    1  UNL1        0.0115
     14 C           5.0983    0.7613   37.2420 C.ar    1  UNL1        0.0578
     15 CL          4.2872    1.2135   38.4201 Cl      1  UNL1       -0.0822
     16 C           4.5135   -0.2053   36.2554 C.ar    1  UNL1        0.0161
     17 C           5.3245   -0.6575   35.0774 C.ar    1  UNL1        0.0595
     18 C           5.0174   -1.5955   33.9479 C.2     1  UNL1        0.2589
     19 O           3.7301   -2.3379   33.7437 O.2     1  UNL1       -0.2691
     20 C           8.0248   -4.9116   27.2760 C.2     1  UNL1        0.2840
     21 O           9.1731   -4.0666   27.7423 O.2     1  UNL1       -0.2665
     22 N           6.7459   -4.9374   28.0594 N.am    1  UNL1       -0.2761
     23 H           5.9923   -5.4919   27.7533 H       1  UNL1        0.1553
     24 C           8.0007   -8.1705   27.1072 C.3     1  UNL1        0.0345
     25 C           8.1443   -7.2288   25.9487 C.ar    1  UNL1        0.0204
     26 C           8.3021   -7.6195   24.5090 C.ar    1  UNL1        0.0396
     27 C           8.4106   -6.3631   23.6969 C.ar    1  UNL1        0.1795
     28 O           8.3200   -5.1958   24.6345 O.2     1  UNL1       -0.4461
     29 C           8.1554   -5.7307   26.0262 C.ar    1  UNL1        0.1948
@<TRIPOS>BOND
     1    24    25    1
     2    25    26   ar
     3    26    27   ar
     4    27    28   ar
     5    28    29   ar
     6    29    20    1
     7    20    21    2
     8    20    22   am
     9    22     1    1
    10     1     2   ar
    11     2     3   ar
    12     3     4   ar
    13     4     8    1
    14     8     9   am
    15     9    10    2
    16     9    11    1
    17    11    12   ar
    18    12    13   ar
    19    13    14   ar
    20    14    15    1
    21    14    16   ar
    22    16    17   ar
    23    17    18    1
    24    18    19    2
    25     4     5   ar
    26     5     6   ar
    27     6     7    1
    28    29    25   ar
    29     6     1   ar
    30    18     8   am
    31    17    11   ar
    32    22    23    1
@<TRIPOS>MOLECULE
*****
 29 32 0 0 0
SMALL
GASTEIGER

@<TRIPOS>ATOM
      1 C           6.6271   -4.0188   29.0191 C.ar    1  UNL1        0.0785
      2 C           6.3107   -2.5529   28.9842 C.ar    1  UNL1        0.0183
      3 C           6.1829   -1.7825   30.2649 C.ar    1  UNL1        0.0168
      4 C           6.3714   -2.4780   31.5805 C.ar    1  UNL1        0.0636
      5 C           6.6877   -3.9438   31.6154 C.ar    1  UNL1        0.0462
      6 C           6.8156   -4.7142   30.3347 C.ar    1  UNL1        0.1547
      7 F           7.1319   -6.1801   30.3697 F       1  UNL1       -0.2028
      8 N           6.2435   -1.7076   32.8612 N.am    1  UNL1       -0.2010
      9 C           5.0364   -1.6701   33.7508 C.2     1  UNL1        0.2589
     10 O           3.7451   -2.3964   33.5159 O.2     1  UNL1       -0.2691
     11 C           5.3472   -0.7787   34.9166 C.ar    1  UNL1        0.0587
     12 C           4.5368   -0.3683   36.1102 C.ar    1  UNL1        0.0055
     13 C           5.1257    0.5556   37.1347 C.ar    1  UNL1        0.0115
     14 C           6.5250    1.0689   36.9656 C.ar    1  UNL1        0.0578
     15 CL          7.1139    1.9928   37.9902 Cl      1  UNL1       -0.0822
     16 C           7.3353    0.6585   35.7719 C.ar    1  UNL1        0.0161
     17 C           6.7464   -0.2654   34.7474 C.ar    1  UNL1        0.0595
     18 C           7.3004   -0.8394   33.4772 C.2     1  UNL1        0.2589
     19 O           8.6706   -0.5892   32.9206 O.2     1  UNL1       -0.2691
     20 C           8.0969   -4.9426   27.0863 C.2     1  UNL1        0.2840
     21 O           9.3112   -4.3256   27.7148 O.2     1  UNL1       -0.2665
     22 N           6.7549   -4.7892   27.7385 N.am    1  UNL1       -0.2761
     23 H           5.9580   -5.1941   27.3260 H       1  UNL1        0.1553
     24 C           7.8802   -8.1831   26.7673 C.3     1  UNL1        0.0345
     25 C           8.1251   -7.2025   25.6590 C.ar    1  UNL1        0.0204
     26 C           8.3135   -7.5392   24.2094 C.ar    1  UNL1        0.0396
     27 C           8.5296   -6.2578   23.4602 C.ar    1  UNL1        0.1795
     28 O           8.4747   -5.1292   24.4467 O.2     1  UNL1       -0.4461
     29 C           8.2248   -5.7130   25.8056 C.ar    1  UNL1        0.1948
@<TRIPOS>BOND
     1    24    25    1
     2    25    26   ar
     3    26    27   ar
     4    27    28   ar
     5    28    29   ar
     6    29    20    1
     7    20    21    2
     8    20    22   am
     9    22     1    1
    10     1     2   ar
    11     2     3   ar
    12     3     4   ar
    13     4     8    1
    14     8     9   am
    15     9    10    2
    16     9    11    1
    17    11    12   ar
    18    12    13   ar
    19    13    14   ar
    20    14    15    1
    21    14    16   ar
    22    16    17   ar
    23    17    18    1
    24    18    19    2
    25     4     5   ar
    26     5     6   ar
    27     6     7    1
    28    29    25   ar
    29     6     1   ar
    30    18     8   am
    31    17    11   ar
    32    22    23    1
@<TRIPOS>MOLECULE
*****
 29 32 0 0 0
SMALL
GASTEIGER

@<TRIPOS>ATOM
      1 C          -2.1425    4.0187   25.0623 C.ar    1  UNL1        0.0785
      2 C          -1.7572    4.2606   23.6330 C.ar    1  UNL1        0.0183
      3 C          -0.7984    3.3329   22.9474 C.ar    1  UNL1        0.0168
      4 C          -0.2249    2.1633   23.6911 C.ar    1  UNL1        0.0636
      5 C          -0.6102    1.9214   25.1204 C.ar    1  UNL1        0.0462
      6 C          -1.5690    2.8491   25.8060 C.ar    1  UNL1        0.1547
      7 F          -1.9543    2.6071   27.2354 F       1  UNL1       -0.2028
      8 N           0.7339    1.2356   23.0054 N.am    1  UNL1       -0.2010
      9 C           1.9730    0.6442   23.6094 C.2     1  UNL1        0.2589
     10 O           2.4710    0.8768   25.0051 O.2     1  UNL1       -0.2691
     11 C           2.6268   -0.2205   22.5727 C.ar    1  UNL1        0.0587
     12 C           3.8747   -1.0524   22.6013 C.ar    1  UNL1        0.0055
     13 C           4.2874   -1.8273   21.3852 C.ar    1  UNL1        0.0115
     14 C           3.4524   -1.7704   20.1404 C.ar    1  UNL1        0.0578
     15 CL          3.8652   -2.5454   18.9242 Cl      1  UNL1       -0.0822
     16 C           2.2045   -0.9385   20.1118 C.ar    1  UNL1        0.0161
     17 C           1.7917   -0.1636   21.3279 C.ar    1  UNL1        0.0595
     18 C           0.6218    0.7363   21.5954 C.2     1  UNL1        0.2589
     19 O          -0.4686    1.0771   20.6234 O.2     1  UNL1       -0.2691
     20 C          -4.5394    4.5523   25.9110 C.2     1  UNL1        0.2840
     21 O          -5.0187    3.2305   25.3883 O.2     1  UNL1       -0.2665
     22 N          -3.1013    4.9464   25.7480 N.am    1  UNL1       -0.2761
     23 H          -2.7867    5.8139   26.0910 H       1  UNL1        0.1553
     24 C          -7.2997    5.7409   24.6393 C.3     1  UNL1        0.0345
     25 C          -6.7670    6.0264   26.0120 C.ar    1  UNL1        0.0204
     26 C          -7.4094    6.9083   27.0414 C.ar    1  UNL1        0.0396
     27 C          -6.5377    6.9070   28.2621 C.ar    1  UNL1        0.1795
     28 O          -5.3565    6.0243   27.9872 O.2     1  UNL1       -0.4461
     29 C          -5.4981    5.4800   26.5966 C.ar    1  UNL1        0.1948
@<TRIPOS>BOND
     1    24    25    1
     2    25    26   ar
     3    26    27   ar
     4    27    28   ar
     5    28    29   ar
     6    29    20    1
     7    20    21    2
     8    20    22   am
     9    22     1    1
    10     1     2   ar
    11     2     3   ar
    12     3     4   ar
    13     4     8    1
    14     8     9   am
    15     9    10    2
    16     9    11    1
    17    11    12   ar
    18    12    13   ar
    19    13    14   ar
    20    14    15    1
    21    14    16   ar
    22    16    17   ar
    23    17    18    1
    24    18    19    2
    25     4     5   ar
    26     5     6   ar
    27     6     7    1
    28    29    25   ar
    29     6     1   ar
    30    18     8   am
    31    17    11   ar
    32    22    23    1
@<TRIPOS>MOLECULE
*****
 29 32 0 0 0
SMALL
GASTEIGER

@<TRIPOS>ATOM
      1 C           5.1563   -0.4342   28.7379 C.ar    1  UNL1        0.0785
      2 C           6.2812   -0.3875   27.7467 C.ar    1  UNL1        0.0183
      3 C           6.0445   -0.7984   26.3236 C.ar    1  UNL1        0.0168
      4 C           4.6829   -1.2560   25.8917 C.ar    1  UNL1        0.0636
      5 C           3.5580   -1.3027   26.8829 C.ar    1  UNL1        0.0462
      6 C           3.7947   -0.8918   28.3060 C.ar    1  UNL1        0.1547
      7 F           2.6698   -0.9385   29.2971 F       1  UNL1       -0.2028
      8 N           4.4461   -1.6668   24.4687 N.am    1  UNL1       -0.2010
      9 C           3.5772   -0.9513   23.4772 C.2     1  UNL1        0.2589
     10 O           2.7924    0.3008   23.7348 O.2     1  UNL1       -0.2691
     11 C           3.6308   -1.7076   22.1830 C.ar    1  UNL1        0.0587
     12 C           2.9747   -1.4719   20.8549 C.ar    1  UNL1        0.0055
     13 C           3.2207   -2.4193   19.7182 C.ar    1  UNL1        0.0115
     14 C           4.1228   -3.6023   19.9097 C.ar    1  UNL1        0.0578
     15 CL          4.3688   -4.5497   18.7730 Cl      1  UNL1       -0.0822
     16 C           4.7788   -3.8380   21.2379 C.ar    1  UNL1        0.0161
     17 C           4.5328   -2.8907   22.3745 C.ar    1  UNL1        0.0595
     18 C           5.0367   -2.8654   23.7871 C.2     1  UNL1        0.2589
     19 O           5.9678   -3.8636   24.4090 O.2     1  UNL1       -0.2691
     20 C           5.8884   -1.0275   31.1590 C.2     1  UNL1        0.2840
     21 O           6.1470   -2.4427   30.7340 O.2     1  UNL1       -0.2665
     22 N           5.3931   -0.0233   30.1609 N.am    1  UNL1       -0.2761
     23 H           5.2233    0.9055   30.4399 H       1  UNL1        0.1553
     24 C           4.2888   -2.1521   33.7717 C.3     1  UNL1        0.0345
     25 C           5.3899   -1.1336   33.7830 C.ar    1  UNL1        0.0204
     26 C           5.9491   -0.4531   34.9972 C.ar    1  UNL1        0.0396
     27 C           7.0299    0.4844   34.5468 C.ar    1  UNL1        0.1795
     28 O           7.1387    0.3833   33.0541 O.2     1  UNL1       -0.4461
     29 C           6.1252   -0.6166   32.5821 C.ar    1  UNL1        0.1948
@<TRIPOS>BOND
     1    24    25    1
     2    25    26   ar
     3    26    27   ar
     4    27    28   ar
     5    28    29   ar
     6    29    20    1
     7    20    21    2
     8    20    22   am
     9    22     1    1
    10     1     2   ar
    11     2     3   ar
    12     3     4   ar
    13     4     8    1
    14     8     9   am
    15     9    10    2
    16     9    11    1
    17    11    12   ar
    18    12    13   ar
    19    13    14   ar
    20    14    15    1
    21    14    16   ar
    22    16    17   ar
    23    17    18    1
    24    18    19    2
    25     4     5   ar
    26     5     6   ar
    27     6     7    1
    28    29    25   ar
    29     6     1   ar
    30    18     8   am
    31    17    11   ar
    32    22    23    1
@<TRIPOS>MOLECULE
*****
 29 32 0 0 0
SMALL
GASTEIGER

@<TRIPOS>ATOM
      1 C           5.2050   -0.9268   34.6187 C.ar    1  UNL1        0.0785
      2 C           4.2599   -1.9047   33.9858 C.ar    1  UNL1        0.0183
      3 C           4.6808   -2.6744   32.7691 C.ar    1  UNL1        0.0168
      4 C           6.0467   -2.4663   32.1853 C.ar    1  UNL1        0.0636
      5 C           6.9917   -1.4884   32.8182 C.ar    1  UNL1        0.0462
      6 C           6.5709   -0.7186   34.0349 C.ar    1  UNL1        0.1547
      7 F           7.5160    0.2593   34.6677 F       1  UNL1       -0.2028
      8 N           6.4675   -3.2360   30.9686 N.am    1  UNL1       -0.2010
      9 C           6.6272   -2.6796   29.5848 C.2     1  UNL1        0.2589
     10 O           6.3941   -1.2556   29.1747 O.2     1  UNL1       -0.2691
     11 C           7.0610   -3.7970   28.6830 C.ar    1  UNL1        0.0587
     12 C           7.3712   -3.8400   27.2161 C.ar    1  UNL1        0.0055
     13 C           7.7899   -5.1302   26.5757 C.ar    1  UNL1        0.0115
     14 C           7.8983   -6.3772   27.4021 C.ar    1  UNL1        0.0578
     15 CL          8.3170   -7.6674   26.7616 Cl      1  UNL1       -0.0822
     16 C           7.5881   -6.3342   28.8690 C.ar    1  UNL1        0.0161
     17 C           7.1694   -5.0441   29.5094 C.ar    1  UNL1        0.0595
     18 C           6.8026   -4.6973   30.9220 C.2     1  UNL1        0.2589
     19 O           6.7757   -5.6455   32.0840 O.2     1  UNL1       -0.2691
     20 C           4.0008    1.1134   35.6854 C.2     1  UNL1        0.2840
     21 O           3.6384    1.6141   34.3186 O.2     1  UNL1       -0.2665
     22 N           4.7841   -0.1570   35.8354 N.am    1  UNL1       -0.2761
     23 H           5.0220   -0.4856   36.7324 H       1  UNL1        0.1553
     24 C           5.9944    2.3998   37.9260 C.3     1  UNL1        0.0345
     25 C           4.4964    2.4744   37.9320 C.ar    1  UNL1        0.0204
     26 C           3.6515    3.1534   38.9689 C.ar    1  UNL1        0.0396
     27 C           2.2131    2.9818   38.5799 C.ar    1  UNL1        0.1795
     28 O           2.1688    2.1967   37.3026 O.2     1  UNL1       -0.4461
     29 C           3.5800    1.8831   36.9021 C.ar    1  UNL1        0.1948
@<TRIPOS>BOND
     1    24    25    1
     2    25    26   ar
     3    26    27   ar
     4    27    28   ar
     5    28    29   ar
     6    29    20    1
     7    20    21    2
     8    20    22   am
     9    22     1    1
    10     1     2   ar
    11     2     3   ar
    12     3     4   ar
    13     4     8    1
    14     8     9   am
    15     9    10    2
    16     9    11    1
    17    11    12   ar
    18    12    13   ar
    19    13    14   ar
    20    14    15    1
    21    14    16   ar
    22    16    17   ar
    23    17    18    1
    24    18    19    2
    25     4     5   ar
    26     5     6   ar
    27     6     7    1
    28    29    25   ar
    29     6     1   ar
    30    18     8   am
    31    17    11   ar
    32    22    23    1
@<TRIPOS>MOLECULE
*****
 29 32 0 0 0
SMALL
GASTEIGER

@<TRIPOS>ATOM
      1 C           0.7962    2.4876   28.9696 C.ar    1  UNL1        0.0785
      2 C           0.4856    3.9129   28.6205 C.ar    1  UNL1        0.0183
      3 C          -0.5313    4.2213   27.5618 C.ar    1  UNL1        0.0168
      4 C          -1.2377    3.1044   26.8523 C.ar    1  UNL1        0.0636
      5 C          -0.9271    1.6790   27.2015 C.ar    1  UNL1        0.0462
      6 C           0.0898    1.3707   28.2601 C.ar    1  UNL1        0.1547
      7 F           0.4004   -0.0547   28.6093 F       1  UNL1       -0.2028
      8 N          -2.2546    3.4127   25.7936 N.am    1  UNL1       -0.2010
      9 C          -2.0351    3.3377   24.3117 C.2     1  UNL1        0.2589
     10 O          -0.7601    2.9410   23.6282 O.2     1  UNL1       -0.2691
     11 C          -3.3144    3.7288   23.6331 C.ar    1  UNL1        0.0587
     12 C          -3.6899    3.8375   22.1850 C.ar    1  UNL1        0.0055
     13 C          -5.0757    4.2629   21.7995 C.ar    1  UNL1        0.0115
     14 C          -6.0858    4.5798   22.8621 C.ar    1  UNL1        0.0578
     15 CL         -7.4716    5.0053   22.4765 Cl      1  UNL1       -0.0822
     16 C          -5.7103    4.4712   24.3102 C.ar    1  UNL1        0.0161
     17 C          -4.3245    4.0457   24.6958 C.ar    1  UNL1        0.0595
     18 C          -3.6695    3.8503   26.0310 C.2     1  UNL1        0.2589
     19 O          -4.3161    4.0564   27.3687 O.2     1  UNL1       -0.2691
     20 C           1.3669    1.7488   31.3942 C.2     1  UNL1        0.2840
     21 O          -0.0963    1.6268   31.7014 O.2     1  UNL1       -0.2665
     22 N           1.8131    2.1793   30.0283 N.am    1  UNL1       -0.2761
     23 H           2.7734    2.2594   29.8267 H       1  UNL1        0.1553
     24 C           3.3849   -0.8156   31.4267 C.3     1  UNL1        0.0345
     25 C           3.3114    0.2617   32.4677 C.ar    1  UNL1        0.0204
     26 C           4.1526    0.3495   33.7066 C.ar    1  UNL1        0.0396
     27 C           3.7449    1.5824   34.4574 C.ar    1  UNL1        0.1795
     28 O           2.6517    2.2567   33.6825 O.2     1  UNL1       -0.4461
     29 C           2.3838    1.4405   32.4529 C.ar    1  UNL1        0.1948
@<TRIPOS>BOND
     1    24    25    1
     2    25    26   ar
     3    26    27   ar
     4    27    28   ar
     5    28    29   ar
     6    29    20    1
     7    20    21    2
     8    20    22   am
     9    22     1    1
    10     1     2   ar
    11     2     3   ar
    12     3     4   ar
    13     4     8    1
    14     8     9   am
    15     9    10    2
    16     9    11    1
    17    11    12   ar
    18    12    13   ar
    19    13    14   ar
    20    14    15    1
    21    14    16   ar
    22    16    17   ar
    23    17    18    1
    24    18    19    2
    25     4     5   ar
    26     5     6   ar
    27     6     7    1
    28    29    25   ar
    29     6     1   ar
    30    18     8   am
    31    17    11   ar
    32    22    23    1
@<TRIPOS>MOLECULE
*****
 29 32 0 0 0
SMALL
GASTEIGER

@<TRIPOS>ATOM
      1 C          -0.3349    1.9445   26.9762 C.ar    1  UNL1        0.0785
      2 C          -0.9028    1.0133   28.0059 C.ar    1  UNL1        0.0183
      3 C          -0.2204    0.8559   29.3324 C.ar    1  UNL1        0.0168
      4 C           1.0298    1.6297   29.6292 C.ar    1  UNL1        0.0636
      5 C           1.5977    2.5609   28.5995 C.ar    1  UNL1        0.0462
      6 C           0.9154    2.7183   27.2730 C.ar    1  UNL1        0.1547
      7 F           1.4833    3.6495   26.2433 F       1  UNL1       -0.2028
      8 N           1.7122    1.4723   30.9557 N.am    1  UNL1       -0.2010
      9 C           1.5268    2.3567   32.1530 C.2     1  UNL1        0.2589
     10 O           0.6266    3.5538   32.2340 O.2     1  UNL1       -0.2691
     11 C           2.3998    1.8339   33.2551 C.ar    1  UNL1        0.0587
     12 C           2.6283    2.3013   34.6620 C.ar    1  UNL1        0.0055
     13 C           3.5816    1.5612   35.5526 C.ar    1  UNL1        0.0115
     14 C           4.3064    0.3537   35.0365 C.ar    1  UNL1        0.0578
     15 CL          5.2598   -0.3864   35.9273 Cl      1  UNL1       -0.0822
     16 C           4.0779   -0.1138   33.6297 C.ar    1  UNL1        0.0161
     17 C           3.1246    0.6263   32.7390 C.ar    1  UNL1        0.0595
     18 C           2.6996    0.4029   31.3179 C.2     1  UNL1        0.2589
     19 O           3.1782   -0.6970   30.4171 O.2     1  UNL1       -0.2691
     20 C          -1.9262    3.2703   25.4078 C.2     1  UNL1        0.2840
     21 O          -2.1530    4.2813   26.4925 O.2     1  UNL1       -0.2665
     22 N          -1.0172    2.1019   25.6497 N.am    1  UNL1       -0.2761
     23 H          -0.8684    1.4384   24.9378 H       1  UNL1        0.1553
     24 C          -5.1384    3.5905   24.9290 C.3     1  UNL1        0.0345
     25 C          -4.0851    3.5749   23.8613 C.ar    1  UNL1        0.0204
     26 C          -4.3232    3.7037   22.3859 C.ar    1  UNL1        0.0396
     27 C          -2.9940    3.6361   21.6941 C.ar    1  UNL1        0.1795
     28 O          -1.9343    3.4655   22.7419 O.2     1  UNL1       -0.4461
     29 C          -2.6086    3.4277   24.0813 C.ar    1  UNL1        0.1948
@<TRIPOS>BOND
     1    24    25    1
     2    25    26   ar
     3    26    27   ar
     4    27    28   ar
     5    28    29   ar
     6    29    20    1
     7    20    21    2
     8    20    22   am
     9    22     1    1
    10     1     2   ar
    11     2     3   ar
    12     3     4   ar
    13     4     8    1
    14     8     9   am
    15     9    10    2
    16     9    11    1
    17    11    12   ar
    18    12    13   ar
    19    13    14   ar
    20    14    15    1
    21    14    16   ar
    22    16    17   ar
    23    17    18    1
    24    18    19    2
    25     4     5   ar
    26     5     6   ar
    27     6     7    1
    28    29    25   ar
    29     6     1   ar
    30    18     8   am
    31    17    11   ar
    32    22    23    1
@<TRIPOS>MOLECULE
*****
 29 32 0 0 0
SMALL
GASTEIGER

@<TRIPOS>ATOM
      1 C           6.0363   -3.0483   32.3534 C.ar    1  UNL1        0.0785
      2 C           4.6623   -3.0278   32.9547 C.ar    1  UNL1        0.0183
      3 C           4.2797   -1.9403   33.9144 C.ar    1  UNL1        0.0168
      4 C           5.2711   -0.8733   34.2728 C.ar    1  UNL1        0.0636
      5 C           6.6451   -0.8938   33.6715 C.ar    1  UNL1        0.0462
      6 C           7.0277   -1.9813   32.7119 C.ar    1  UNL1        0.1547
      7 F           8.4019   -2.0017   32.1106 F       1  UNL1       -0.2028
      8 N           4.8885    0.2142   35.2325 N.am    1  UNL1       -0.2010
      9 C           3.8522    1.2730   34.9976 C.2     1  UNL1        0.2589
     10 O           3.0166    1.4302   33.7619 O.2     1  UNL1       -0.2691
     11 C           3.7982    2.1470   36.2155 C.ar    1  UNL1        0.0587
     12 C           2.9655    3.3481   36.5528 C.ar    1  UNL1        0.0055
     13 C           3.1356    4.0305   37.8777 C.ar    1  UNL1        0.0115
     14 C           4.1384    3.5119   38.8652 C.ar    1  UNL1        0.0578
     15 CL          4.3085    4.1944   40.1901 Cl      1  UNL1       -0.0822
     16 C           4.9712    2.3108   38.5279 C.ar    1  UNL1        0.0161
     17 C           4.8011    1.6284   37.2030 C.ar    1  UNL1        0.0595
     18 C           5.4749    0.4338   36.5955 C.2     1  UNL1        0.2589
     19 O           6.5470   -0.3954   37.2382 O.2     1  UNL1       -0.2691
     20 C           6.5279   -3.8382   29.9277 C.2     1  UNL1        0.2840
     21 O           6.2542   -2.4530   29.4212 O.2     1  UNL1       -0.2665
     22 N           6.4189   -4.1358   31.3938 N.am    1  UNL1       -0.2761
     23 H           6.5985   -5.0449   31.7262 H       1  UNL1        0.1553
     24 C           8.7876   -6.1372   30.4356 C.3     1  UNL1        0.0345
     25 C           7.9492   -5.9824   29.2015 C.ar    1  UNL1        0.0204
     26 C           8.0022   -6.8572   27.9841 C.ar    1  UNL1        0.0396
     27 C           6.9963   -6.3411   26.9983 C.ar    1  UNL1        0.1795
     28 O           6.3216   -5.1474   27.6064 O.2     1  UNL1       -0.4461
     29 C           6.9105   -4.9257   28.9680 C.ar    1  UNL1        0.1948
@<TRIPOS>BOND
     1    24    25    1
     2    25    26   ar
     3    26    27   ar
     4    27    28   ar
     5    28    29   ar
     6    29    20    1
     7    20    21    2
     8    20    22   am
     9    22     1    1
    10     1     2   ar
    11     2     3   ar
    12     3     4   ar
    13     4     8    1
    14     8     9   am
    15     9    10    2
    16     9    11    1
    17    11    12   ar
    18    12    13   ar
    19    13    14   ar
    20    14    15    1
    21    14    16   ar
    22    16    17   ar
    23    17    18    1
    24    18    19    2
    25     4     5   ar
    26     5     6   ar
    27     6     7    1
    28    29    25   ar
    29     6     1   ar
    30    18     8   am
    31    17    11   ar
    32    22    23    1
@<TRIPOS>MOLECULE
*****
 29 32 0 0 0
SMALL
GASTEIGER

@<TRIPOS>ATOM
      1 C           1.8870    0.4201   18.8481 C.ar    1  UNL1        0.0785
      2 C           3.3015    0.4403   18.3494 C.ar    1  UNL1        0.0183
      3 C           4.3297   -0.4560   18.9735 C.ar    1  UNL1        0.0168
      4 C           3.9434   -1.3726   20.0962 C.ar    1  UNL1        0.0636
      5 C           2.5289   -1.3928   20.5949 C.ar    1  UNL1        0.0462
      6 C           1.5007   -0.4965   19.9709 C.ar    1  UNL1        0.1547
      7 F           0.0861   -0.5168   20.4696 F       1  UNL1       -0.2028
      8 N           4.9716   -2.2689   20.7203 N.am    1  UNL1       -0.2010
      9 C           6.0961   -2.9543   20.0022 C.2     1  UNL1        0.2589
     10 O           6.3899   -2.8638   18.5341 O.2     1  UNL1       -0.2691
     11 C           6.8753   -3.7462   21.0101 C.ar    1  UNL1        0.0587
     12 C           8.0872   -4.6205   20.8800 C.ar    1  UNL1        0.0055
     13 C           8.6561   -5.2987   22.0909 C.ar    1  UNL1        0.0115
     14 C           8.0131   -5.1026   23.4319 C.ar    1  UNL1        0.0578
     15 CL          8.5821   -5.7809   24.6428 Cl      1  UNL1       -0.0822
     16 C           6.8012   -4.2284   23.5619 C.ar    1  UNL1        0.0161
     17 C           6.2323   -3.5502   22.3510 C.ar    1  UNL1        0.0595
     18 C           5.0558   -2.6372   22.1719 C.2     1  UNL1        0.2589
     19 O           4.1265   -2.1738   23.2544 O.2     1  UNL1       -0.2691
     20 C           0.4604    2.5906   18.9079 C.2     1  UNL1        0.2840
     21 O           1.0903    2.9686   20.2158 O.2     1  UNL1       -0.2665
     22 N           0.8588    1.3164   18.2241 N.am    1  UNL1       -0.2761
     23 H           0.4454    1.0684   17.3657 H       1  UNL1        0.1553
     24 C          -2.3988    3.4419   20.2308 C.3     1  UNL1        0.0345
     25 C          -1.8820    3.8782   18.8920 C.ar    1  UNL1        0.0204
     26 C          -2.5887    4.7825   17.9260 C.ar    1  UNL1        0.0396
     27 C          -1.7113    4.9501   16.7210 C.ar    1  UNL1        0.1795
     28 O          -0.4623    4.1494   16.9422 O.2     1  UNL1       -0.4461
     29 C          -0.5678    3.4869   18.2839 C.ar    1  UNL1        0.1948
@<TRIPOS>BOND
     1    24    25    1
     2    25    26   ar
     3    26    27   ar
     4    27    28   ar
     5    28    29   ar
     6    29    20    1
     7    20    21    2
     8    20    22   am
     9    22     1    1
    10     1     2   ar
    11     2     3   ar
    12     3     4   ar
    13     4     8    1
    14     8     9   am
    15     9    10    2
    16     9    11    1
    17    11    12   ar
    18    12    13   ar
    19    13    14   ar
    20    14    15    1
    21    14    16   ar
    22    16    17   ar
    23    17    18    1
    24    18    19    2
    25     4     5   ar
    26     5     6   ar
    27     6     7    1
    28    29    25   ar
    29     6     1   ar
    30    18     8   am
    31    17    11   ar
    32    22    23    1
