@<TRIPOS>MOLECULE
*****
 38 42 0 0 0
SMALL
GASTEIGER

@<TRIPOS>ATOM
      1 C          -0.4576    2.7148   20.4827 C.3     1  UNL1        0.1628
      2 N          -1.4605    3.0915   21.5326 N.ar    1  UNL1       -0.3047
      3 C          -1.1939    3.2117   23.0038 C.ar    1  UNL1        0.1441
      4 N          -2.4748    3.6086   23.6760 N.ar    1  UNL1       -0.2267
      5 C          -3.5330    3.7337   22.6202 C.ar    1  UNL1        0.1010
      6 C          -4.9863    4.0973   22.6940 C.ar    1  UNL1        0.0526
      7 C          -5.8128    4.1413   21.4431 C.ar    1  UNL1        0.1690
      8 F          -7.2663    4.5049   21.5168 F       1  UNL1       -0.2017
      9 C          -5.1860    3.8217   20.1183 C.ar    1  UNL1        0.1689
     10 F          -6.0125    3.8657   18.8674 F       1  UNL1       -0.2017
     11 C          -3.7326    3.4581   20.0446 C.ar    1  UNL1        0.0507
     12 C          -2.9061    3.4141   21.2955 C.ar    1  UNL1        0.0816
     13 C           0.1224    2.9763   23.6834 C.ar    1  UNL1        0.0342
     14 C           1.2052    4.0109   23.5998 C.ar    1  UNL1        0.0039
     15 C           2.5215    3.7756   24.2795 C.ar    1  UNL1        0.0115
     16 C           2.7550    2.5056   25.0428 C.ar    1  UNL1        0.0577
     17 CL          4.0713    2.2703   25.7224 Cl      1  UNL1       -0.0822
     18 C           1.6722    1.4710   25.1264 C.ar    1  UNL1        0.0115
     19 C           0.3559    1.7064   24.4467 C.ar    1  UNL1        0.0039
     20 C          -0.1787    3.6486   19.3425 C.3     1  UNL1        0.0297
     21 C          -0.6828    3.3247   17.9673 C.3     1  UNL1        0.0024
     22 C          -0.4039    4.2585   16.8270 C.3     1  UNL1        0.0001
     23 C           0.3792    5.5162   17.0619 C.3     1  UNL1        0.0000
     24 C           0.8833    5.8400   18.4370 C.3     1  UNL1        0.0001
     25 C           0.6044    4.9062   19.5773 C.3     1  UNL1        0.0024
     26 O          -0.1752   -0.0276   20.6447 O.2     1  UNL1       -0.2731
     27 C           0.2665    1.4041   20.5730 C.2     1  UNL1        0.2431
     28 N           1.7658    1.3764   20.6075 N.am    1  UNL1       -0.3044
     29 H           2.2747    2.2184   20.5708 H       1  UNL1        0.1494
     30 C           2.4898    0.0658   20.6978 C.3     1  UNL1        0.0716
     31 C           2.7461   -0.7364   19.4566 C.3     1  UNL1        0.0199
     32 C           3.4701   -2.0471   19.5468 C.3     1  UNL1        0.0072
     33 C           3.9377   -2.5555   20.8783 C.3     1  UNL1        0.0367
     34 C           3.6814   -1.7531   22.1195 C.3     1  UNL1        0.0072
     35 C           2.9574   -0.4425   22.0293 C.3     1  UNL1        0.0199
     36 C           4.6617   -3.8661   20.9686 C.2     1  UNL1        0.0500
     37 O           4.6579   -4.8071   19.8006 O.co2   1  UNL1       -0.5492
     38 O           5.3894   -4.2356   22.2272 O.co2   1  UNL1       -0.5492
@<TRIPOS>UNITY_ATOM_ATTR
37 1
charge -1
@<TRIPOS>BOND
     1    26    27    2
     2    27    28   am
     3    30    28    1
     4    30    31    1
     5    31    32    1
     6    32    33    1
     7    33    36    1
     8    36    37   ar
     9    36    38   ar
    10    33    34    1
    11    34    35    1
    12    27     1    1
    13     1    20    1
    14    20    21    1
    15    21    22    1
    16    22    23    1
    17    23    24    1
    18    24    25    1
    19     1     2    1
    20     2     3   ar
    21     3    13    1
    22    13    14   ar
    23    14    15   ar
    24    15    16   ar
    25    16    17    1
    26    16    18   ar
    27    18    19   ar
    28     3     4   ar
    29     4     5   ar
    30     5     6   ar
    31     6     7   ar
    32     7     8    1
    33     7     9   ar
    34     9    10    1
    35     9    11   ar
    36    11    12   ar
    37    35    30    1
    38    25    20    1
    39    12     2   ar
    40    19    13   ar
    41    12     5   ar
    42    28    29    1
@<TRIPOS>MOLECULE
*****
 38 42 0 0 0
SMALL
GASTEIGER

@<TRIPOS>ATOM
      1 C          -0.3349    3.4385   22.0706 C.3     1  UNL1        0.1628
      2 N          -1.7943    3.4810   22.4149 N.ar    1  UNL1       -0.3047
      3 C          -2.3743    3.4751   23.7982 C.ar    1  UNL1        0.1441
      4 N          -3.8683    3.5272   23.6746 N.ar    1  UNL1       -0.2267
      5 C          -4.2116    3.5653   22.2149 C.ar    1  UNL1        0.1010
      6 C          -5.5258    3.6222   21.4940 C.ar    1  UNL1        0.0526
      7 C          -5.5581    3.6506   19.9947 C.ar    1  UNL1        0.1690
      8 F          -6.8723    3.7075   19.2738 F       1  UNL1       -0.2017
      9 C          -4.2763    3.6220   19.2162 C.ar    1  UNL1        0.1689
     10 F          -4.3087    3.6503   17.7167 F       1  UNL1       -0.2017
     11 C          -2.9621    3.5650   19.9370 C.ar    1  UNL1        0.0507
     12 C          -2.9298    3.5366   21.4364 C.ar    1  UNL1        0.0816
     13 C          -1.5969    3.4259   25.0801 C.ar    1  UNL1        0.0342
     14 C          -0.8811    2.1684   25.4753 C.ar    1  UNL1        0.0039
     15 C          -0.1036    2.1191   26.7571 C.ar    1  UNL1        0.0115
     16 C          -0.0420    3.3274   27.6438 C.ar    1  UNL1        0.0577
     17 CL          0.7354    3.2781   28.9257 Cl      1  UNL1       -0.0822
     18 C          -0.7579    4.5849   27.2487 C.ar    1  UNL1        0.0115
     19 C          -1.5353    4.6341   25.9668 C.ar    1  UNL1        0.0039
     20 C           0.5415    4.6178   22.3724 C.3     1  UNL1        0.0297
     21 C           0.6030    5.7710   21.4151 C.3     1  UNL1        0.0024
     22 C           1.4794    6.9503   21.7167 C.3     1  UNL1        0.0001
     23 C           2.2944    6.9765   22.9758 C.3     1  UNL1        0.0000
     24 C           2.2329    5.8233   23.9330 C.3     1  UNL1        0.0001
     25 C           1.3565    4.6440   23.6314 C.3     1  UNL1        0.0024
     26 O          -0.3394    0.9676   20.8373 O.2     1  UNL1       -0.2731
     27 C           0.2480    2.2167   21.4245 C.2     1  UNL1        0.2431
     28 N           1.7343    2.0877   21.2681 N.am    1  UNL1       -0.3044
     29 H           2.3271    2.8050   21.5894 H       1  UNL1        0.1494
     30 C           2.3171    0.8659   20.6220 C.3     1  UNL1        0.0716
     31 C           2.6368   -0.3415   21.4526 C.3     1  UNL1        0.0199
     32 C           3.2197   -1.5634   20.8065 C.3     1  UNL1        0.0072
     33 C           3.4828   -1.5778   19.3299 C.3     1  UNL1        0.0367
     34 C           3.1631   -0.3703   18.4993 C.3     1  UNL1        0.0072
     35 C           2.5803    0.8515   19.1453 C.3     1  UNL1        0.0199
     36 C           4.0657   -2.7996   18.6838 C.2     1  UNL1        0.0500
     37 O           5.2392   -2.6713   17.7584 O.co2   1  UNL1       -0.5492
     38 O           3.4749   -4.1498   18.9631 O.co2   1  UNL1       -0.5492
@<TRIPOS>UNITY_ATOM_ATTR
37 1
charge -1
@<TRIPOS>BOND
     1    26    27    2
     2    27    28   am
     3    30    28    1
     4    30    31    1
     5    31    32    1
     6    32    33    1
     7    33    36    1
     8    36    37   ar
     9    36    38   ar
    10    33    34    1
    11    34    35    1
    12    27     1    1
    13     1    20    1
    14    20    21    1
    15    21    22    1
    16    22    23    1
    17    23    24    1
    18    24    25    1
    19     1     2    1
    20     2     3   ar
    21     3    13    1
    22    13    14   ar
    23    14    15   ar
    24    15    16   ar
    25    16    17    1
    26    16    18   ar
    27    18    19   ar
    28     3     4   ar
    29     4     5   ar
    30     5     6   ar
    31     6     7   ar
    32     7     8    1
    33     7     9   ar
    34     9    10    1
    35     9    11   ar
    36    11    12   ar
    37    35    30    1
    38    25    20    1
    39    12     2   ar
    40    19    13   ar
    41    12     5   ar
    42    28    29    1
@<TRIPOS>MOLECULE
*****
 38 42 0 0 0
SMALL
GASTEIGER

@<TRIPOS>ATOM
      1 C          -0.4461    2.9622   20.4267 C.3     1  UNL1        0.1628
      2 N          -1.3562    3.3504   21.5541 N.ar    1  UNL1       -0.3047
      3 C          -2.6712    4.0598   21.4214 C.ar    1  UNL1        0.1441
      4 N          -3.2387    4.2451   22.7974 N.ar    1  UNL1       -0.2267
      5 C          -2.2746    3.6502   23.7806 C.ar    1  UNL1        0.1010
      6 C          -2.3058    3.5406   25.2762 C.ar    1  UNL1        0.0526
      7 C          -1.1735    2.8780   26.0034 C.ar    1  UNL1        0.1690
      8 F          -1.2046    2.7684   27.4991 F       1  UNL1       -0.2017
      9 C          -0.0100    2.3250   25.2349 C.ar    1  UNL1        0.1689
     10 F           1.1223    1.6624   25.9622 F       1  UNL1       -0.2017
     11 C           0.0212    2.4347   23.7393 C.ar    1  UNL1        0.0507
     12 C          -1.1111    3.0972   23.0121 C.ar    1  UNL1        0.0816
     13 C          -3.3069    4.5056   20.1380 C.ar    1  UNL1        0.0342
     14 C          -3.1170    5.9134   19.6564 C.ar    1  UNL1        0.0039
     15 C          -3.7528    6.3593   18.3730 C.ar    1  UNL1        0.0115
     16 C          -4.5784    5.3973   17.5712 C.ar    1  UNL1        0.0577
     17 CL         -5.2141    5.8432   16.2879 Cl      1  UNL1       -0.0822
     18 C          -4.7683    3.9895   18.0528 C.ar    1  UNL1        0.0115
     19 C          -4.1325    3.5437   19.3362 C.ar    1  UNL1        0.0039
     20 C          -0.2335    3.9018   19.2769 C.3     1  UNL1        0.0297
     21 C          -0.7197    3.5325   17.9068 C.3     1  UNL1        0.0024
     22 C          -0.5071    4.4720   16.7569 C.3     1  UNL1        0.0001
     23 C           0.1917    5.7808   16.9773 C.3     1  UNL1        0.0000
     24 C           0.6779    6.1501   18.3473 C.3     1  UNL1        0.0001
     25 C           0.4653    5.2106   19.4972 C.3     1  UNL1        0.0024
     26 O          -0.2172    0.2125   20.5405 O.2     1  UNL1       -0.2731
     27 C           0.2515    1.6344   20.4490 C.2     1  UNL1        0.2431
     28 N           1.7480    1.5720   20.3687 N.am    1  UNL1       -0.3044
     29 H           2.2725    2.4025   20.3014 H       1  UNL1        0.1494
     30 C           2.4455    0.2442   20.3911 C.3     1  UNL1        0.0716
     31 C           2.8067   -0.3911   21.7010 C.3     1  UNL1        0.0199
     32 C           3.5042   -1.7190   21.7235 C.3     1  UNL1        0.0072
     33 C           3.8405   -2.4114   20.4360 C.3     1  UNL1        0.0367
     34 C           3.4792   -1.7759   19.1261 C.3     1  UNL1        0.0072
     35 C           2.7818   -0.4482   19.1037 C.3     1  UNL1        0.0199
     36 C           4.5379   -3.7392   20.4584 C.2     1  UNL1        0.0500
     37 O           5.0539   -4.2936   21.7531 O.co2   1  UNL1       -0.5492
     38 O           4.7194   -4.5125   19.1860 O.co2   1  UNL1       -0.5492
@<TRIPOS>UNITY_ATOM_ATTR
37 1
charge -1
@<TRIPOS>BOND
     1    26    27    2
     2    27    28   am
     3    30    28    1
     4    30    31    1
     5    31    32    1
     6    32    33    1
     7    33    36    1
     8    36    37   ar
     9    36    38   ar
    10    33    34    1
    11    34    35    1
    12    27     1    1
    13     1    20    1
    14    20    21    1
    15    21    22    1
    16    22    23    1
    17    23    24    1
    18    24    25    1
    19     1     2    1
    20     2     3   ar
    21     3    13    1
    22    13    14   ar
    23    14    15   ar
    24    15    16   ar
    25    16    17    1
    26    16    18   ar
    27    18    19   ar
    28     3     4   ar
    29     4     5   ar
    30     5     6   ar
    31     6     7   ar
    32     7     8    1
    33     7     9   ar
    34     9    10    1
    35     9    11   ar
    36    11    12   ar
    37    35    30    1
    38    25    20    1
    39    12     2   ar
    40    19    13   ar
    41    12     5   ar
    42    28    29    1
@<TRIPOS>MOLECULE
*****
 38 42 0 0 0
SMALL
GASTEIGER

@<TRIPOS>ATOM
      1 C           5.7277   -1.5760   29.0423 C.3     1  UNL1        0.1628
      2 N           6.2455   -2.8924   29.5413 N.ar    1  UNL1       -0.3047
      3 C           6.3956   -3.2930   30.9790 C.ar    1  UNL1        0.1441
      4 N           6.9469   -4.6875   31.0165 N.ar    1  UNL1       -0.2267
      5 C           7.1374   -5.1488   29.6019 C.ar    1  UNL1        0.1010
      6 C           7.6496   -6.4357   29.0263 C.ar    1  UNL1        0.0526
      7 C           7.7282   -6.6132   27.5389 C.ar    1  UNL1        0.1690
      8 F           8.2405   -7.9002   26.9632 F       1  UNL1       -0.2017
      9 C           7.2947   -5.5038   26.6272 C.ar    1  UNL1        0.1689
     10 F           7.3734   -5.6813   25.1398 F       1  UNL1       -0.2017
     11 C           6.7825   -4.2169   27.2029 C.ar    1  UNL1        0.0507
     12 C           6.7039   -4.0394   28.6902 C.ar    1  UNL1        0.0816
     13 C           6.0545   -2.4474   32.1701 C.ar    1  UNL1        0.0342
     14 C           7.1128   -1.6072   32.8213 C.ar    1  UNL1        0.0039
     15 C           6.7716   -0.7617   34.0124 C.ar    1  UNL1        0.0115
     16 C           5.3722   -0.7564   34.5523 C.ar    1  UNL1        0.0577
     17 CL          5.0311    0.0891   35.7435 Cl      1  UNL1       -0.0822
     18 C           4.3139   -1.5966   33.9012 C.ar    1  UNL1        0.0115
     19 C           4.6551   -2.4421   32.7101 C.ar    1  UNL1        0.0039
     20 C           6.0023   -0.3203   29.8153 C.3     1  UNL1        0.0297
     21 C           4.8812    0.3912   30.5132 C.3     1  UNL1        0.0024
     22 C           5.1558    1.6469   31.2863 C.3     1  UNL1        0.0001
     23 C           6.5515    2.1913   31.3615 C.3     1  UNL1        0.0000
     24 C           7.6726    1.4799   30.6637 C.3     1  UNL1        0.0001
     25 C           7.3980    0.2241   29.8906 C.3     1  UNL1        0.0024
     26 O           3.5209   -1.8572   27.4061 O.2     1  UNL1       -0.2731
     27 C           4.9353   -1.5153   27.7700 C.2     1  UNL1        0.2431
     28 N           5.5793   -1.0226   26.5081 N.am    1  UNL1       -0.3044
     29 H           6.5221   -0.7391   26.5148 H       1  UNL1        0.1494
     30 C           4.7869   -0.9620   25.2360 C.3     1  UNL1        0.0716
     31 C           4.8261   -2.1110   24.2725 C.3     1  UNL1        0.0199
     32 C           4.0336   -2.0504   23.0003 C.3     1  UNL1        0.0072
     33 C           3.2020   -0.8408   22.6916 C.3     1  UNL1        0.0367
     34 C           3.1628    0.3082   23.6552 C.3     1  UNL1        0.0072
     35 C           3.9552    0.2476   24.9273 C.3     1  UNL1        0.0199
     36 C           2.4096   -0.7802   21.4195 C.2     1  UNL1        0.0500
     37 O           2.7574   -1.6855   20.2752 O.co2   1  UNL1       -0.5492
     38 O           1.2692    0.1859   21.2917 O.co2   1  UNL1       -0.5492
@<TRIPOS>UNITY_ATOM_ATTR
37 1
charge -1
@<TRIPOS>BOND
     1    26    27    2
     2    27    28   am
     3    30    28    1
     4    30    31    1
     5    31    32    1
     6    32    33    1
     7    33    36    1
     8    36    37   ar
     9    36    38   ar
    10    33    34    1
    11    34    35    1
    12    27     1    1
    13     1    20    1
    14    20    21    1
    15    21    22    1
    16    22    23    1
    17    23    24    1
    18    24    25    1
    19     1     2    1
    20     2     3   ar
    21     3    13    1
    22    13    14   ar
    23    14    15   ar
    24    15    16   ar
    25    16    17    1
    26    16    18   ar
    27    18    19   ar
    28     3     4   ar
    29     4     5   ar
    30     5     6   ar
    31     6     7   ar
    32     7     8    1
    33     7     9   ar
    34     9    10    1
    35     9    11   ar
    36    11    12   ar
    37    35    30    1
    38    25    20    1
    39    12     2   ar
    40    19    13   ar
    41    12     5   ar
    42    28    29    1
@<TRIPOS>MOLECULE
*****
 38 42 0 0 0
SMALL
GASTEIGER

@<TRIPOS>ATOM
      1 C         -16.2829   -4.5724   18.7402 C.3     1  UNL1        0.1628
      2 N         -15.1589   -5.5637   18.8037 N.ar    1  UNL1       -0.3047
      3 C         -15.3008   -7.0567   18.8356 C.ar    1  UNL1        0.1441
      4 N         -13.9253   -7.6517   18.8982 N.ar    1  UNL1       -0.2267
      5 C         -12.9333   -6.5266   18.9049 C.ar    1  UNL1        0.1010
      6 C         -11.4343   -6.5104   18.9566 C.ar    1  UNL1        0.0526
      7 C         -10.6978   -5.2038   18.9499 C.ar    1  UNL1        0.1690
      8 F          -9.1987   -5.1876   19.0016 F       1  UNL1       -0.2017
      9 C         -11.4602   -3.9133   18.8915 C.ar    1  UNL1        0.1689
     10 F         -10.7235   -2.6066   18.8849 F       1  UNL1       -0.2017
     11 C         -12.9592   -3.9295   18.8398 C.ar    1  UNL1        0.0507
     12 C         -13.6957   -5.2361   18.8465 C.ar    1  UNL1        0.0816
     13 C         -16.5916   -7.8204   18.8096 C.ar    1  UNL1        0.0342
     14 C         -17.3748   -8.0128   20.0743 C.ar    1  UNL1        0.0039
     15 C         -18.6655   -8.7766   20.0483 C.ar    1  UNL1        0.0115
     16 C         -19.1730   -9.3479   18.7576 C.ar    1  UNL1        0.0577
     17 CL        -20.4638  -10.1117   18.7316 Cl      1  UNL1       -0.0822
     18 C         -18.3898   -9.1555   17.4929 C.ar    1  UNL1        0.0115
     19 C         -17.0991   -8.3918   17.5189 C.ar    1  UNL1        0.0039
     20 C         -17.5890   -4.9587   18.1120 C.3     1  UNL1        0.0297
     21 C         -17.6843   -5.1306   16.6249 C.3     1  UNL1        0.0024
     22 C         -18.9905   -5.5169   15.9967 C.3     1  UNL1        0.0001
     23 C         -20.2014   -5.7312   16.8556 C.3     1  UNL1        0.0000
     24 C         -20.1062   -5.5592   18.3426 C.3     1  UNL1        0.0001
     25 C         -18.8000   -5.1730   18.9708 C.3     1  UNL1        0.0024
     26 O         -15.3492   -2.6407   20.4790 O.2     1  UNL1       -0.2731
     27 C         -16.1006   -3.1947   19.3049 C.2     1  UNL1        0.2431
     28 N         -16.7617   -2.0205   18.6459 N.am    1  UNL1       -0.3044
     29 H         -17.3152   -2.1541   17.8427 H       1  UNL1        0.1494
     30 C         -16.5794   -0.6429   19.2106 C.3     1  UNL1        0.0716
     31 C         -15.5242    0.2639   18.6498 C.3     1  UNL1        0.0199
     32 C         -15.3419    1.6416   19.2145 C.3     1  UNL1        0.0072
     33 C         -16.2147    2.1124   20.3399 C.3     1  UNL1        0.0367
     34 C         -17.2698    1.2056   20.9006 C.3     1  UNL1        0.0072
     35 C         -17.4522   -0.1721   20.3360 C.3     1  UNL1        0.0199
     36 C         -16.0324    3.4900   20.9046 C.2     1  UNL1        0.0500
     37 O         -17.0623    4.0625   21.8328 O.co2   1  UNL1       -0.5492
     38 O         -14.8201    4.2952   20.5411 O.co2   1  UNL1       -0.5492
@<TRIPOS>UNITY_ATOM_ATTR
37 1
charge -1
@<TRIPOS>BOND
     1    26    27    2
     2    27    28   am
     3    30    28    1
     4    30    31    1
     5    31    32    1
     6    32    33    1
     7    33    36    1
     8    36    37   ar
     9    36    38   ar
    10    33    34    1
    11    34    35    1
    12    27     1    1
    13     1    20    1
    14    20    21    1
    15    21    22    1
    16    22    23    1
    17    23    24    1
    18    24    25    1
    19     1     2    1
    20     2     3   ar
    21     3    13    1
    22    13    14   ar
    23    14    15   ar
    24    15    16   ar
    25    16    17    1
    26    16    18   ar
    27    18    19   ar
    28     3     4   ar
    29     4     5   ar
    30     5     6   ar
    31     6     7   ar
    32     7     8    1
    33     7     9   ar
    34     9    10    1
    35     9    11   ar
    36    11    12   ar
    37    35    30    1
    38    25    20    1
    39    12     2   ar
    40    19    13   ar
    41    12     5   ar
    42    28    29    1
@<TRIPOS>MOLECULE
*****
 38 42 0 0 0
SMALL
GASTEIGER

@<TRIPOS>ATOM
      1 C          -0.5748    3.0218   21.5741 C.3     1  UNL1        0.1628
      2 N          -1.0513    3.0225   22.9964 N.ar    1  UNL1       -0.3047
      3 C          -2.3735    3.5374   23.4830 C.ar    1  UNL1        0.1441
      4 N          -2.4285    3.3416   24.9692 N.ar    1  UNL1       -0.2267
      5 C          -1.1404    2.7058   25.4011 C.ar    1  UNL1        0.1010
      6 C          -0.6326    2.2809   26.7470 C.ar    1  UNL1        0.0526
      7 C           0.7264    1.6588   26.8737 C.ar    1  UNL1        0.1690
      8 F           1.2342    1.2339   28.2197 F       1  UNL1       -0.2017
      9 C           1.5776    1.4616   25.6545 C.ar    1  UNL1        0.1689
     10 F           2.9366    0.8395   25.7812 F       1  UNL1       -0.2017
     11 C           1.0698    1.8865   24.3085 C.ar    1  UNL1        0.0507
     12 C          -0.2892    2.5086   24.1818 C.ar    1  UNL1        0.0816
     13 C          -3.4513    4.1418   22.6328 C.ar    1  UNL1        0.0342
     14 C          -3.5693    5.6328   22.5192 C.ar    1  UNL1        0.0039
     15 C          -4.6471    6.2373   21.6690 C.ar    1  UNL1        0.0115
     16 C          -5.6069    5.3508   20.9323 C.ar    1  UNL1        0.0577
     17 CL         -6.6847    5.9552   20.0821 Cl      1  UNL1       -0.0822
     18 C          -5.4889    3.8598   21.0459 C.ar    1  UNL1        0.0115
     19 C          -4.4111    3.2553   21.8961 C.ar    1  UNL1        0.0039
     20 C          -0.8066    4.2219   20.7048 C.3     1  UNL1        0.0297
     21 C          -1.6795    4.1108   19.4900 C.3     1  UNL1        0.0024
     22 C          -1.9114    5.3109   18.6206 C.3     1  UNL1        0.0001
     23 C          -1.2702    6.6223   18.9660 C.3     1  UNL1        0.0000
     24 C          -0.3973    6.7334   20.1807 C.3     1  UNL1        0.0001
     25 C          -0.1654    5.5333   21.0501 C.3     1  UNL1        0.0024
     26 O          -0.3090    0.4482   20.6085 O.2     1  UNL1       -0.2731
     27 C           0.1336    1.8207   21.0211 C.2     1  UNL1        0.2431
     28 N           1.6132    1.8681   20.7789 N.am    1  UNL1       -0.3044
     29 H           2.1194    2.6875   20.9829 H       1  UNL1        0.1494
     30 C           2.3215    0.6671   20.2259 C.3     1  UNL1        0.0716
     31 C           2.6771    0.6107   18.7698 C.3     1  UNL1        0.0199
     32 C           3.3854   -0.5904   18.2167 C.3     1  UNL1        0.0072
     33 C           3.7381   -1.7350   19.1198 C.3     1  UNL1        0.0367
     34 C           3.3824   -1.6785   20.5759 C.3     1  UNL1        0.0072
     35 C           2.6741   -0.4775   21.1290 C.3     1  UNL1        0.0199
     36 C           4.4463   -2.9360   18.5668 C.2     1  UNL1        0.0500
     37 O           5.6757   -2.7604   17.7254 O.co2   1  UNL1       -0.5492
     38 O           3.9252   -4.3127   18.8552 O.co2   1  UNL1       -0.5492
@<TRIPOS>UNITY_ATOM_ATTR
37 1
charge -1
@<TRIPOS>BOND
     1    26    27    2
     2    27    28   am
     3    30    28    1
     4    30    31    1
     5    31    32    1
     6    32    33    1
     7    33    36    1
     8    36    37   ar
     9    36    38   ar
    10    33    34    1
    11    34    35    1
    12    27     1    1
    13     1    20    1
    14    20    21    1
    15    21    22    1
    16    22    23    1
    17    23    24    1
    18    24    25    1
    19     1     2    1
    20     2     3   ar
    21     3    13    1
    22    13    14   ar
    23    14    15   ar
    24    15    16   ar
    25    16    17    1
    26    16    18   ar
    27    18    19   ar
    28     3     4   ar
    29     4     5   ar
    30     5     6   ar
    31     6     7   ar
    32     7     8    1
    33     7     9   ar
    34     9    10    1
    35     9    11   ar
    36    11    12   ar
    37    35    30    1
    38    25    20    1
    39    12     2   ar
    40    19    13   ar
    41    12     5   ar
    42    28    29    1
@<TRIPOS>MOLECULE
*****
 38 42 0 0 0
SMALL
GASTEIGER

@<TRIPOS>ATOM
      1 C           0.5595    3.0547   21.4854 C.3     1  UNL1        0.1628
      2 N           0.7692    2.1420   22.6572 N.ar    1  UNL1       -0.3047
      3 C           1.6766    0.9481   22.6936 C.ar    1  UNL1        0.1441
      4 N           1.5764    0.3312   24.0572 N.ar    1  UNL1       -0.2267
      5 C           0.6071    1.1438   24.8635 C.ar    1  UNL1        0.1010
      6 C           0.1143    1.0092   26.2738 C.ar    1  UNL1        0.0526
      7 C          -0.8774    1.9938   26.8189 C.ar    1  UNL1        0.1690
      8 F          -1.3702    1.8593   28.2292 F       1  UNL1       -0.2017
      9 C          -1.3763    3.1129   25.9536 C.ar    1  UNL1        0.1689
     10 F          -2.3681    4.0975   26.4987 F       1  UNL1       -0.2017
     11 C          -0.8835    3.2475   24.5433 C.ar    1  UNL1        0.0507
     12 C           0.1082    2.2629   23.9983 C.ar    1  UNL1        0.0816
     13 C           2.5337    0.4574   21.5646 C.ar    1  UNL1        0.0342
     14 C           3.9724    0.8732   21.4796 C.ar    1  UNL1        0.0039
     15 C           4.8295    0.3824   20.3506 C.ar    1  UNL1        0.0115
     16 C           4.2479   -0.5241   19.3067 C.ar    1  UNL1        0.0577
     17 CL          5.1050   -1.0149   18.1777 Cl      1  UNL1       -0.0822
     18 C           2.8092   -0.9400   19.3917 C.ar    1  UNL1        0.0115
     19 C           1.9521   -0.4492   20.5207 C.ar    1  UNL1        0.0039
     20 C           1.7125    3.4062   20.5927 C.3     1  UNL1        0.0297
     21 C           1.7486    2.9017   19.1805 C.3     1  UNL1        0.0024
     22 C           2.9016    3.2532   18.2877 C.3     1  UNL1        0.0001
     23 C           4.0186    4.1091   18.8072 C.3     1  UNL1        0.0000
     24 C           3.9825    4.6136   20.2194 C.3     1  UNL1        0.0001
     25 C           2.8295    4.2621   21.1121 C.3     1  UNL1        0.0024
     26 O          -1.4067    4.9856   21.3065 O.2     1  UNL1       -0.2731
     27 C          -0.8033    3.6160   21.2063 C.2     1  UNL1        0.2431
     28 N          -1.8980    2.7170   20.7128 N.am    1  UNL1       -0.3044
     29 H          -1.7221    1.7586   20.5720 H       1  UNL1        0.1494
     30 C          -3.2607    3.2783   20.4337 C.3     1  UNL1        0.0716
     31 C          -4.2896    3.3266   21.5242 C.3     1  UNL1        0.0199
     32 C          -5.6524    3.8880   21.2452 C.3     1  UNL1        0.0072
     33 C          -5.9863    4.4009   19.8758 C.3     1  UNL1        0.0367
     34 C          -4.9573    4.3526   18.7853 C.3     1  UNL1        0.0072
     35 C          -3.5946    3.7913   19.0643 C.3     1  UNL1        0.0199
     36 C          -7.3490    4.9622   19.5967 C.2     1  UNL1        0.0500
     37 O          -7.9855    5.9067   20.5729 O.co2   1  UNL1       -0.5492
     38 O          -8.0752    4.5791   18.3414 O.co2   1  UNL1       -0.5492
@<TRIPOS>UNITY_ATOM_ATTR
37 1
charge -1
@<TRIPOS>BOND
     1    26    27    2
     2    27    28   am
     3    30    28    1
     4    30    31    1
     5    31    32    1
     6    32    33    1
     7    33    36    1
     8    36    37   ar
     9    36    38   ar
    10    33    34    1
    11    34    35    1
    12    27     1    1
    13     1    20    1
    14    20    21    1
    15    21    22    1
    16    22    23    1
    17    23    24    1
    18    24    25    1
    19     1     2    1
    20     2     3   ar
    21     3    13    1
    22    13    14   ar
    23    14    15   ar
    24    15    16   ar
    25    16    17    1
    26    16    18   ar
    27    18    19   ar
    28     3     4   ar
    29     4     5   ar
    30     5     6   ar
    31     6     7   ar
    32     7     8    1
    33     7     9   ar
    34     9    10    1
    35     9    11   ar
    36    11    12   ar
    37    35    30    1
    38    25    20    1
    39    12     2   ar
    40    19    13   ar
    41    12     5   ar
    42    28    29    1
@<TRIPOS>MOLECULE
*****
 38 42 0 0 0
SMALL
GASTEIGER

@<TRIPOS>ATOM
      1 C           1.9377    1.3783   21.5851 C.3     1  UNL1        0.1628
      2 N           1.1775    2.0568   20.4843 N.ar    1  UNL1       -0.3047
      3 C           1.6409    2.2270   19.0679 C.ar    1  UNL1        0.1441
      4 N           0.5702    2.9596   18.3148 N.ar    1  UNL1       -0.2267
      5 C          -0.5549    3.2421   19.2658 C.ar    1  UNL1        0.1010
      6 C          -1.8726    3.9353   19.0841 C.ar    1  UNL1        0.0526
      7 C          -2.8149    4.0705   20.2432 C.ar    1  UNL1        0.1690
      8 F          -4.1327    4.7638   20.0615 F       1  UNL1       -0.2017
      9 C          -2.4396    3.5126   21.5840 C.ar    1  UNL1        0.1689
     10 F          -3.3821    3.6479   22.7432 F       1  UNL1       -0.2017
     11 C          -1.1219    2.8194   21.7658 C.ar    1  UNL1        0.0507
     12 C          -0.1795    2.6841   20.6067 C.ar    1  UNL1        0.0816
     13 C           2.9458    1.7487   18.5035 C.ar    1  UNL1        0.0342
     14 C           3.0310    0.4020   17.8484 C.ar    1  UNL1        0.0039
     15 C           4.3359   -0.0763   17.2841 C.ar    1  UNL1        0.0115
     16 C           5.5556    0.7920   17.3749 C.ar    1  UNL1        0.0577
     17 CL          6.8605    0.3137   16.8106 Cl      1  UNL1       -0.0822
     18 C           5.4704    2.1387   18.0301 C.ar    1  UNL1        0.0115
     19 C           4.1655    2.6170   18.5944 C.ar    1  UNL1        0.0039
     20 C           2.9102    0.2835   21.2608 C.3     1  UNL1        0.0297
     21 C           4.3842    0.5231   21.4033 C.3     1  UNL1        0.0024
     22 C           5.3568   -0.5718   21.0789 C.3     1  UNL1        0.0001
     23 C           4.8556   -1.9063   20.6121 C.3     1  UNL1        0.0000
     24 C           3.3817   -2.1459   20.4696 C.3     1  UNL1        0.0001
     25 C           2.4090   -1.0510   20.7939 C.3     1  UNL1        0.0024
     26 O           1.7730    3.1101   23.7300 O.2     1  UNL1       -0.2731
     27 C           1.7252    1.7948   23.0105 C.2     1  UNL1        0.2431
     28 N           1.3838    0.7677   24.0490 N.am    1  UNL1       -0.3044
     29 H           1.2991   -0.1797   23.7952 H       1  UNL1        0.1494
     30 C           1.1713    1.1842   25.4742 C.3     1  UNL1        0.0716
     31 C           2.3354    1.2492   26.4180 C.3     1  UNL1        0.0199
     32 C           2.1231    1.6657   27.8434 C.3     1  UNL1        0.0072
     33 C           0.7466    2.0172   28.3249 C.3     1  UNL1        0.0367
     34 C          -0.4174    1.9522   27.3810 C.3     1  UNL1        0.0072
     35 C          -0.2051    1.5357   25.9558 C.3     1  UNL1        0.0199
     36 C           0.5342    2.4338   29.7501 C.2     1  UNL1        0.0500
     37 O           0.7653    3.8587   30.1575 O.co2   1  UNL1       -0.5492
     38 O           0.0906    1.4252   30.7680 O.co2   1  UNL1       -0.5492
@<TRIPOS>UNITY_ATOM_ATTR
37 1
charge -1
@<TRIPOS>BOND
     1    26    27    2
     2    27    28   am
     3    30    28    1
     4    30    31    1
     5    31    32    1
     6    32    33    1
     7    33    36    1
     8    36    37   ar
     9    36    38   ar
    10    33    34    1
    11    34    35    1
    12    27     1    1
    13     1    20    1
    14    20    21    1
    15    21    22    1
    16    22    23    1
    17    23    24    1
    18    24    25    1
    19     1     2    1
    20     2     3   ar
    21     3    13    1
    22    13    14   ar
    23    14    15   ar
    24    15    16   ar
    25    16    17    1
    26    16    18   ar
    27    18    19   ar
    28     3     4   ar
    29     4     5   ar
    30     5     6   ar
    31     6     7   ar
    32     7     8    1
    33     7     9   ar
    34     9    10    1
    35     9    11   ar
    36    11    12   ar
    37    35    30    1
    38    25    20    1
    39    12     2   ar
    40    19    13   ar
    41    12     5   ar
    42    28    29    1
@<TRIPOS>MOLECULE
*****
 38 42 0 0 0
SMALL
GASTEIGER

@<TRIPOS>ATOM
      1 C           2.7536    2.0165   21.4456 C.3     1  UNL1        0.1628
      2 N           1.7891    2.0898   20.2992 N.ar    1  UNL1       -0.3047
      3 C           1.6875    1.1095   19.1684 C.ar    1  UNL1        0.1441
      4 N           0.5924    1.5701   18.2527 N.ar    1  UNL1       -0.2267
      5 C           0.0172    2.8351   18.8175 C.ar    1  UNL1        0.1010
      6 C          -1.0845    3.7359   18.3435 C.ar    1  UNL1        0.0526
      7 C          -1.4466    4.9580   19.1344 C.ar    1  UNL1        0.1690
      8 F          -2.5483    5.8589   18.6604 F       1  UNL1       -0.2017
      9 C          -0.7070    5.2791   20.3992 C.ar    1  UNL1        0.1689
     10 F          -1.0691    6.5012   21.1901 F       1  UNL1       -0.2017
     11 C           0.3947    4.3783   20.8732 C.ar    1  UNL1        0.0507
     12 C           0.7568    3.1562   20.0823 C.ar    1  UNL1        0.0816
     13 C           2.5326   -0.1162   18.9854 C.ar    1  UNL1        0.0342
     14 C           2.4277   -1.2518   19.9598 C.ar    1  UNL1        0.0039
     15 C           3.2729   -2.4775   19.7768 C.ar    1  UNL1        0.0115
     16 C           4.2229   -2.5676   18.6195 C.ar    1  UNL1        0.0577
     17 CL          5.0680   -3.7932   18.4366 Cl      1  UNL1       -0.0822
     18 C           4.3278   -1.4319   17.6452 C.ar    1  UNL1        0.0115
     19 C           3.4826   -0.2063   17.8282 C.ar    1  UNL1        0.0039
     20 C           4.1742    2.4609   21.2602 C.3     1  UNL1        0.0297
     21 C           5.2465    1.4492   20.9831 C.3     1  UNL1        0.0024
     22 C           6.6671    1.8935   20.7977 C.3     1  UNL1        0.0001
     23 C           7.0154    3.3497   20.8894 C.3     1  UNL1        0.0000
     24 C           5.9432    4.3613   21.1665 C.3     1  UNL1        0.0001
     25 C           4.5226    3.9170   21.3519 C.3     1  UNL1        0.0024
     26 O           2.1388    0.1271   23.3636 O.2     1  UNL1       -0.2731
     27 C           2.2975    1.4987   22.7776 C.2     1  UNL1        0.2431
     28 N           1.8792    2.4582   23.8520 N.am    1  UNL1       -0.3044
     29 H           1.9039    3.4278   23.6830 H       1  UNL1        0.1494
     30 C           1.4231    1.9404   25.1838 C.3     1  UNL1        0.0716
     31 C          -0.0369    1.7095   25.4387 C.3     1  UNL1        0.0199
     32 C          -0.4931    1.1917   26.7706 C.3     1  UNL1        0.0072
     33 C           0.5108    0.9048   27.8476 C.3     1  UNL1        0.0367
     34 C           1.9709    1.1357   27.5926 C.3     1  UNL1        0.0072
     35 C           2.4270    1.6535   26.2608 C.3     1  UNL1        0.0199
     36 C           0.0548    0.3870   29.1794 C.2     1  UNL1        0.0500
     37 O          -1.0014   -0.6758   29.2493 O.co2   1  UNL1       -0.5492
     38 O           0.6550    0.9321   30.4414 O.co2   1  UNL1       -0.5492
@<TRIPOS>UNITY_ATOM_ATTR
37 1
charge -1
@<TRIPOS>BOND
     1    26    27    2
     2    27    28   am
     3    30    28    1
     4    30    31    1
     5    31    32    1
     6    32    33    1
     7    33    36    1
     8    36    37   ar
     9    36    38   ar
    10    33    34    1
    11    34    35    1
    12    27     1    1
    13     1    20    1
    14    20    21    1
    15    21    22    1
    16    22    23    1
    17    23    24    1
    18    24    25    1
    19     1     2    1
    20     2     3   ar
    21     3    13    1
    22    13    14   ar
    23    14    15   ar
    24    15    16   ar
    25    16    17    1
    26    16    18   ar
    27    18    19   ar
    28     3     4   ar
    29     4     5   ar
    30     5     6   ar
    31     6     7   ar
    32     7     8    1
    33     7     9   ar
    34     9    10    1
    35     9    11   ar
    36    11    12   ar
    37    35    30    1
    38    25    20    1
    39    12     2   ar
    40    19    13   ar
    41    12     5   ar
    42    28    29    1
