@<TRIPOS>MOLECULE
*****
 53 58 0 0 0
SMALL
GASTEIGER

@<TRIPOS>ATOM
      1 C           4.8248   -1.8555   27.7201 C.3     1  UNL1        0.1269
      2 O           3.4334   -1.9687   27.1712 O.3     1  UNL1       -0.3830
      3 H           2.8949   -1.2323   27.5009 H       1  UNL1        0.2104
      4 C           5.8594   -2.8795   27.3582 C.3     1  UNL1        0.0401
      5 C           6.5626   -2.8002   26.0357 C.3     1  UNL1        0.0833
      6 O           6.4822   -0.8292   24.3449 O.2     1  UNL1       -0.2751
      7 C           5.9068   -2.1078   24.8778 C.2     1  UNL1        0.2226
      8 N           4.6757   -2.6941   24.2529 N.am    1  UNL1       -0.2999
      9 H           4.2981   -3.5334   24.6026 H       1  UNL1        0.1498
     10 C           4.0199   -2.0018   23.0950 C.3     1  UNL1        0.1278
     11 C           4.3118   -2.4461   21.6924 C.ar    1  UNL1        0.0320
     12 C           5.2595   -3.5827   21.4476 C.ar    1  UNL1        0.0004
     13 C           5.5513   -4.0270   20.0449 C.ar    1  UNL1       -0.0001
     14 C           4.8955   -3.3347   18.8871 C.ar    1  UNL1        0.0031
     15 C           3.9479   -2.1981   19.1319 C.ar    1  UNL1        0.0366
     16 C           3.6560   -1.7538   20.5346 C.ar    1  UNL1        0.1362
     17 O           2.7082   -0.6171   20.7794 O.3     1  UNL1       -0.4730
     18 C           2.4164   -0.1728   22.1820 C.3     1  UNL1        0.2364
     19 C           3.0722   -0.8652   23.3399 C.3     1  UNL1        0.1762
     20 O           2.7803   -0.4209   24.7425 O.3     1  UNL1       -0.3788
     21 H           2.1530    0.3186   24.7235 H       1  UNL1        0.2106
     22 C           7.9217   -3.4133   25.8709 C.3     1  UNL1        0.0371
     23 C           8.0631   -4.7632   25.2324 C.ar    1  UNL1       -0.0025
     24 C           8.2689   -5.9790   26.0864 C.ar    1  UNL1       -0.0011
     25 C           8.4104   -7.3289   25.4478 C.ar    1  UNL1        0.0204
     26 C           8.3461   -7.4630   23.9552 C.ar    1  UNL1        0.0989
     27 N           8.1403   -6.2471   23.1012 N.ar    1  UNL1       -0.2426
     28 C           7.9988   -4.8972   23.7397 C.ar    1  UNL1        0.0946
     29 C           5.1816   -0.7183   28.6309 C.3     1  UNL1        0.1021
     30 N           5.0052   -0.8613   30.1136 N.3     1  UNL1       -0.2621
     31 C           6.0923   -1.4794   30.9421 C.3     1  UNL1        0.0901
     32 C           5.9159   -1.6223   32.4248 C.3     1  UNL1        0.0900
     33 N           4.6525   -1.1471   33.0791 N.3     1  UNL1       -0.2657
     34 C           3.5655   -0.5290   32.2506 C.3     1  UNL1        0.0980
     35 C           3.7419   -0.3861   30.7679 C.3     1  UNL1        0.1510
     36 C           2.6549    0.2320   29.9394 C.2     1  UNL1        0.2386
     37 O           2.6607    1.7086   29.6755 O.2     1  UNL1       -0.2736
     38 N           1.5620   -0.6265   29.3749 N.am    1  UNL1       -0.2961
     39 H           1.5581   -1.5956   29.5481 H       1  UNL1        0.1497
     40 C           0.4750   -0.0084   28.5465 C.3     1  UNL1        0.1939
     41 C          -0.9151    0.1067   29.0982 C.3     1  UNL1        0.4154
     42 F          -2.3052    0.2217   29.6500 F       1  UNL1       -0.1682
     43 F          -0.4894    1.2832   29.9255 F       1  UNL1       -0.1682
     44 F          -1.3408   -1.0699   28.2710 F       1  UNL1       -0.1682
     45 C           4.4761   -1.2901   34.5618 C.3     1  UNL1        0.1051
     46 C           5.0358   -0.2507   35.4873 C.2     1  UNL1        0.0161
     47 C           6.4069   -0.2583   36.0957 C.2     1  UNL1       -0.0171
     48 C           6.5412    0.9664   36.9513 C.3     1  UNL1        0.0654
     49 C           7.4715    1.7186   37.8561 C.2     1  UNL1       -0.0137
     50 C           6.7584    2.9480   38.3357 C.2     1  UNL1        0.0275
     51 S           5.3873    2.9556   37.7272 S.3     1  UNL1       -0.1023
     52 C           5.2530    1.7309   36.8716 C.3     1  UNL1        0.1109
     53 S           4.3227    0.9787   35.9668 S.3     1  UNL1       -0.1057
@<TRIPOS>BOND
     1     6     7    2
     2     7     8   am
     3    10     8    1
     4    10    11    1
     5    11    12   ar
     6    12    13   ar
     7    13    14   ar
     8    14    15   ar
     9    15    16   ar
    10    16    17    1
    11    17    18    1
    12    18    19    1
    13    19    20    1
    14     7     5    1
    15     5    22    1
    16    22    23    1
    17    23    24   ar
    18    24    25   ar
    19    25    26   ar
    20    26    27   ar
    21    27    28   ar
    22     5     4    1
    23     4     1    1
    24     1     2    1
    25     1    29    1
    26    29    30    1
    27    30    31    1
    28    31    32    1
    29    32    33    1
    30    33    45    1
    31    45    46    1
    32    46    47    2
    33    47    48    1
    34    48    49    1
    35    49    50    2
    36    50    51    1
    37    51    52    1
    38    52    53    1
    39    33    34    1
    40    34    35    1
    41    35    36    1
    42    36    37    2
    43    36    38   am
    44    38    40    1
    45    40    41    1
    46    41    42    1
    47    41    43    1
    48    41    44    1
    49    19    10    1
    50    28    23   ar
    51    35    30    1
    52    16    11   ar
    53    53    46    1
    54    52    48    1
    55     8     9    1
    56    20    21    1
    57     2     3    1
    58    38    39    1
@<TRIPOS>MOLECULE
*****
 53 58 0 0 0
SMALL
GASTEIGER

@<TRIPOS>ATOM
      1 C           4.8294   -2.0051   27.5653 C.3     1  UNL1        0.1269
      2 O           3.4368   -2.0822   27.0134 O.3     1  UNL1       -0.3830
      3 H           2.9254   -1.3165   27.3182 H       1  UNL1        0.2104
      4 C           5.8259   -3.0779   27.2392 C.3     1  UNL1        0.0401
      5 C           6.6558   -2.9771   25.9938 C.3     1  UNL1        0.0833
      6 O           6.7517   -1.2361   24.0678 O.2     1  UNL1       -0.2751
      7 C           6.0682   -2.3858   24.7467 C.2     1  UNL1        0.2226
      8 N           4.7972   -2.9443   24.1787 N.am    1  UNL1       -0.2999
      9 H           4.3487   -3.6989   24.6243 H       1  UNL1        0.1498
     10 C           4.2097   -2.3530   22.9316 C.3     1  UNL1        0.1278
     11 C           3.3274   -1.1430   23.0189 C.ar    1  UNL1        0.0320
     12 C           3.0327   -0.5243   24.3531 C.ar    1  UNL1        0.0004
     13 C           2.1505    0.6856   24.4404 C.ar    1  UNL1       -0.0001
     14 C           1.5629    1.2769   23.1934 C.ar    1  UNL1        0.0031
     15 C           1.8576    0.6582   21.8591 C.ar    1  UNL1        0.0366
     16 C           2.7399   -0.5518   21.7718 C.ar    1  UNL1        0.1362
     17 O           3.0345   -1.1705   20.4375 O.3     1  UNL1       -0.4730
     18 C           3.9168   -2.3804   20.3502 C.3     1  UNL1        0.2364
     19 C           4.5044   -2.9717   21.5974 C.3     1  UNL1        0.1762
     20 O           5.3866   -4.1817   21.5101 O.3     1  UNL1       -0.3788
     21 H           5.4737   -4.4521   20.5827 H       1  UNL1        0.2106
     22 C           8.0733   -3.4677   25.9955 C.3     1  UNL1        0.0371
     23 C           8.3583   -4.9377   25.9064 C.ar    1  UNL1       -0.0025
     24 C           7.8921   -5.7213   24.7153 C.ar    1  UNL1       -0.0011
     25 C           8.1771   -7.1913   24.6263 C.ar    1  UNL1        0.0204
     26 C           8.9284   -7.8777   25.7283 C.ar    1  UNL1        0.0989
     27 N           9.3946   -7.0941   26.9194 N.ar    1  UNL1       -0.2426
     28 C           9.1096   -5.6241   27.0085 C.ar    1  UNL1        0.0946
     29 C           5.2257   -0.8552   28.4433 C.3     1  UNL1        0.1021
     30 N           5.0697   -0.9595   29.9315 N.3     1  UNL1       -0.2621
     31 C           6.1578   -1.5783   30.7581 C.3     1  UNL1        0.0901
     32 C           6.0018   -1.6825   32.2463 C.3     1  UNL1        0.0900
     33 N           4.7578   -1.1680   32.9079 N.3     1  UNL1       -0.2657
     34 C           3.6698   -0.5492   32.0813 C.3     1  UNL1        0.0980
     35 C           3.8257   -0.4450   30.5931 C.3     1  UNL1        0.1510
     36 C           2.7377    0.1738   29.7665 C.2     1  UNL1        0.2386
     37 O           2.8069    1.6273   29.4024 O.2     1  UNL1       -0.2736
     38 N           1.5804   -0.6610   29.3039 N.am    1  UNL1       -0.2961
     39 H           1.5350   -1.6150   29.5428 H       1  UNL1        0.1497
     40 C           0.4924   -0.0423   28.4773 C.3     1  UNL1        0.1939
     41 C          -0.8840    0.1218   29.0507 C.3     1  UNL1        0.4154
     42 F          -2.2603    0.2859   29.6241 F       1  UNL1       -0.1682
     43 F          -0.4514    1.3892   29.7264 F       1  UNL1       -0.1682
     44 F          -1.3165   -1.1456   28.3750 F       1  UNL1       -0.1682
     45 C           4.6018   -1.2722   34.3962 C.3     1  UNL1        0.1051
     46 C           4.9859   -0.1175   35.2732 C.2     1  UNL1        0.0161
     47 C           4.5515    0.0937   36.6934 C.2     1  UNL1       -0.0171
     48 C           5.1688    1.3704   37.1820 C.3     1  UNL1        0.0654
     49 C           5.2819    2.2900   38.3616 C.2     1  UNL1       -0.0137
     50 C           6.1678    3.4362   37.9726 C.2     1  UNL1        0.0275
     51 S           6.6022    3.2251   36.5525 S.3     1  UNL1       -0.1023
     52 C           5.9848    1.9483   36.0638 C.3     1  UNL1        0.1109
     53 S           5.8717    1.0288   34.8842 S.3     1  UNL1       -0.1057
@<TRIPOS>BOND
     1     6     7    2
     2     7     8   am
     3    10     8    1
     4    10    11    1
     5    11    12   ar
     6    12    13   ar
     7    13    14   ar
     8    14    15   ar
     9    15    16   ar
    10    16    17    1
    11    17    18    1
    12    18    19    1
    13    19    20    1
    14     7     5    1
    15     5    22    1
    16    22    23    1
    17    23    24   ar
    18    24    25   ar
    19    25    26   ar
    20    26    27   ar
    21    27    28   ar
    22     5     4    1
    23     4     1    1
    24     1     2    1
    25     1    29    1
    26    29    30    1
    27    30    31    1
    28    31    32    1
    29    32    33    1
    30    33    45    1
    31    45    46    1
    32    46    47    2
    33    47    48    1
    34    48    49    1
    35    49    50    2
    36    50    51    1
    37    51    52    1
    38    52    53    1
    39    33    34    1
    40    34    35    1
    41    35    36    1
    42    36    37    2
    43    36    38   am
    44    38    40    1
    45    40    41    1
    46    41    42    1
    47    41    43    1
    48    41    44    1
    49    19    10    1
    50    28    23   ar
    51    35    30    1
    52    16    11   ar
    53    53    46    1
    54    52    48    1
    55     8     9    1
    56    20    21    1
    57     2     3    1
    58    38    39    1
@<TRIPOS>MOLECULE
*****
 53 58 0 0 0
SMALL
GASTEIGER

@<TRIPOS>ATOM
      1 C           3.3055   -0.5463   30.5454 C.3     1  UNL1        0.1269
      2 O           1.8291   -0.7850   30.4306 O.3     1  UNL1       -0.3830
      3 H           1.5006   -0.3895   29.6080 H       1  UNL1        0.2104
      4 C           4.0583   -1.0617   31.7360 C.3     1  UNL1        0.0401
      5 C           4.0192   -0.3077   33.0321 C.3     1  UNL1        0.0833
      6 O           4.5678    2.2186   32.7726 O.2     1  UNL1       -0.2751
      7 C           3.5788    1.1261   33.0526 C.2     1  UNL1        0.2226
      8 N           2.1494    1.4674   33.3531 N.am    1  UNL1       -0.2999
      9 H           1.5003    0.7504   33.5369 H       1  UNL1        0.1498
     10 C           1.7090    2.9011   33.3737 C.3     1  UNL1        0.1278
     11 C           1.2985    3.5780   32.0996 C.ar    1  UNL1        0.0320
     12 C           1.3283    2.8211   30.8049 C.ar    1  UNL1        0.0004
     13 C           0.9178    3.4979   29.5308 C.ar    1  UNL1       -0.0001
     14 C           0.4774    4.9316   29.5514 C.ar    1  UNL1        0.0031
     15 C           0.4475    5.6885   30.8460 C.ar    1  UNL1        0.0366
     16 C           0.8581    5.0117   32.1201 C.ar    1  UNL1        0.1362
     17 O           0.8282    5.7687   33.4148 O.3     1  UNL1       -0.4730
     18 C           1.2388    5.0918   34.6889 C.3     1  UNL1        0.2364
     19 C           1.6792    3.6580   34.6683 C.3     1  UNL1        0.1762
     20 O           2.0897    2.9812   35.9424 O.3     1  UNL1       -0.3788
     21 H           2.0127    3.6064   36.6800 H       1  UNL1        0.2106
     22 C           4.4205   -0.9873   34.3076 C.3     1  UNL1        0.0371
     23 C           5.2184   -0.2416   35.3358 C.ar    1  UNL1       -0.0025
     24 C           4.5412    0.3105   36.5551 C.ar    1  UNL1       -0.0011
     25 C           5.3392    1.0562   37.5833 C.ar    1  UNL1        0.0204
     26 C           6.8143    1.2497   37.3923 C.ar    1  UNL1        0.0989
     27 N           7.4915    0.6976   36.1731 N.ar    1  UNL1       -0.2426
     28 C           6.6936   -0.0481   35.1449 C.ar    1  UNL1        0.0946
     29 C           4.0292    0.2080   29.4695 C.3     1  UNL1        0.1021
     30 N           4.5078   -0.5099   28.2425 N.3     1  UNL1       -0.2621
     31 C           5.7389   -1.3646   28.3060 C.3     1  UNL1        0.0901
     32 C           6.2176   -2.0825   27.0790 C.3     1  UNL1        0.0900
     33 N           5.4652   -1.9457   25.7885 N.3     1  UNL1       -0.2657
     34 C           4.2342   -1.0910   25.7251 C.3     1  UNL1        0.0980
     35 C           3.7555   -0.3731   26.9521 C.3     1  UNL1        0.1510
     36 C           2.5245    0.4816   26.8887 C.2     1  UNL1        0.2386
     37 O           2.5746    1.8200   26.2133 O.2     1  UNL1       -0.2736
     38 N           1.2432   -0.0021   27.5007 N.am    1  UNL1       -0.2961
     39 H           1.2103   -0.8805   27.9440 H       1  UNL1        0.1497
     40 C           0.0122    0.8526   27.4373 C.3     1  UNL1        0.1939
     41 C          -1.1456    0.5689   28.3479 C.3     1  UNL1        0.4154
     42 F          -2.3033    0.2852   29.2584 F       1  UNL1       -0.1682
     43 F          -0.5388   -0.7551   28.7069 F       1  UNL1       -0.1682
     44 F          -1.7524    1.8928   27.9888 F       1  UNL1       -0.1682
     45 C           5.9439   -2.6635   24.5616 C.3     1  UNL1        0.1051
     46 C           5.4287   -2.2648   23.2104 C.2     1  UNL1        0.0161
     47 C           4.3002   -2.9182   22.4690 C.2     1  UNL1       -0.0171
     48 C           4.1256   -2.1999   21.1638 C.3     1  UNL1        0.0654
     49 C           3.3202   -2.1597   19.8990 C.2     1  UNL1       -0.0137
     50 C           3.8430   -1.0376   19.0520 C.2     1  UNL1        0.0275
     51 S           4.9715   -0.3842   19.7934 S.3     1  UNL1       -0.1023
     52 C           5.1462   -1.1025   21.0986 C.3     1  UNL1        0.1109
     53 S           5.9515   -1.1426   22.3634 S.3     1  UNL1       -0.1057
@<TRIPOS>BOND
     1     6     7    2
     2     7     8   am
     3    10     8    1
     4    10    11    1
     5    11    12   ar
     6    12    13   ar
     7    13    14   ar
     8    14    15   ar
     9    15    16   ar
    10    16    17    1
    11    17    18    1
    12    18    19    1
    13    19    20    1
    14     7     5    1
    15     5    22    1
    16    22    23    1
    17    23    24   ar
    18    24    25   ar
    19    25    26   ar
    20    26    27   ar
    21    27    28   ar
    22     5     4    1
    23     4     1    1
    24     1     2    1
    25     1    29    1
    26    29    30    1
    27    30    31    1
    28    31    32    1
    29    32    33    1
    30    33    45    1
    31    45    46    1
    32    46    47    2
    33    47    48    1
    34    48    49    1
    35    49    50    2
    36    50    51    1
    37    51    52    1
    38    52    53    1
    39    33    34    1
    40    34    35    1
    41    35    36    1
    42    36    37    2
    43    36    38   am
    44    38    40    1
    45    40    41    1
    46    41    42    1
    47    41    43    1
    48    41    44    1
    49    19    10    1
    50    28    23   ar
    51    35    30    1
    52    16    11   ar
    53    53    46    1
    54    52    48    1
    55     8     9    1
    56    20    21    1
    57     2     3    1
    58    38    39    1
@<TRIPOS>MOLECULE
*****
 53 58 0 0 0
SMALL
GASTEIGER

@<TRIPOS>ATOM
      1 C           3.4686   -0.6204   30.4274 C.3     1  UNL1        0.1269
      2 O           1.9837   -0.8325   30.4304 O.3     1  UNL1       -0.3830
      3 H           1.6014   -0.4541   29.6233 H       1  UNL1        0.2104
      4 C           4.2995   -1.1169   31.5734 C.3     1  UNL1        0.0401
      5 C           4.2301   -0.4277   32.9039 C.3     1  UNL1        0.0833
      6 O           4.6214    2.1392   32.8148 O.2     1  UNL1       -0.2751
      7 C           3.6977    0.9715   32.9969 C.2     1  UNL1        0.2226
      8 N           2.2414    1.2031   33.2722 N.am    1  UNL1       -0.2999
      9 H           1.6352    0.4367   33.3918 H       1  UNL1        0.1498
     10 C           1.7089    2.6022   33.3653 C.3     1  UNL1        0.1278
     11 C           1.9209    3.4038   34.6154 C.ar    1  UNL1        0.0320
     12 C           2.6654    2.8062   35.7723 C.ar    1  UNL1        0.0004
     13 C           2.8774    3.6077   37.0223 C.ar    1  UNL1       -0.0001
     14 C           2.3449    5.0069   37.1154 C.ar    1  UNL1        0.0031
     15 C           1.6004    5.6045   35.9585 C.ar    1  UNL1        0.0366
     16 C           1.3884    4.8029   34.7085 C.ar    1  UNL1        0.1362
     17 O           0.6439    5.4006   33.5515 O.3     1  UNL1       -0.4730
     18 C           0.4319    4.5991   32.3015 C.3     1  UNL1        0.2364
     19 C           0.9644    3.1998   32.2084 C.3     1  UNL1        0.1762
     20 O           0.7524    2.3983   30.9584 O.3     1  UNL1       -0.3788
     21 H           0.2572    2.9284   30.3145 H       1  UNL1        0.2106
     22 C           4.6933   -1.1378   34.1413 C.3     1  UNL1        0.0371
     23 C           5.4368   -0.3847   35.2043 C.ar    1  UNL1       -0.0025
     24 C           4.7450   -0.0107   36.4816 C.ar    1  UNL1       -0.0011
     25 C           5.4886    0.7425   37.5446 C.ar    1  UNL1        0.0204
     26 C           6.9240    1.1215   37.3303 C.ar    1  UNL1        0.0989
     27 N           7.6158    0.7474   36.0530 N.ar    1  UNL1       -0.2426
     28 C           6.8723   -0.0056   34.9900 C.ar    1  UNL1        0.0946
     29 C           4.1227    0.0881   29.2784 C.3     1  UNL1        0.1021
     30 N           4.5873   -0.6907   28.0835 N.3     1  UNL1       -0.2621
     31 C           5.8137   -1.5492   28.1784 C.3     1  UNL1        0.0901
     32 C           6.2783   -2.3280   26.9836 C.3     1  UNL1        0.0900
     33 N           5.5164   -2.2483   25.6938 N.3     1  UNL1       -0.2657
     34 C           4.2900   -1.3898   25.5990 C.3     1  UNL1        0.0980
     35 C           3.8255   -0.6110   26.7939 C.3     1  UNL1        0.1510
     36 C           2.5991    0.2474   26.6990 C.2     1  UNL1        0.2386
     37 O           2.5611    1.3973   25.7365 O.2     1  UNL1       -0.2736
     38 N           1.4107   -0.0439   27.5668 N.am    1  UNL1       -0.2961
     39 H           1.4356   -0.7986   28.1985 H       1  UNL1        0.1497
     40 C           0.1843    0.8145   27.4719 C.3     1  UNL1        0.1939
     41 C          -1.0171    0.5018   28.3139 C.3     1  UNL1        0.4154
     42 F          -2.2184    0.1891   29.1559 F       1  UNL1       -0.1682
     43 F          -0.4393   -0.8439   28.6385 F       1  UNL1       -0.1682
     44 F          -1.5948    1.8474   27.9894 F       1  UNL1       -0.1682
     45 C           5.9810   -3.0271   24.4990 C.3     1  UNL1        0.1051
     46 C           5.4959   -2.6581   23.1283 C.2     1  UNL1        0.0161
     47 C           4.4137   -3.3556   22.3587 C.2     1  UNL1       -0.0171
     48 C           4.2567   -2.6555   21.0414 C.3     1  UNL1        0.0654
     49 C           3.4909   -2.6539   19.7516 C.2     1  UNL1       -0.0137
     50 C           4.0028   -1.5227   18.9101 C.2     1  UNL1        0.0275
     51 S           5.0850   -0.8251   19.6797 S.3     1  UNL1       -0.1023
     52 C           5.2420   -1.5252   20.9970 C.3     1  UNL1        0.1109
     53 S           6.0078   -1.5269   22.2868 S.3     1  UNL1       -0.1057
@<TRIPOS>BOND
     1     6     7    2
     2     7     8   am
     3    10     8    1
     4    10    11    1
     5    11    12   ar
     6    12    13   ar
     7    13    14   ar
     8    14    15   ar
     9    15    16   ar
    10    16    17    1
    11    17    18    1
    12    18    19    1
    13    19    20    1
    14     7     5    1
    15     5    22    1
    16    22    23    1
    17    23    24   ar
    18    24    25   ar
    19    25    26   ar
    20    26    27   ar
    21    27    28   ar
    22     5     4    1
    23     4     1    1
    24     1     2    1
    25     1    29    1
    26    29    30    1
    27    30    31    1
    28    31    32    1
    29    32    33    1
    30    33    45    1
    31    45    46    1
    32    46    47    2
    33    47    48    1
    34    48    49    1
    35    49    50    2
    36    50    51    1
    37    51    52    1
    38    52    53    1
    39    33    34    1
    40    34    35    1
    41    35    36    1
    42    36    37    2
    43    36    38   am
    44    38    40    1
    45    40    41    1
    46    41    42    1
    47    41    43    1
    48    41    44    1
    49    19    10    1
    50    28    23   ar
    51    35    30    1
    52    16    11   ar
    53    53    46    1
    54    52    48    1
    55     8     9    1
    56    20    21    1
    57     2     3    1
    58    38    39    1
@<TRIPOS>MOLECULE
*****
 53 58 0 0 0
SMALL
GASTEIGER

@<TRIPOS>ATOM
      1 C           3.8861   -0.4821   26.9686 C.3     1  UNL1        0.1269
      2 O           2.7351   -0.4098   26.0095 O.3     1  UNL1       -0.3830
      3 H           1.9200   -0.6782   26.4617 H       1  UNL1        0.2104
      4 C           5.2669   -0.1147   26.5121 C.3     1  UNL1        0.0401
      5 C           6.0307   -1.0408   25.6128 C.3     1  UNL1        0.0833
      6 O           6.4178   -0.5359   23.0938 O.2     1  UNL1       -0.2751
      7 C           5.6220   -1.1996   24.1782 C.2     1  UNL1        0.2226
      8 N           4.4175   -2.0222   23.8282 N.am    1  UNL1       -0.2999
      9 H           3.8952   -2.4579   24.5400 H       1  UNL1        0.1498
     10 C           4.0088   -2.1810   22.3938 C.3     1  UNL1        0.1278
     11 C           3.0120   -1.2373   21.7890 C.ar    1  UNL1        0.0320
     12 C           2.4239   -0.1347   22.6187 C.ar    1  UNL1        0.0004
     13 C           1.4271    0.8091   22.0140 C.ar    1  UNL1       -0.0001
     14 C           1.0184    0.6503   20.5795 C.ar    1  UNL1        0.0031
     15 C           1.6065   -0.4523   19.7498 C.ar    1  UNL1        0.0366
     16 C           2.6033   -1.3961   20.3546 C.ar    1  UNL1        0.1362
     17 O           3.1914   -2.4987   19.5248 O.3     1  UNL1       -0.4730
     18 C           4.1882   -3.4425   20.1296 C.3     1  UNL1        0.2364
     19 C           4.5969   -3.2836   21.5641 C.3     1  UNL1        0.1762
     20 O           5.5937   -4.2274   22.1688 O.3     1  UNL1       -0.3788
     21 H           5.8717   -4.8748   21.5022 H       1  UNL1        0.2106
     22 C           7.2033   -1.8082   26.1479 C.3     1  UNL1        0.0371
     23 C           6.9801   -2.9923   27.0412 C.ar    1  UNL1       -0.0025
     24 C           6.8179   -4.3600   26.4471 C.ar    1  UNL1       -0.0011
     25 C           6.5948   -5.5442   27.3405 C.ar    1  UNL1        0.0204
     26 C           6.5338   -5.3605   28.8279 C.ar    1  UNL1        0.0989
     27 N           6.6960   -3.9928   29.4220 N.ar    1  UNL1       -0.2426
     28 C           6.9191   -2.8087   28.5287 C.ar    1  UNL1        0.0946
     29 C           3.6563   -0.9218   28.3842 C.3     1  UNL1        0.1021
     30 N           3.6865    0.0844   29.4963 N.3     1  UNL1       -0.2621
     31 C           4.9570    0.3233   30.2572 C.3     1  UNL1        0.0901
     32 C           4.9872    1.3295   31.3693 C.3     1  UNL1        0.0900
     33 N           3.7469    2.0966   31.7205 N.3     1  UNL1       -0.2657
     34 C           2.4765    1.8577   30.9596 C.3     1  UNL1        0.0980
     35 C           2.4463    0.8515   29.8475 C.3     1  UNL1        0.1510
     36 C           1.1759    0.6125   29.0867 C.2     1  UNL1        0.2386
     37 O           0.1749   -0.3835   29.5924 O.2     1  UNL1       -0.2736
     38 N           0.9066    1.3696   27.8200 N.am    1  UNL1       -0.2961
     39 H           1.5636    2.0234   27.4881 H       1  UNL1        0.1497
     40 C          -0.3638    1.1307   27.0591 C.3     1  UNL1        0.1939
     41 C          -0.6340    1.8891   25.7934 C.3     1  UNL1        0.4154
     42 F          -0.9042    2.6475   24.5278 F       1  UNL1       -0.1682
     43 F          -1.1571    3.0430   26.5965 F       1  UNL1       -0.1682
     44 F          -0.1109    0.7352   24.9904 F       1  UNL1       -0.1682
     45 C           3.7771    3.1028   32.8326 C.3     1  UNL1        0.1051
     46 C           3.6585    2.6494   34.2576 C.2     1  UNL1        0.0161
     47 C           4.5697    1.6826   34.9540 C.2     1  UNL1       -0.0171
     48 C           4.0823    1.5189   36.3631 C.3     1  UNL1        0.0654
     49 C           4.3441    0.8202   37.6643 C.2     1  UNL1       -0.0137
     50 C           3.2935    1.2541   38.6430 C.2     1  UNL1        0.0275
     51 S           2.3823    2.2210   37.9467 S.3     1  UNL1       -0.1023
     52 C           2.8698    2.3846   36.5376 C.3     1  UNL1        0.1109
     53 S           2.6079    3.0833   35.2363 S.3     1  UNL1       -0.1057
@<TRIPOS>BOND
     1     6     7    2
     2     7     8   am
     3    10     8    1
     4    10    11    1
     5    11    12   ar
     6    12    13   ar
     7    13    14   ar
     8    14    15   ar
     9    15    16   ar
    10    16    17    1
    11    17    18    1
    12    18    19    1
    13    19    20    1
    14     7     5    1
    15     5    22    1
    16    22    23    1
    17    23    24   ar
    18    24    25   ar
    19    25    26   ar
    20    26    27   ar
    21    27    28   ar
    22     5     4    1
    23     4     1    1
    24     1     2    1
    25     1    29    1
    26    29    30    1
    27    30    31    1
    28    31    32    1
    29    32    33    1
    30    33    45    1
    31    45    46    1
    32    46    47    2
    33    47    48    1
    34    48    49    1
    35    49    50    2
    36    50    51    1
    37    51    52    1
    38    52    53    1
    39    33    34    1
    40    34    35    1
    41    35    36    1
    42    36    37    2
    43    36    38   am
    44    38    40    1
    45    40    41    1
    46    41    42    1
    47    41    43    1
    48    41    44    1
    49    19    10    1
    50    28    23   ar
    51    35    30    1
    52    16    11   ar
    53    53    46    1
    54    52    48    1
    55     8     9    1
    56    20    21    1
    57     2     3    1
    58    38    39    1
@<TRIPOS>MOLECULE
*****
 53 58 0 0 0
SMALL
GASTEIGER

@<TRIPOS>ATOM
      1 C           7.1453   -3.3733   26.0756 C.3     1  UNL1        0.1269
      2 O           6.1835   -4.5073   26.2727 O.3     1  UNL1       -0.3830
      3 H           6.1087   -4.7071   27.2190 H       1  UNL1        0.2104
      4 C           7.4379   -2.8696   24.6933 C.3     1  UNL1        0.0401
      5 C           6.3412   -2.8009   23.6723 C.3     1  UNL1        0.0833
      6 O           6.0108   -0.2390   23.3936 O.2     1  UNL1       -0.2751
      7 C           5.4364   -1.6055   23.6229 C.2     1  UNL1        0.2226
      8 N           3.9571   -1.7767   23.8028 N.am    1  UNL1       -0.2999
      9 H           3.5801   -2.6736   23.9533 H       1  UNL1        0.1498
     10 C           3.0522   -0.5814   23.7534 C.3     1  UNL1        0.1278
     11 C           2.3392   -0.2326   22.4806 C.ar    1  UNL1        0.0320
     12 C           2.5310   -1.0791   21.2573 C.ar    1  UNL1        0.0004
     13 C           1.8180   -0.7303   19.9845 C.ar    1  UNL1       -0.0001
     14 C           0.9131    0.4650   19.9351 C.ar    1  UNL1        0.0031
     15 C           0.7213    1.3115   21.1585 C.ar    1  UNL1        0.0366
     16 C           1.4344    0.9627   22.4312 C.ar    1  UNL1        0.1362
     17 O           1.2425    1.8093   23.6546 O.3     1  UNL1       -0.4730
     18 C           1.9555    1.4604   24.9274 C.3     1  UNL1        0.2364
     19 C           2.8604    0.2651   24.9767 C.3     1  UNL1        0.1762
     20 O           3.5735   -0.0837   26.2495 O.3     1  UNL1       -0.3788
     21 H           3.3411    0.5598   26.9371 H       1  UNL1        0.2106
     22 C           6.1493   -3.9274   22.7007 C.3     1  UNL1        0.0371
     23 C           5.8193   -3.6336   21.2673 C.ar    1  UNL1       -0.0025
     24 C           4.5053   -4.0753   20.6945 C.ar    1  UNL1       -0.0011
     25 C           4.1753   -3.7814   19.2610 C.ar    1  UNL1        0.0204
     26 C           5.1593   -3.0458   18.4004 C.ar    1  UNL1        0.0989
     27 N           6.4733   -2.6041   18.9733 N.ar    1  UNL1       -0.2426
     28 C           6.8033   -2.8979   20.4067 C.ar    1  UNL1        0.0946
     29 C           7.8145   -2.7427   27.2609 C.3     1  UNL1        0.1021
     30 N           7.0711   -2.6049   28.5564 N.3     1  UNL1       -0.2621
     31 C           6.2503   -1.3780   28.8233 C.3     1  UNL1        0.0901
     32 C           5.5069   -1.2401   30.1188 C.3     1  UNL1        0.0900
     33 N           5.5843   -2.3292   31.1474 N.3     1  UNL1       -0.2657
     34 C           6.4050   -3.5560   30.8806 C.3     1  UNL1        0.0980
     35 C           7.1484   -3.6938   29.5850 C.3     1  UNL1        0.1510
     36 C           7.9692   -4.9206   29.3181 C.2     1  UNL1        0.2386
     37 O           9.3928   -4.9870   29.7860 O.2     1  UNL1       -0.2736
     38 N           7.3663   -6.0812   28.5834 N.am    1  UNL1       -0.2961
     39 H           6.4319   -6.0376   28.2764 H       1  UNL1        0.1497
     40 C           8.1870   -7.3080   28.3165 C.3     1  UNL1        0.1939
     41 C           8.3529   -7.8086   26.9122 C.3     1  UNL1        0.4154
     42 F           8.5187   -8.3090   25.5080 F       1  UNL1       -0.1682
     43 F           7.9469   -9.1832   27.3542 F       1  UNL1       -0.1682
     44 F           8.7589   -6.4339   26.4702 F       1  UNL1       -0.1682
     45 C           4.8409   -2.1913   32.4430 C.3     1  UNL1        0.1051
     46 C           5.4307   -1.3881   33.5643 C.2     1  UNL1        0.0161
     47 C           4.7372   -1.0144   34.8408 C.2     1  UNL1       -0.0171
     48 C           5.6952   -0.2130   35.6713 C.3     1  UNL1        0.0654
     49 C           5.8588    0.5133   36.9736 C.2     1  UNL1       -0.0137
     50 C           7.2454    1.0838   37.0152 C.2     1  UNL1        0.0275
     51 S           7.9389    0.7101   35.7386 S.3     1  UNL1       -0.1023
     52 C           6.9808   -0.0914   34.9081 C.3     1  UNL1        0.1109
     53 S           6.8173   -0.8176   33.6059 S.3     1  UNL1       -0.1057
@<TRIPOS>BOND
     1     6     7    2
     2     7     8   am
     3    10     8    1
     4    10    11    1
     5    11    12   ar
     6    12    13   ar
     7    13    14   ar
     8    14    15   ar
     9    15    16   ar
    10    16    17    1
    11    17    18    1
    12    18    19    1
    13    19    20    1
    14     7     5    1
    15     5    22    1
    16    22    23    1
    17    23    24   ar
    18    24    25   ar
    19    25    26   ar
    20    26    27   ar
    21    27    28   ar
    22     5     4    1
    23     4     1    1
    24     1     2    1
    25     1    29    1
    26    29    30    1
    27    30    31    1
    28    31    32    1
    29    32    33    1
    30    33    45    1
    31    45    46    1
    32    46    47    2
    33    47    48    1
    34    48    49    1
    35    49    50    2
    36    50    51    1
    37    51    52    1
    38    52    53    1
    39    33    34    1
    40    34    35    1
    41    35    36    1
    42    36    37    2
    43    36    38   am
    44    38    40    1
    45    40    41    1
    46    41    42    1
    47    41    43    1
    48    41    44    1
    49    19    10    1
    50    28    23   ar
    51    35    30    1
    52    16    11   ar
    53    53    46    1
    54    52    48    1
    55     8     9    1
    56    20    21    1
    57     2     3    1
    58    38    39    1
@<TRIPOS>MOLECULE
*****
 53 58 0 0 0
SMALL
GASTEIGER

@<TRIPOS>ATOM
      1 C           1.5774    1.3922   23.0594 C.3     1  UNL1        0.1269
      2 O           2.5611    2.4599   22.6823 O.3     1  UNL1       -0.3830
      3 H           3.2079    2.5705   23.3967 H       1  UNL1        0.2104
      4 C           0.4680    1.0281   22.1177 C.3     1  UNL1        0.0401
      5 C           0.4964    1.5179   20.7002 C.3     1  UNL1        0.0833
      6 O           0.9814    0.4434   18.3849 O.2     1  UNL1       -0.2751
      7 C           1.4652    0.9242   19.7208 C.2     1  UNL1        0.2226
      8 N           2.9178    0.8115   20.0774 N.am    1  UNL1       -0.2999
      9 H           3.2354    1.1271   20.9542 H       1  UNL1        0.1498
     10 C           3.8866    0.2179   19.0982 C.3     1  UNL1        0.1278
     11 C           4.1568   -1.2575   19.1110 C.ar    1  UNL1        0.0320
     12 C           3.4582   -2.1393   20.1031 C.ar    1  UNL1        0.0004
     13 C           3.7284   -3.6147   20.1159 C.ar    1  UNL1       -0.0001
     14 C           4.6971   -4.2083   19.1366 C.ar    1  UNL1        0.0031
     15 C           5.3957   -3.3265   18.1445 C.ar    1  UNL1        0.0366
     16 C           5.1256   -1.8511   18.1317 C.ar    1  UNL1        0.1362
     17 O           5.8242   -0.9693   17.1395 O.3     1  UNL1       -0.4730
     18 C           5.5541    0.5061   17.1267 C.3     1  UNL1        0.2364
     19 C           4.5852    1.0997   18.1061 C.3     1  UNL1        0.1762
     20 O           4.3150    2.5751   18.0933 O.3     1  UNL1       -0.3788
     21 H           4.8437    2.9946   17.3965 H       1  UNL1        0.2106
     22 C          -0.4440    2.6013   20.2620 C.3     1  UNL1        0.0371
     23 C           0.0067    3.6278   19.2656 C.ar    1  UNL1       -0.0025
     24 C          -0.6504    3.7056   17.9194 C.ar    1  UNL1       -0.0011
     25 C          -0.1997    4.7322   16.9229 C.ar    1  UNL1        0.0204
     26 C           0.9082    5.6811   17.2726 C.ar    1  UNL1        0.0989
     27 N           1.5653    5.6033   18.6188 N.ar    1  UNL1       -0.2426
     28 C           1.1146    4.5768   19.6152 C.ar    1  UNL1        0.0946
     29 C           1.7030    0.6885   24.3781 C.3     1  UNL1        0.1021
     30 N           2.9253   -0.1269   24.6797 N.3     1  UNL1       -0.2621
     31 C           3.7194   -0.7305   23.5593 C.3     1  UNL1        0.0901
     32 C           4.9418   -1.5459   23.8609 C.3     1  UNL1        0.0900
     33 N           5.3701   -1.7576   25.2828 N.3     1  UNL1       -0.2657
     34 C           4.5761   -1.1540   26.4031 C.3     1  UNL1        0.0980
     35 C           3.3537   -0.3386   26.1015 C.3     1  UNL1        0.1510
     36 C           2.5596    0.2650   27.2218 C.2     1  UNL1        0.2386
     37 O           2.7052    1.7228   27.5437 O.2     1  UNL1       -0.2736
     38 N           1.6199   -0.5891   28.0202 N.am    1  UNL1       -0.2961
     39 H           1.5243   -1.5459   27.8089 H       1  UNL1        0.1497
     40 C           0.8258    0.0145   29.1405 C.3     1  UNL1        0.1939
     41 C          -0.5971    0.4307   28.9119 C.3     1  UNL1        0.4154
     42 F          -2.0199    0.8469   28.6833 F       1  UNL1       -0.1682
     43 F          -0.1795    1.8712   28.9355 F       1  UNL1       -0.1682
     44 F          -1.0146   -1.0097   28.8883 F       1  UNL1       -0.1682
     45 C           6.5925   -2.5730   25.5844 C.3     1  UNL1        0.1051
     46 C           6.8201   -3.0988   26.9707 C.2     1  UNL1        0.0161
     47 C           7.3719   -2.3216   28.1289 C.2     1  UNL1       -0.0171
     48 C           7.4287   -3.2365   29.3162 C.3     1  UNL1        0.0654
     49 C           7.8049   -3.3216   30.7658 C.2     1  UNL1       -0.0137
     50 C           7.5206   -4.7169   31.2373 C.2     1  UNL1        0.0275
     51 S           6.9687   -5.4941   30.0791 S.3     1  UNL1       -0.1023
     52 C           6.9120   -4.5792   28.8918 C.3     1  UNL1        0.1109
     53 S           6.5358   -4.4941   27.4422 S.3     1  UNL1       -0.1057
@<TRIPOS>BOND
     1     6     7    2
     2     7     8   am
     3    10     8    1
     4    10    11    1
     5    11    12   ar
     6    12    13   ar
     7    13    14   ar
     8    14    15   ar
     9    15    16   ar
    10    16    17    1
    11    17    18    1
    12    18    19    1
    13    19    20    1
    14     7     5    1
    15     5    22    1
    16    22    23    1
    17    23    24   ar
    18    24    25   ar
    19    25    26   ar
    20    26    27   ar
    21    27    28   ar
    22     5     4    1
    23     4     1    1
    24     1     2    1
    25     1    29    1
    26    29    30    1
    27    30    31    1
    28    31    32    1
    29    32    33    1
    30    33    45    1
    31    45    46    1
    32    46    47    2
    33    47    48    1
    34    48    49    1
    35    49    50    2
    36    50    51    1
    37    51    52    1
    38    52    53    1
    39    33    34    1
    40    34    35    1
    41    35    36    1
    42    36    37    2
    43    36    38   am
    44    38    40    1
    45    40    41    1
    46    41    42    1
    47    41    43    1
    48    41    44    1
    49    19    10    1
    50    28    23   ar
    51    35    30    1
    52    16    11   ar
    53    53    46    1
    54    52    48    1
    55     8     9    1
    56    20    21    1
    57     2     3    1
    58    38    39    1
@<TRIPOS>MOLECULE
*****
 53 58 0 0 0
SMALL
GASTEIGER

@<TRIPOS>ATOM
      1 C           5.2883   -1.0876   26.6893 C.3     1  UNL1        0.1269
      2 O           4.2833   -2.0726   26.1700 O.3     1  UNL1       -0.3830
      3 H           3.4402   -1.9492   26.6335 H       1  UNL1        0.2104
      4 C           6.6806   -1.0719   26.1316 C.3     1  UNL1        0.0401
      5 C           7.1264   -2.1571   25.1970 C.3     1  UNL1        0.0833
      6 O           7.4536   -1.3507   22.7490 O.2     1  UNL1       -0.2751
      7 C           6.6831   -2.1419   23.7640 C.2     1  UNL1        0.2226
      8 N           5.4692   -2.9177   23.3462 N.am    1  UNL1       -0.2999
      9 H           4.9635   -3.4370   24.0124 H       1  UNL1        0.1498
     10 C           5.0259   -2.9025   21.9133 C.3     1  UNL1        0.1278
     11 C           3.9162   -1.9905   21.4813 C.ar    1  UNL1        0.0320
     12 C           3.2497   -1.0937   22.4821 C.ar    1  UNL1        0.0004
     13 C           2.1400   -0.1817   22.0500 C.ar    1  UNL1       -0.0001
     14 C           1.6967   -0.1664   20.6171 C.ar    1  UNL1        0.0031
     15 C           2.3631   -1.0632   19.6163 C.ar    1  UNL1        0.0366
     16 C           3.4728   -1.9752   20.0484 C.ar    1  UNL1        0.1362
     17 O           4.1392   -2.8720   19.0475 O.3     1  UNL1       -0.4730
     18 C           5.2490   -3.7840   19.4795 C.3     1  UNL1        0.2364
     19 C           5.6923   -3.7992   20.9125 C.3     1  UNL1        0.1762
     20 O           6.8021   -4.7112   21.3446 O.3     1  UNL1       -0.3788
     21 H           7.1198   -5.2181   20.5810 H       1  UNL1        0.2106
     22 C           8.0155   -3.2577   25.6952 C.3     1  UNL1        0.0371
     23 C           7.7736   -3.8639   27.0457 C.ar    1  UNL1       -0.0025
     24 C           8.7073   -3.5639   28.1807 C.ar    1  UNL1       -0.0011
     25 C           8.4653   -4.1702   29.5313 C.ar    1  UNL1        0.0204
     26 C           7.2897   -5.0765   29.7468 C.ar    1  UNL1        0.0989
     27 N           6.3559   -5.3765   28.6118 N.ar    1  UNL1       -0.2426
     28 C           6.5979   -4.7702   27.2613 C.ar    1  UNL1        0.0946
     29 C           4.9009   -0.1181   27.7665 C.3     1  UNL1        0.1021
     30 N           4.9001   -0.5530   29.2021 N.3     1  UNL1       -0.2621
     31 C           6.1235   -1.1879   29.7941 C.3     1  UNL1        0.0901
     32 C           6.1227   -1.6228   31.2296 C.3     1  UNL1        0.0900
     33 N           4.8985   -1.4228   32.0732 N.3     1  UNL1       -0.2657
     34 C           3.6752   -0.7880   31.4812 C.3     1  UNL1        0.0980
     35 C           3.6760   -0.3531   30.0456 C.3     1  UNL1        0.1510
     36 C           2.4527    0.2817   29.4536 C.2     1  UNL1        0.2386
     37 O           2.3119    1.7750   29.4456 O.2     1  UNL1       -0.2736
     38 N           1.3702   -0.5769   28.8695 N.am    1  UNL1       -0.2961
     39 H           1.4627   -1.5570   28.8747 H       1  UNL1        0.1497
     40 C           0.1469    0.0579   28.2775 C.3     1  UNL1        0.1939
     41 C          -1.1419    0.0625   29.0450 C.3     1  UNL1        0.4154
     42 F          -2.4305    0.0671   29.8126 F       1  UNL1       -0.1682
     43 F          -1.6070   -1.1353   28.2712 F       1  UNL1       -0.1682
     44 F          -0.6767    1.2603   29.8188 F       1  UNL1       -0.1682
     45 C           4.8978   -1.8577   33.5088 C.3     1  UNL1        0.1051
     46 C           5.3591   -0.9131   34.5788 C.2     1  UNL1        0.0161
     47 C           6.7522   -0.3827   34.7460 C.2     1  UNL1       -0.0171
     48 C           6.7624    0.5251   35.9400 C.3     1  UNL1        0.0654
     49 C           7.6297    1.4139   36.7813 C.2     1  UNL1       -0.0137
     50 C           6.7789    1.9940   37.8720 C.2     1  UNL1        0.0275
     51 S           5.3858    1.4636   37.7049 S.3     1  UNL1       -0.1023
     52 C           5.3755    0.5558   36.5108 C.3     1  UNL1        0.1109
     53 S           4.5083   -0.3331   35.6696 S.3     1  UNL1       -0.1057
@<TRIPOS>BOND
     1     6     7    2
     2     7     8   am
     3    10     8    1
     4    10    11    1
     5    11    12   ar
     6    12    13   ar
     7    13    14   ar
     8    14    15   ar
     9    15    16   ar
    10    16    17    1
    11    17    18    1
    12    18    19    1
    13    19    20    1
    14     7     5    1
    15     5    22    1
    16    22    23    1
    17    23    24   ar
    18    24    25   ar
    19    25    26   ar
    20    26    27   ar
    21    27    28   ar
    22     5     4    1
    23     4     1    1
    24     1     2    1
    25     1    29    1
    26    29    30    1
    27    30    31    1
    28    31    32    1
    29    32    33    1
    30    33    45    1
    31    45    46    1
    32    46    47    2
    33    47    48    1
    34    48    49    1
    35    49    50    2
    36    50    51    1
    37    51    52    1
    38    52    53    1
    39    33    34    1
    40    34    35    1
    41    35    36    1
    42    36    37    2
    43    36    38   am
    44    38    40    1
    45    40    41    1
    46    41    42    1
    47    41    43    1
    48    41    44    1
    49    19    10    1
    50    28    23   ar
    51    35    30    1
    52    16    11   ar
    53    53    46    1
    54    52    48    1
    55     8     9    1
    56    20    21    1
    57     2     3    1
    58    38    39    1
@<TRIPOS>MOLECULE
*****
 53 58 0 0 0
SMALL
GASTEIGER

@<TRIPOS>ATOM
      1 C           5.2638    0.1183   27.6854 C.3     1  UNL1        0.1269
      2 O           6.7386    0.3832   27.7545 O.3     1  UNL1       -0.3830
      3 H           7.1737   -0.3349   28.2402 H       1  UNL1        0.2104
      4 C           4.3599    1.0870   26.9822 C.3     1  UNL1        0.0401
      5 C           3.7061    0.6995   25.6890 C.3     1  UNL1        0.0833
      6 O           5.6261    0.3142   23.9816 O.2     1  UNL1       -0.2751
      7 C           4.4257   -0.1947   24.7232 C.2     1  UNL1        0.2226
      8 N           3.9448   -1.5977   24.4991 N.am    1  UNL1       -0.2999
      9 H           3.1569   -1.9317   24.9858 H       1  UNL1        0.1498
     10 C           4.6643   -2.4919   23.5333 C.3     1  UNL1        0.1278
     11 C           4.2826   -2.4905   22.0827 C.ar    1  UNL1        0.0320
     12 C           3.1813   -1.5950   21.5979 C.ar    1  UNL1        0.0004
     13 C           2.7995   -1.5936   20.1473 C.ar    1  UNL1       -0.0001
     14 C           3.5190   -2.4878   19.1815 C.ar    1  UNL1        0.0031
     15 C           4.6203   -3.3833   19.6664 C.ar    1  UNL1        0.0366
     16 C           5.0021   -3.3847   21.1170 C.ar    1  UNL1        0.1362
     17 O           6.1034   -4.2803   21.6018 O.3     1  UNL1       -0.4730
     18 C           6.4852   -4.2817   23.0524 C.3     1  UNL1        0.2364
     19 C           5.7656   -3.3874   24.0182 C.3     1  UNL1        0.1762
     20 O           6.1474   -3.3888   25.4688 O.3     1  UNL1       -0.3788
     21 H           6.8706   -4.0191   25.6122 H       1  UNL1        0.2106
     22 C           2.3328    1.2062   25.3615 C.3     1  UNL1        0.0371
     23 C           2.0040    1.6298   23.9607 C.ar    1  UNL1       -0.0025
     24 C           0.9078    0.9380   23.2057 C.ar    1  UNL1       -0.0011
     25 C           0.5790    1.3617   21.8048 C.ar    1  UNL1        0.0204
     26 C           1.3463    2.4770   21.1590 C.ar    1  UNL1        0.0989
     27 N           2.4424    3.1688   21.9139 N.ar    1  UNL1       -0.2426
     28 C           2.7712    2.7452   23.3147 C.ar    1  UNL1        0.0946
     29 C           4.6929   -1.1155   28.3196 C.3     1  UNL1        0.1021
     30 N           4.6774   -1.2524   29.8132 N.3     1  UNL1       -0.2621
     31 C           5.7811   -1.9917   30.5101 C.3     1  UNL1        0.0901
     32 C           5.7656   -2.1287   32.0037 C.3     1  UNL1        0.0900
     33 N           4.6465   -1.5263   32.8005 N.3     1  UNL1       -0.2657
     34 C           3.5429   -0.7871   32.1037 C.3     1  UNL1        0.0980
     35 C           3.5584   -0.6502   30.6100 C.3     1  UNL1        0.1510
     36 C           2.4548    0.0891   29.9132 C.2     1  UNL1        0.2386
     37 O           2.4376    1.5890   29.9172 O.2     1  UNL1       -0.2736
     38 N           1.3684   -0.6716   29.2123 N.am    1  UNL1       -0.2961
     39 H           1.3797   -1.6560   29.2097 H       1  UNL1        0.1497
     40 C           0.2648    0.0676   28.5155 C.3     1  UNL1        0.1939
     41 C          -1.0970    0.1448   29.1396 C.3     1  UNL1        0.4154
     42 F          -2.4588    0.2218   29.7637 F       1  UNL1       -0.1682
     43 F          -0.6651    1.3413   29.9344 F       1  UNL1       -0.1682
     44 F          -1.5290   -1.0518   28.3448 F       1  UNL1       -0.1682
     45 C           4.6310   -1.6633   34.2942 C.3     1  UNL1        0.1051
     46 C           5.0832   -0.5223   35.1567 C.2     1  UNL1        0.0161
     47 C           4.4745   -0.1104   36.4643 C.2     1  UNL1       -0.0171
     48 C           5.2385    1.0735   36.9788 C.3     1  UNL1        0.0654
     49 C           5.3345    2.0597   38.1049 C.2     1  UNL1       -0.0137
     50 C           6.4746    2.9891   37.8112 C.2     1  UNL1        0.0275
     51 S           7.0833    2.5772   36.5035 S.3     1  UNL1       -0.1023
     52 C           6.3194    1.3933   35.9891 C.3     1  UNL1        0.1109
     53 S           6.2234    0.4070   34.8630 S.3     1  UNL1       -0.1057
@<TRIPOS>BOND
     1     6     7    2
     2     7     8   am
     3    10     8    1
     4    10    11    1
     5    11    12   ar
     6    12    13   ar
     7    13    14   ar
     8    14    15   ar
     9    15    16   ar
    10    16    17    1
    11    17    18    1
    12    18    19    1
    13    19    20    1
    14     7     5    1
    15     5    22    1
    16    22    23    1
    17    23    24   ar
    18    24    25   ar
    19    25    26   ar
    20    26    27   ar
    21    27    28   ar
    22     5     4    1
    23     4     1    1
    24     1     2    1
    25     1    29    1
    26    29    30    1
    27    30    31    1
    28    31    32    1
    29    32    33    1
    30    33    45    1
    31    45    46    1
    32    46    47    2
    33    47    48    1
    34    48    49    1
    35    49    50    2
    36    50    51    1
    37    51    52    1
    38    52    53    1
    39    33    34    1
    40    34    35    1
    41    35    36    1
    42    36    37    2
    43    36    38   am
    44    38    40    1
    45    40    41    1
    46    41    42    1
    47    41    43    1
    48    41    44    1
    49    19    10    1
    50    28    23   ar
    51    35    30    1
    52    16    11   ar
    53    53    46    1
    54    52    48    1
    55     8     9    1
    56    20    21    1
    57     2     3    1
    58    38    39    1
