@<TRIPOS>MOLECULE
*****
 24 25 0 0 0
SMALL
GASTEIGER

@<TRIPOS>ATOM
      1 N           4.3143   -1.7615   19.3795 N.am    1  UNL1       -0.2657
      2 C           4.1534   -1.6052   20.8626 C.2     1  UNL1        0.3071
      3 O           3.1815   -0.6023   21.4100 O.2     1  UNL1       -0.2523
      4 N           4.9645   -2.4517   21.7984 N.am    1  UNL1       -0.2634
      5 C           5.9364   -3.4546   21.2510 C.3     1  UNL1        0.0993
      6 C           6.7474   -4.3011   22.1867 C.3     1  UNL1        0.0442
      7 C           6.5866   -4.1448   23.6698 C.2     1  UNL1       -0.0326
      8 C           7.3976   -4.9913   24.6056 C.2     1  UNL1        0.0412
      9 C           5.6147   -3.1419   24.2172 C.3     1  UNL1        0.0442
     10 C           4.8036   -2.2954   23.2815 C.3     1  UNL1        0.0993
     11 C           5.2862   -2.7644   18.8321 C.3     1  UNL1        0.0769
     12 C           6.7023   -2.3591   18.5486 C.3     1  UNL1        0.0216
     13 C           4.8420   -4.1726   18.5682 C.3     1  UNL1        0.0216
     14 C           3.8656   -0.8461   16.9898 C.3     1  UNL1        0.0233
     15 C           3.5032   -0.9150   18.4438 C.3     1  UNL1        0.0949
     16 C           7.2368   -4.8350   26.0887 C.1     1  UNL1       -0.0583
     17 C           7.0759   -4.6786   27.5718 C.1     1  UNL1       -0.0405
     18 C           6.9150   -4.5223   29.0549 C.ar    1  UNL1        0.1224
     19 C           7.1500   -5.6933   29.9624 C.ar    1  UNL1        0.0276
     20 C           6.9891   -5.5370   31.4455 C.ar    1  UNL1        0.0034
     21 C           6.5933   -4.2096   32.0212 C.ar    1  UNL1        0.0148
     22 C           6.3584   -3.0386   31.1138 C.ar    1  UNL1        0.0600
     23 C           5.9625   -1.7112   31.6895 C.3     1  UNL1        0.0521
     24 N           6.5192   -3.1949   29.6306 N.ar    1  UNL1       -0.2414
@<TRIPOS>BOND
     1    14    15    1
     2    15     1    1
     3     1     2   am
     4     2     3    2
     5     2     4   am
     6     4     5    1
     7     5     6    1
     8     6     7    1
     9     7     8    2
    10     8    16    1
    11    16    17    3
    12    17    18    1
    13    18    19   ar
    14    19    20   ar
    15    20    21   ar
    16    21    22   ar
    17    22    23    1
    18    22    24   ar
    19     7     9    1
    20     9    10    1
    21     1    11    1
    22    11    12    1
    23    11    13    1
    24    10     4    1
    25    24    18   ar
@<TRIPOS>MOLECULE
*****
 24 25 0 0 0
SMALL
GASTEIGER

@<TRIPOS>ATOM
      1 N           2.5244    0.0004   18.7329 N.am    1  UNL1       -0.2657
      2 C           2.6135   -0.7955   20.0012 C.2     1  UNL1        0.3071
      3 O           1.4373   -0.8610   20.9297 O.2     1  UNL1       -0.2523
      4 N           3.8789   -1.5258   20.3410 N.am    1  UNL1       -0.2634
      5 C           5.0551   -1.4602   19.4125 C.3     1  UNL1        0.0993
      6 C           6.3205   -2.1905   19.7524 C.3     1  UNL1        0.0442
      7 C           6.4096   -2.9864   21.0206 C.2     1  UNL1       -0.0326
      8 C           7.6750   -3.7168   21.3604 C.2     1  UNL1        0.0412
      9 C           5.2334   -3.0520   21.9491 C.3     1  UNL1        0.0442
     10 C           3.9680   -2.3217   21.6093 C.3     1  UNL1        0.0993
     11 C           3.7007    0.0660   17.8044 C.3     1  UNL1        0.0769
     12 C           4.7361    1.1370   17.9801 C.3     1  UNL1        0.0216
     13 C           3.8414   -0.9394   16.7001 C.3     1  UNL1        0.0216
     14 C           1.0946    2.1691   18.7860 C.3     1  UNL1        0.0233
     15 C           1.2590    0.7308   18.3931 C.3     1  UNL1        0.0949
     16 C           7.7641   -4.5126   22.6287 C.1     1  UNL1       -0.0583
     17 C           7.8533   -5.3086   23.8971 C.1     1  UNL1       -0.0405
     18 C           7.9424   -6.1045   25.1653 C.ar    1  UNL1        0.1224
     19 C           8.4079   -7.5299   25.1252 C.ar    1  UNL1        0.0276
     20 C           8.4971   -8.3258   26.3935 C.ar    1  UNL1        0.0034
     21 C           8.1206   -7.6963   27.7019 C.ar    1  UNL1        0.0148
     22 C           7.6551   -6.2710   27.7421 C.ar    1  UNL1        0.0600
     23 C           7.2787   -5.6416   29.0506 C.3     1  UNL1        0.0521
     24 N           7.5660   -5.4750   26.4738 N.ar    1  UNL1       -0.2414
@<TRIPOS>BOND
     1    14    15    1
     2    15     1    1
     3     1     2   am
     4     2     3    2
     5     2     4   am
     6     4     5    1
     7     5     6    1
     8     6     7    1
     9     7     8    2
    10     8    16    1
    11    16    17    3
    12    17    18    1
    13    18    19   ar
    14    19    20   ar
    15    20    21   ar
    16    21    22   ar
    17    22    23    1
    18    22    24   ar
    19     7     9    1
    20     9    10    1
    21     1    11    1
    22    11    12    1
    23    11    13    1
    24    10     4    1
    25    24    18   ar
@<TRIPOS>MOLECULE
*****
 24 25 0 0 0
SMALL
GASTEIGER

@<TRIPOS>ATOM
      1 N           4.4433   -1.3600   19.1555 N.am    1  UNL1       -0.2657
      2 C           3.3899   -1.1490   20.2024 C.2     1  UNL1        0.3071
      3 O           3.3725   -2.0074   21.4323 O.2     1  UNL1       -0.2523
      4 N           2.3541   -0.0797   20.0193 N.am    1  UNL1       -0.2634
      5 C           2.3715    0.7787   18.7893 C.3     1  UNL1        0.0993
      6 C           1.3357    1.8480   18.6062 C.3     1  UNL1        0.0442
      7 C           0.2824    2.0590   19.6530 C.2     1  UNL1       -0.0326
      8 C          -0.7535    3.1283   19.4699 C.2     1  UNL1        0.0412
      9 C           0.2649    1.2006   20.8830 C.3     1  UNL1        0.0442
     10 C           1.3007    0.1313   21.0661 C.3     1  UNL1        0.0993
     11 C           4.4608   -0.5016   17.9255 C.3     1  UNL1        0.0769
     12 C           5.2175    0.7935   17.9254 C.3     1  UNL1        0.0216
     13 C           3.7215   -0.9384   16.6955 C.3     1  UNL1        0.0216
     14 C           5.1851   -3.8385   18.9167 C.3     1  UNL1        0.0233
     15 C           5.4791   -2.4293   19.3386 C.3     1  UNL1        0.0949
     16 C          -1.8068    3.3393   20.5168 C.1     1  UNL1       -0.0583
     17 C          -2.8602    3.5502   21.5637 C.1     1  UNL1       -0.0405
     18 C          -3.9135    3.7612   22.6106 C.ar    1  UNL1        0.1224
     19 C          -5.3471    3.9396   22.2068 C.ar    1  UNL1        0.0276
     20 C          -6.4005    4.1506   23.2536 C.ar    1  UNL1        0.0034
     21 C          -6.0203    4.1831   24.7043 C.ar    1  UNL1        0.0148
     22 C          -4.5867    4.0047   25.1081 C.ar    1  UNL1        0.0600
     23 C          -4.2065    4.0373   26.5587 C.3     1  UNL1        0.0521
     24 N          -3.5333    3.7937   24.0612 N.ar    1  UNL1       -0.2414
@<TRIPOS>BOND
     1    14    15    1
     2    15     1    1
     3     1     2   am
     4     2     3    2
     5     2     4   am
     6     4     5    1
     7     5     6    1
     8     6     7    1
     9     7     8    2
    10     8    16    1
    11    16    17    3
    12    17    18    1
    13    18    19   ar
    14    19    20   ar
    15    20    21   ar
    16    21    22   ar
    17    22    23    1
    18    22    24   ar
    19     7     9    1
    20     9    10    1
    21     1    11    1
    22    11    12    1
    23    11    13    1
    24    10     4    1
    25    24    18   ar
@<TRIPOS>MOLECULE
*****
 24 25 0 0 0
SMALL
GASTEIGER

@<TRIPOS>ATOM
      1 N           6.4340   -2.7194   31.5961 N.am    1  UNL1       -0.2657
      2 C           5.9369   -2.3107   30.2412 C.2     1  UNL1        0.3071
      3 O           4.9120   -1.2228   30.1152 O.2     1  UNL1       -0.2523
      4 N           6.4647   -2.9900   29.0124 N.am    1  UNL1       -0.2634
      5 C           7.4895   -4.0779   29.1384 C.3     1  UNL1        0.0993
      6 C           8.0173   -4.7572   27.9095 C.3     1  UNL1        0.0442
      7 C           7.5201   -4.3485   26.5547 C.2     1  UNL1       -0.0326
      8 C           8.0479   -5.0277   25.3258 C.2     1  UNL1        0.0412
      9 C           6.4953   -3.2605   26.4286 C.3     1  UNL1        0.0442
     10 C           5.9675   -2.5813   27.6575 C.3     1  UNL1        0.0993
     11 C           7.4590   -3.8075   31.7222 C.3     1  UNL1        0.0769
     12 C           7.0277   -5.2436   31.7581 C.3     1  UNL1        0.0216
     13 C           8.9152   -3.4592   31.8124 C.3     1  UNL1        0.0216
     14 C           4.5682   -2.4287   33.3805 C.3     1  UNL1        0.0233
     15 C           5.9063   -2.0402   32.8250 C.3     1  UNL1        0.0949
     16 C           7.5508   -4.6190   23.9709 C.1     1  UNL1       -0.0583
     17 C           7.0536   -4.2103   22.6160 C.1     1  UNL1       -0.0405
     18 C           6.5564   -3.8016   21.2611 C.ar    1  UNL1        0.1224
     19 C           7.4051   -2.9318   20.3817 C.ar    1  UNL1        0.0276
     20 C           6.9080   -2.5231   19.0268 C.ar    1  UNL1        0.0034
     21 C           5.5622   -2.9841   18.5512 C.ar    1  UNL1        0.0148
     22 C           4.7135   -3.8539   19.4305 C.ar    1  UNL1        0.0600
     23 C           3.3677   -4.3150   18.9549 C.3     1  UNL1        0.0521
     24 N           5.2106   -4.2627   20.7855 N.ar    1  UNL1       -0.2414
@<TRIPOS>BOND
     1    14    15    1
     2    15     1    1
     3     1     2   am
     4     2     3    2
     5     2     4   am
     6     4     5    1
     7     5     6    1
     8     6     7    1
     9     7     8    2
    10     8    16    1
    11    16    17    3
    12    17    18    1
    13    18    19   ar
    14    19    20   ar
    15    20    21   ar
    16    21    22   ar
    17    22    23    1
    18    22    24   ar
    19     7     9    1
    20     9    10    1
    21     1    11    1
    22    11    12    1
    23    11    13    1
    24    10     4    1
    25    24    18   ar
@<TRIPOS>MOLECULE
*****
 24 25 0 0 0
SMALL
GASTEIGER

@<TRIPOS>ATOM
      1 N         -11.3322   -5.8331   18.4092 N.am    1  UNL1       -0.2657
      2 C         -12.4499   -5.1683   19.1567 C.2     1  UNL1        0.3071
      3 O         -13.2683   -5.9548   20.1373 O.2     1  UNL1       -0.2523
      4 N         -12.7491   -3.7171   18.9236 N.am    1  UNL1       -0.2634
      5 C         -11.9307   -2.9306   17.9430 C.3     1  UNL1        0.0993
      6 C         -12.2299   -1.4794   17.7099 C.3     1  UNL1        0.0442
      7 C         -13.3476   -0.8146   18.4574 C.2     1  UNL1       -0.0326
      8 C         -13.6469    0.6367   18.2243 C.2     1  UNL1        0.0412
      9 C         -14.1661   -1.6011   19.4380 C.3     1  UNL1        0.0442
     10 C         -13.8668   -3.0523   19.6711 C.3     1  UNL1        0.0993
     11 C         -10.5137   -5.0466   17.4285 C.3     1  UNL1        0.0769
     12 C          -9.2981   -4.3012   17.8938 C.3     1  UNL1        0.0216
     13 C         -10.9108   -5.0057   15.9827 C.3     1  UNL1        0.0216
     14 C          -9.6142   -7.7709   18.6180 C.3     1  UNL1        0.0233
     15 C         -11.0329   -7.2844   18.6423 C.3     1  UNL1        0.0949
     16 C         -14.7646    1.3014   18.9718 C.1     1  UNL1       -0.0583
     17 C         -15.8824    1.9663   19.7193 C.1     1  UNL1       -0.0405
     18 C         -17.0000    2.6311   20.4667 C.ar    1  UNL1        0.1224
     19 C         -17.7383    3.7800   19.8461 C.ar    1  UNL1        0.0276
     20 C         -18.8560    4.4447   20.5936 C.ar    1  UNL1        0.0034
     21 C         -19.2355    3.9607   21.9617 C.ar    1  UNL1        0.0148
     22 C         -18.4973    2.8119   22.5823 C.ar    1  UNL1        0.0600
     23 C         -18.8768    2.3278   23.9504 C.3     1  UNL1        0.0521
     24 N         -17.3795    2.1470   21.8348 N.ar    1  UNL1       -0.2414
@<TRIPOS>BOND
     1    14    15    1
     2    15     1    1
     3     1     2   am
     4     2     3    2
     5     2     4   am
     6     4     5    1
     7     5     6    1
     8     6     7    1
     9     7     8    2
    10     8    16    1
    11    16    17    3
    12    17    18    1
    13    18    19   ar
    14    19    20   ar
    15    20    21   ar
    16    21    22   ar
    17    22    23    1
    18    22    24   ar
    19     7     9    1
    20     9    10    1
    21     1    11    1
    22    11    12    1
    23    11    13    1
    24    10     4    1
    25    24    18   ar
@<TRIPOS>MOLECULE
*****
 24 25 0 0 0
SMALL
GASTEIGER

@<TRIPOS>ATOM
      1 N         -11.2071   -6.1130   17.9895 N.am    1  UNL1       -0.2657
      2 C         -11.3491   -4.7790   18.6606 C.2     1  UNL1        0.3071
      3 O         -10.1345   -4.0662   19.1768 O.2     1  UNL1       -0.2523
      4 N         -12.7057   -4.1580   18.8156 N.am    1  UNL1       -0.2634
      5 C         -13.9203   -4.8709   18.2995 C.3     1  UNL1        0.0993
      6 C         -15.2769   -4.2499   18.4544 C.3     1  UNL1        0.0442
      7 C         -15.4189   -2.9160   19.1256 C.2     1  UNL1       -0.0326
      8 C         -16.7754   -2.2950   19.2806 C.2     1  UNL1        0.0412
      9 C         -14.2043   -2.2031   19.6417 C.3     1  UNL1        0.0442
     10 C         -12.8477   -2.8241   19.4868 C.3     1  UNL1        0.0993
     11 C         -12.4218   -6.8259   17.4733 C.3     1  UNL1        0.0769
     12 C         -13.2174   -7.7101   18.3872 C.3     1  UNL1        0.0216
     13 C         -12.8408   -6.6547   16.0432 C.3     1  UNL1        0.0216
     14 C          -9.3591   -7.7248   18.8479 C.3     1  UNL1        0.0233
     15 C          -9.8506   -6.7340   17.8345 C.3     1  UNL1        0.0949
     16 C         -16.9174   -0.9611   19.9517 C.1     1  UNL1       -0.0583
     17 C         -17.0594    0.3729   20.6229 C.1     1  UNL1       -0.0405
     18 C         -17.2014    1.7068   21.2941 C.ar    1  UNL1        0.1224
     19 C         -16.4942    2.9063   20.7360 C.ar    1  UNL1        0.0276
     20 C         -16.6361    4.2402   21.4072 C.ar    1  UNL1        0.0034
     21 C         -17.4853    4.3747   22.6363 C.ar    1  UNL1        0.0148
     22 C         -18.1925    3.1754   23.1944 C.ar    1  UNL1        0.0600
     23 C         -19.0416    3.3100   24.4235 C.3     1  UNL1        0.0521
     24 N         -18.0505    1.8414   22.5232 N.ar    1  UNL1       -0.2414
@<TRIPOS>BOND
     1    14    15    1
     2    15     1    1
     3     1     2   am
     4     2     3    2
     5     2     4   am
     6     4     5    1
     7     5     6    1
     8     6     7    1
     9     7     8    2
    10     8    16    1
    11    16    17    3
    12    17    18    1
    13    18    19   ar
    14    19    20   ar
    15    20    21   ar
    16    21    22   ar
    17    22    23    1
    18    22    24   ar
    19     7     9    1
    20     9    10    1
    21     1    11    1
    22    11    12    1
    23    11    13    1
    24    10     4    1
    25    24    18   ar
@<TRIPOS>MOLECULE
*****
 24 25 0 0 0
SMALL
GASTEIGER

@<TRIPOS>ATOM
      1 N           5.8248   -1.0041   32.2494 N.am    1  UNL1       -0.2657
      2 C           5.1561   -0.7734   30.9267 C.2     1  UNL1        0.3071
      3 O           4.0665    0.2503   30.8057 O.2     1  UNL1       -0.2523
      4 N           5.5771   -1.5663   29.7251 N.am    1  UNL1       -0.2634
      5 C           6.6667   -2.5901   29.8461 C.3     1  UNL1        0.0993
      6 C           7.0876   -3.3830   28.6445 C.3     1  UNL1        0.0442
      7 C           6.4189   -3.1523   27.3218 C.2     1  UNL1       -0.0326
      8 C           6.8399   -3.9453   26.1201 C.2     1  UNL1        0.0412
      9 C           5.3293   -2.1286   27.2007 C.3     1  UNL1        0.0442
     10 C           4.9084   -1.3356   28.4024 C.3     1  UNL1        0.0993
     11 C           6.9145   -2.0278   32.3705 C.3     1  UNL1        0.0769
     12 C           8.3518   -1.5997   32.3463 C.3     1  UNL1        0.0216
     13 C           6.5667   -3.4797   32.5158 C.3     1  UNL1        0.0216
     14 C           4.7033   -0.8906   34.5903 C.3     1  UNL1        0.0233
     15 C           5.4039   -0.2111   33.4511 C.3     1  UNL1        0.0949
     16 C           6.1712   -3.7146   24.7974 C.1     1  UNL1       -0.0583
     17 C           5.5025   -3.4838   23.4746 C.1     1  UNL1       -0.0405
     18 C           4.8338   -3.2531   22.1519 C.ar    1  UNL1        0.1224
     19 C           4.0335   -2.0050   21.9236 C.ar    1  UNL1        0.0276
     20 C           3.3649   -1.7743   20.6009 C.ar    1  UNL1        0.0034
     21 C           3.4964   -2.7916   19.5065 C.ar    1  UNL1        0.0148
     22 C           4.2966   -4.0395   19.7347 C.ar    1  UNL1        0.0600
     23 C           4.4282   -5.0568   18.6402 C.3     1  UNL1        0.0521
     24 N           4.9654   -4.2703   21.0574 N.ar    1  UNL1       -0.2414
@<TRIPOS>BOND
     1    14    15    1
     2    15     1    1
     3     1     2   am
     4     2     3    2
     5     2     4   am
     6     4     5    1
     7     5     6    1
     8     6     7    1
     9     7     8    2
    10     8    16    1
    11    16    17    3
    12    17    18    1
    13    18    19   ar
    14    19    20   ar
    15    20    21   ar
    16    21    22   ar
    17    22    23    1
    18    22    24   ar
    19     7     9    1
    20     9    10    1
    21     1    11    1
    22    11    12    1
    23    11    13    1
    24    10     4    1
    25    24    18   ar
@<TRIPOS>MOLECULE
*****
 24 25 0 0 0
SMALL
GASTEIGER

@<TRIPOS>ATOM
      1 N           7.2281   -3.2965   29.5586 N.am    1  UNL1       -0.2657
      2 C           6.4272   -2.4142   28.6474 C.2     1  UNL1        0.3071
      3 O           5.7880   -1.1672   29.1823 O.2     1  UNL1       -0.2523
      4 N           6.2655   -2.7791   27.2015 N.am    1  UNL1       -0.2634
      5 C           6.9048   -4.0262   26.6667 C.3     1  UNL1        0.0993
      6 C           6.7431   -4.3910   25.2207 C.3     1  UNL1        0.0442
      7 C           5.9422   -3.5088   24.3096 C.2     1  UNL1       -0.0326
      8 C           5.7805   -3.8737   22.8637 C.2     1  UNL1        0.0412
      9 C           5.3029   -2.2617   24.8445 C.3     1  UNL1        0.0442
     10 C           5.4646   -1.8969   26.2904 C.3     1  UNL1        0.0993
     11 C           7.8674   -4.5436   29.0237 C.3     1  UNL1        0.0769
     12 C           9.2682   -4.4985   28.4893 C.3     1  UNL1        0.0216
     13 C           7.1058   -5.8359   29.0234 C.3     1  UNL1        0.0216
     14 C           6.7447   -3.7717   32.0666 C.3     1  UNL1        0.0233
     15 C           7.3898   -2.9316   31.0045 C.3     1  UNL1        0.0949
     16 C           4.9796   -2.9914   21.9526 C.1     1  UNL1       -0.0583
     17 C           4.1786   -2.1092   21.0414 C.1     1  UNL1       -0.0405
     18 C           3.3777   -1.2270   20.1303 C.ar    1  UNL1        0.1224
     19 C           3.8527   -0.9647   18.7319 C.ar    1  UNL1        0.0276
     20 C           3.0518   -0.0824   17.8208 C.ar    1  UNL1        0.0034
     21 C           1.7758    0.5375   18.3080 C.ar    1  UNL1        0.0148
     22 C           1.3007    0.2753   19.7064 C.ar    1  UNL1        0.0600
     23 C           0.0247    0.8953   20.1937 C.3     1  UNL1        0.0521
     24 N           2.1017   -0.6070   20.6176 N.ar    1  UNL1       -0.2414
@<TRIPOS>BOND
     1    14    15    1
     2    15     1    1
     3     1     2   am
     4     2     3    2
     5     2     4   am
     6     4     5    1
     7     5     6    1
     8     6     7    1
     9     7     8    2
    10     8    16    1
    11    16    17    3
    12    17    18    1
    13    18    19   ar
    14    19    20   ar
    15    20    21   ar
    16    21    22   ar
    17    22    23    1
    18    22    24   ar
    19     7     9    1
    20     9    10    1
    21     1    11    1
    22    11    12    1
    23    11    13    1
    24    10     4    1
    25    24    18   ar
@<TRIPOS>MOLECULE
*****
 24 25 0 0 0
SMALL
GASTEIGER

@<TRIPOS>ATOM
      1 N           4.3715   -2.4165   20.2127 N.am    1  UNL1       -0.2657
      2 C           4.7769   -2.8412   21.5930 C.2     1  UNL1        0.3071
      3 O           5.6204   -4.0668   21.7831 O.2     1  UNL1       -0.2523
      4 N           4.3387   -2.0403   22.7831 N.am    1  UNL1       -0.2634
      5 C           3.4951   -0.8146   22.5930 C.3     1  UNL1        0.0993
      6 C           3.0569   -0.0137   23.7831 C.3     1  UNL1        0.0442
      7 C           3.4623   -0.4384   25.1634 C.2     1  UNL1       -0.0326
      8 C           3.0241    0.3626   26.3536 C.2     1  UNL1        0.0412
      9 C           4.3058   -1.6640   25.3536 C.3     1  UNL1        0.0442
     10 C           4.7440   -2.4649   24.1634 C.3     1  UNL1        0.0993
     11 C           3.5279   -1.1908   20.0224 C.3     1  UNL1        0.0769
     12 C           2.0334   -1.2888   20.1046 C.3     1  UNL1        0.0216
     13 C           4.1789    0.1328   19.7501 C.3     1  UNL1        0.0216
     14 C           4.2746   -4.6030   18.8126 C.3     1  UNL1        0.0233
     15 C           4.8097   -3.2174   19.0225 C.3     1  UNL1        0.0949
     16 C           3.4294   -0.0621   27.7339 C.1     1  UNL1       -0.0583
     17 C           3.8348   -0.4868   29.1143 C.1     1  UNL1       -0.0405
     18 C           4.2401   -0.9115   30.4946 C.ar    1  UNL1        0.1224
     19 C           3.5074   -0.3769   31.6893 C.ar    1  UNL1        0.0276
     20 C           3.9127   -0.8016   33.0696 C.ar    1  UNL1        0.0034
     21 C           5.0508   -1.7609   33.2553 C.ar    1  UNL1        0.0148
     22 C           5.7836   -2.2955   32.0606 C.ar    1  UNL1        0.0600
     23 C           6.9217   -3.2548   32.2463 C.3     1  UNL1        0.0521
     24 N           5.3783   -1.8708   30.6802 N.ar    1  UNL1       -0.2414
@<TRIPOS>BOND
     1    14    15    1
     2    15     1    1
     3     1     2   am
     4     2     3    2
     5     2     4   am
     6     4     5    1
     7     5     6    1
     8     6     7    1
     9     7     8    2
    10     8    16    1
    11    16    17    3
    12    17    18    1
    13    18    19   ar
    14    19    20   ar
    15    20    21   ar
    16    21    22   ar
    17    22    23    1
    18    22    24   ar
    19     7     9    1
    20     9    10    1
    21     1    11    1
    22    11    12    1
    23    11    13    1
    24    10     4    1
    25    24    18   ar
