@<TRIPOS>MOLECULE
*****
 41 46 0 0 0
SMALL
GASTEIGER

@<TRIPOS>ATOM
      1 C           5.7663   -2.1403   18.9499 C.2     1  UNL1        0.2252
      2 O           6.1359   -2.7194   17.6165 O.2     1  UNL1       -0.2749
      3 N           4.6783   -1.1121   19.0453 N.am    1  UNL1       -0.2794
      4 C           3.9602   -0.6629   17.8074 C.3     1  UNL1        0.0953
      5 C           2.8723    0.3654   17.9028 C.3     1  UNL1        0.0442
      6 C           2.5025    0.9445   19.2363 C.3     1  UNL1        0.0933
      7 C           3.2207    0.4953   20.4741 C.3     1  UNL1        0.0442
      8 C           4.3086   -0.5330   20.3787 C.3     1  UNL1        0.0953
      9 N           1.4146    1.9728   19.3317 N.ar    1  UNL1       -0.2814
     10 C           0.0728    1.7797   19.9739 C.ar    1  UNL1        0.3365
     11 O          -0.4167    0.5245   20.6333 O.2     1  UNL1       -0.2459
     12 N          -0.6936    3.0623   19.8407 N.ar    1  UNL1       -0.2432
     13 C           0.1746    4.0480   19.1164 C.ar    1  UNL1        0.0877
     14 C          -0.0530    5.4717   18.7026 C.ar    1  UNL1        0.0488
     15 C           1.0223    6.2220   17.9742 C.ar    1  UNL1        0.1417
     16 F           0.7948    7.6458   17.5604 F       1  UNL1       -0.2041
     17 C           2.3253    5.5486   17.6596 C.ar    1  UNL1        0.0312
     18 C           2.5528    4.1250   18.0734 C.ar    1  UNL1        0.0211
     19 C           1.4775    3.3746   18.8018 C.ar    1  UNL1        0.0801
     20 C          -2.0840    3.3148   20.3437 C.ar    1  UNL1        0.1511
     21 C          -3.1854    3.6327   19.3762 C.ar    1  UNL1        0.0375
     22 C          -4.5758    3.8852   19.8792 C.ar    1  UNL1        0.0047
     23 C          -4.8649    3.8199   21.3496 C.ar    1  UNL1        0.0208
     24 C          -3.7635    3.5021   22.3170 C.ar    1  UNL1        0.1005
     25 N          -2.3731    3.2496   21.8141 N.ar    1  UNL1       -0.2263
     26 N           7.9208   -3.4878   22.6637 N.3     1  UNL1       -0.2689
     27 C           6.5358   -3.9877   22.3770 C.3     1  UNL1        0.0729
     28 C           5.8176   -3.5386   21.1390 C.3     1  UNL1        0.0264
     29 C           6.4844   -2.5895   20.1878 C.3     1  UNL1        0.0795
     30 C           7.8693   -2.0896   20.4745 C.3     1  UNL1        0.0264
     31 C           8.5875   -2.5388   21.7125 C.3     1  UNL1        0.0729
     32 C           8.6389   -3.9370   23.9016 C.3     1  UNL1        0.0993
     33 N           5.7449   -5.8217   27.7839 N.pl3   1  UNL1       -0.3426
     34 C           6.6740   -6.0476   26.6281 C.ar    1  UNL1        0.1251
     35 C           7.1919   -4.8793   25.8427 C.ar    1  UNL1        0.0310
     36 C           8.1211   -5.1053   24.6870 C.ar    1  UNL1       -0.0018
     37 C           8.5323   -6.4994   24.3167 C.ar    1  UNL1        0.0179
     38 C           8.0143   -7.6677   25.1021 C.ar    1  UNL1        0.1000
     39 N           7.0852   -7.4418   26.2579 N.ar    1  UNL1       -0.2296
     40 H           5.4749   -4.9067   28.0270 H       1  UNL1        0.1437
     41 H           5.4050   -6.5885   28.2994 H       1  UNL1        0.1437
@<TRIPOS>BOND
     1    33    34    1
     2    34    35   ar
     3    35    36   ar
     4    36    32    1
     5    32    26    1
     6    26    27    1
     7    27    28    1
     8    28    29    1
     9    29     1    1
    10     1     2    2
    11     1     3   am
    12     3     4    1
    13     4     5    1
    14     5     6    1
    15     6     9    1
    16     9    10   ar
    17    10    11    2
    18    10    12   ar
    19    12    20    1
    20    20    21   ar
    21    21    22   ar
    22    22    23   ar
    23    23    24   ar
    24    24    25   ar
    25    12    13   ar
    26    13    14   ar
    27    14    15   ar
    28    15    16    1
    29    15    17   ar
    30    17    18   ar
    31    18    19   ar
    32     6     7    1
    33     7     8    1
    34    29    30    1
    35    30    31    1
    36    36    37   ar
    37    37    38   ar
    38    38    39   ar
    39    39    34   ar
    40    31    26    1
    41     8     3    1
    42    19     9   ar
    43    25    20   ar
    44    19    13   ar
    45    33    40    1
    46    33    41    1
@<TRIPOS>MOLECULE
*****
 41 46 0 0 0
SMALL
GASTEIGER

@<TRIPOS>ATOM
      1 C           6.7506   -4.3077   31.1502 C.2     1  UNL1        0.2252
      2 O           6.8721   -5.6964   31.7038 O.2     1  UNL1       -0.2749
      3 N           6.6597   -4.0966   29.6679 N.am    1  UNL1       -0.2794
      4 C           6.6903   -5.2742   28.7393 C.3     1  UNL1        0.0953
      5 C           6.5994   -5.0632   27.2570 C.3     1  UNL1        0.0442
      6 C           6.4780   -3.6743   26.7032 C.3     1  UNL1        0.0933
      7 C           6.4474   -2.4968   27.6318 C.3     1  UNL1        0.0442
      8 C           6.5383   -2.7079   29.1141 C.3     1  UNL1        0.0953
      9 N           6.3871   -3.4633   25.2209 N.ar    1  UNL1       -0.2814
     10 C           5.3930   -2.5903   24.5140 C.ar    1  UNL1        0.3365
     11 O           4.3153   -1.7752   25.1652 O.2     1  UNL1       -0.2459
     12 N           5.6659   -2.6757   23.0415 N.ar    1  UNL1       -0.2432
     13 C           6.8286   -3.6013   22.8384 C.ar    1  UNL1        0.0877
     14 C           7.5391   -4.0639   21.6010 C.ar    1  UNL1        0.0488
     15 C           8.6953   -5.0132   21.7105 C.ar    1  UNL1        0.1417
     16 F           9.4058   -5.4757   20.4731 F       1  UNL1       -0.2041
     17 C           9.1410   -5.4999   23.0575 C.ar    1  UNL1        0.0312
     18 C           8.4305   -5.0374   24.2950 C.ar    1  UNL1        0.0211
     19 C           7.2743   -4.0881   24.1854 C.ar    1  UNL1        0.0801
     20 C           4.9090   -1.9608   21.9616 C.ar    1  UNL1        0.1511
     21 C           4.0440   -2.7364   21.0127 C.ar    1  UNL1        0.0375
     22 C           3.2871   -2.0216   19.9328 C.ar    1  UNL1        0.0047
     23 C           3.3951   -0.5312   19.8019 C.ar    1  UNL1        0.0208
     24 C           4.2600    0.2443   20.7508 C.ar    1  UNL1        0.1005
     25 N           5.0169   -0.4705   21.8307 N.ar    1  UNL1       -0.2263
     26 N           6.6589   -0.7747   33.9358 N.3     1  UNL1       -0.2689
     27 C           7.9577   -1.2201   33.3318 C.3     1  UNL1        0.0729
     28 C           7.9883   -2.3977   32.4033 C.3     1  UNL1        0.0264
     29 C           6.7200   -3.1300   32.0787 C.3     1  UNL1        0.0795
     30 C           5.4212   -2.6847   32.6826 C.3     1  UNL1        0.0264
     31 C           5.3906   -1.5070   33.6111 C.3     1  UNL1        0.0729
     32 C           6.6283    0.4029   34.8643 C.3     1  UNL1        0.0993
     33 N           3.2169    0.5980   38.7789 N.pl3   1  UNL1       -0.3426
     34 C           3.6168    0.9784   37.3841 C.ar    1  UNL1        0.1251
     35 C           4.9226    0.5005   36.8216 C.ar    1  UNL1        0.0310
     36 C           5.3225    0.8809   35.4268 C.ar    1  UNL1       -0.0018
     37 C           4.4165    1.7392   34.5946 C.ar    1  UNL1        0.0179
     38 C           3.1108    2.2171   35.1571 C.ar    1  UNL1        0.1000
     39 N           2.7109    1.8367   36.5519 N.ar    1  UNL1       -0.2296
     40 H           3.8114    0.0346   39.3252 H       1  UNL1        0.1437
     41 H           2.3598    0.9117   39.1481 H       1  UNL1        0.1437
@<TRIPOS>BOND
     1    33    34    1
     2    34    35   ar
     3    35    36   ar
     4    36    32    1
     5    32    26    1
     6    26    27    1
     7    27    28    1
     8    28    29    1
     9    29     1    1
    10     1     2    2
    11     1     3   am
    12     3     4    1
    13     4     5    1
    14     5     6    1
    15     6     9    1
    16     9    10   ar
    17    10    11    2
    18    10    12   ar
    19    12    20    1
    20    20    21   ar
    21    21    22   ar
    22    22    23   ar
    23    23    24   ar
    24    24    25   ar
    25    12    13   ar
    26    13    14   ar
    27    14    15   ar
    28    15    16    1
    29    15    17   ar
    30    17    18   ar
    31    18    19   ar
    32     6     7    1
    33     7     8    1
    34    29    30    1
    35    30    31    1
    36    36    37   ar
    37    37    38   ar
    38    38    39   ar
    39    39    34   ar
    40    31    26    1
    41     8     3    1
    42    19     9   ar
    43    25    20   ar
    44    19    13   ar
    45    33    40    1
    46    33    41    1
@<TRIPOS>MOLECULE
*****
 41 46 0 0 0
SMALL
GASTEIGER

@<TRIPOS>ATOM
      1 C           1.2210    1.3805   28.7145 C.2     1  UNL1        0.2252
      2 O          -0.0216    2.1080   29.1346 O.2     1  UNL1       -0.2749
      3 N           1.4643    1.0877   27.2636 N.am    1  UNL1       -0.2794
      4 C           0.4649    1.5224   26.2329 C.3     1  UNL1        0.0953
      5 C           0.7082    1.2297   24.7820 C.3     1  UNL1        0.0442
      6 C           1.9509    0.5021   24.3618 C.3     1  UNL1        0.0933
      7 C           2.9502    0.0674   25.3924 C.3     1  UNL1        0.0442
      8 C           2.7069    0.3602   26.8433 C.3     1  UNL1        0.0953
      9 N           2.1942    0.2093   22.9109 N.ar    1  UNL1       -0.2814
     10 C           3.1455   -0.8141   22.3654 C.ar    1  UNL1        0.3365
     11 O           4.0206   -1.7244   23.1750 O.2     1  UNL1       -0.2459
     12 N           3.0681   -0.7673   20.8681 N.ar    1  UNL1       -0.2432
     13 C           2.0689    0.2850   20.4882 C.ar    1  UNL1        0.0877
     14 C           1.5811    0.7715   19.1559 C.ar    1  UNL1        0.0488
     15 C           0.5532    1.8617   19.0860 C.ar    1  UNL1        0.1417
     16 F           0.0653    2.3483   17.7536 F       1  UNL1       -0.2041
     17 C           0.0131    2.4653   20.3485 C.ar    1  UNL1        0.0312
     18 C           0.5009    1.9787   21.6809 C.ar    1  UNL1        0.0211
     19 C           1.5288    0.8886   21.7508 C.ar    1  UNL1        0.0801
     20 C           3.8521   -1.6227   19.9175 C.ar    1  UNL1        0.1511
     21 C           3.5405   -3.0847   19.7925 C.ar    1  UNL1        0.0375
     22 C           4.3246   -3.9401   18.8419 C.ar    1  UNL1        0.0047
     23 C           5.4203   -3.3335   18.0164 C.ar    1  UNL1        0.0208
     24 C           5.7319   -1.8716   18.1415 C.ar    1  UNL1        0.1005
     25 N           4.9478   -1.0162   19.0920 N.ar    1  UNL1       -0.2263
     26 N           4.2191    0.0763   31.8065 N.3     1  UNL1       -0.2689
     27 C           3.1852   -0.8904   31.3096 C.3     1  UNL1        0.0729
     28 C           2.1858   -0.4557   30.2790 C.3     1  UNL1        0.0264
     29 C           2.2204    0.9457   29.7452 C.3     1  UNL1        0.0795
     30 C           3.2542    1.9124   30.2420 C.3     1  UNL1        0.0264
     31 C           4.2535    1.4776   31.2727 C.3     1  UNL1        0.0729
     32 C           5.2184   -0.3585   32.8372 C.3     1  UNL1        0.0993
     33 N           6.4620   -5.3757   32.3068 N.pl3   1  UNL1       -0.3426
     34 C           6.8475   -3.9276   32.2396 C.ar    1  UNL1        0.1251
     35 C           5.8402   -2.8670   32.5720 C.ar    1  UNL1        0.0310
     36 C           6.2257   -1.4190   32.5047 C.ar    1  UNL1       -0.0018
     37 C           7.6186   -1.0315   32.1050 C.ar    1  UNL1        0.0179
     38 C           8.6259   -2.0921   31.7725 C.ar    1  UNL1        0.1000
     39 N           8.2403   -3.5401   31.8398 N.ar    1  UNL1       -0.2296
     40 H           5.5478   -5.6300   32.5692 H       1  UNL1        0.1437
     41 H           7.1231   -6.0717   32.0886 H       1  UNL1        0.1437
@<TRIPOS>BOND
     1    33    34    1
     2    34    35   ar
     3    35    36   ar
     4    36    32    1
     5    32    26    1
     6    26    27    1
     7    27    28    1
     8    28    29    1
     9    29     1    1
    10     1     2    2
    11     1     3   am
    12     3     4    1
    13     4     5    1
    14     5     6    1
    15     6     9    1
    16     9    10   ar
    17    10    11    2
    18    10    12   ar
    19    12    20    1
    20    20    21   ar
    21    21    22   ar
    22    22    23   ar
    23    23    24   ar
    24    24    25   ar
    25    12    13   ar
    26    13    14   ar
    27    14    15   ar
    28    15    16    1
    29    15    17   ar
    30    17    18   ar
    31    18    19   ar
    32     6     7    1
    33     7     8    1
    34    29    30    1
    35    30    31    1
    36    36    37   ar
    37    37    38   ar
    38    38    39   ar
    39    39    34   ar
    40    31    26    1
    41     8     3    1
    42    19     9   ar
    43    25    20   ar
    44    19    13   ar
    45    33    40    1
    46    33    41    1
@<TRIPOS>MOLECULE
*****
 41 46 0 0 0
SMALL
GASTEIGER

@<TRIPOS>ATOM
      1 C          -3.7521    5.0186   18.7446 C.2     1  UNL1        0.2252
      2 O          -4.0982    5.6250   17.4171 O.2     1  UNL1       -0.2749
      3 N          -2.4986    4.2087   18.8952 N.am    1  UNL1       -0.2794
      4 C          -1.5912    4.0053   17.7183 C.3     1  UNL1        0.0953
      5 C          -0.3376    3.1953   17.8689 C.3     1  UNL1        0.0442
      6 C           0.0085    2.5889   19.1965 C.3     1  UNL1        0.0933
      7 C          -0.8989    2.7924   20.3734 C.3     1  UNL1        0.0442
      8 C          -2.1524    3.6023   20.2228 C.3     1  UNL1        0.0953
      9 N           1.2621    1.7790   19.3471 N.ar    1  UNL1       -0.2814
     10 C           1.3639    0.4203   19.9746 C.ar    1  UNL1        0.3365
     11 O           0.2301   -0.3669   20.5616 O.2     1  UNL1       -0.2459
     12 N           2.7987   -0.0127   19.9119 N.ar    1  UNL1       -0.2432
     13 C           3.5835    1.0782   19.2457 C.ar    1  UNL1        0.0877
     14 C           5.0403    1.2063   18.9118 C.ar    1  UNL1        0.0488
     15 C           5.5473    2.4418   18.2289 C.ar    1  UNL1        0.1417
     16 F           7.0041    2.5700   17.8950 F       1  UNL1       -0.2041
     17 C           4.5976    3.5492   17.8798 C.ar    1  UNL1        0.0312
     18 C           3.1409    3.4210   18.2137 C.ar    1  UNL1        0.0211
     19 C           2.6339    2.1856   18.8966 C.ar    1  UNL1        0.0801
     20 C           3.3515   -1.3092   20.4253 C.ar    1  UNL1        0.1511
     21 C           3.5132   -2.4759   19.4964 C.ar    1  UNL1        0.0375
     22 C           4.0660   -3.7724   20.0098 C.ar    1  UNL1        0.0047
     23 C           4.4572   -3.9022   21.4520 C.ar    1  UNL1        0.0208
     24 C           4.2956   -2.7355   22.3809 C.ar    1  UNL1        0.1005
     25 N           3.7427   -1.4391   21.8675 N.ar    1  UNL1       -0.2263
     26 N          -6.4743    5.6290   22.2755 N.3     1  UNL1       -0.2689
     27 C          -6.5897    4.3847   21.4457 C.3     1  UNL1        0.0729
     28 C          -5.6824    4.1812   20.2688 C.3     1  UNL1        0.0264
     29 C          -4.6595    5.2221   19.9216 C.3     1  UNL1        0.0795
     30 C          -4.5441    6.4664   20.7513 C.3     1  UNL1        0.0264
     31 C          -5.4515    6.6698   21.9283 C.3     1  UNL1        0.0729
     32 C          -7.3817    5.8325   23.4524 C.3     1  UNL1        0.0993
     33 N          -3.8808    3.9290   26.7872 N.pl3   1  UNL1       -0.3426
     34 C          -5.0862    4.7789   26.5135 C.ar    1  UNL1        0.1251
     35 C          -5.6313    4.8808   25.1198 C.ar    1  UNL1        0.0310
     36 C          -6.8367    5.7307   24.8462 C.ar    1  UNL1       -0.0018
     37 C          -7.4969    6.4786   25.9663 C.ar    1  UNL1        0.0179
     38 C          -6.9518    6.3767   27.3600 C.ar    1  UNL1        0.1000
     39 N          -5.7464    5.5269   27.6336 N.ar    1  UNL1       -0.2296
     40 H          -3.4474    3.4381   26.0521 H       1  UNL1        0.1437
     41 H          -3.5231    3.8622   27.7020 H       1  UNL1        0.1437
@<TRIPOS>BOND
     1    33    34    1
     2    34    35   ar
     3    35    36   ar
     4    36    32    1
     5    32    26    1
     6    26    27    1
     7    27    28    1
     8    28    29    1
     9    29     1    1
    10     1     2    2
    11     1     3   am
    12     3     4    1
    13     4     5    1
    14     5     6    1
    15     6     9    1
    16     9    10   ar
    17    10    11    2
    18    10    12   ar
    19    12    20    1
    20    20    21   ar
    21    21    22   ar
    22    22    23   ar
    23    23    24   ar
    24    24    25   ar
    25    12    13   ar
    26    13    14   ar
    27    14    15   ar
    28    15    16    1
    29    15    17   ar
    30    17    18   ar
    31    18    19   ar
    32     6     7    1
    33     7     8    1
    34    29    30    1
    35    30    31    1
    36    36    37   ar
    37    37    38   ar
    38    38    39   ar
    39    39    34   ar
    40    31    26    1
    41     8     3    1
    42    19     9   ar
    43    25    20   ar
    44    19    13   ar
    45    33    40    1
    46    33    41    1
@<TRIPOS>MOLECULE
*****
 41 46 0 0 0
SMALL
GASTEIGER

@<TRIPOS>ATOM
      1 C           3.3198   -0.1992   30.6742 C.2     1  UNL1        0.2252
      2 O           1.8893    0.2425   30.5822 O.2     1  UNL1       -0.2749
      3 N           3.9939   -0.8113   29.4821 N.am    1  UNL1       -0.2794
      4 C           3.2374   -0.9816   28.1981 C.3     1  UNL1        0.0953
      5 C           3.9114   -1.5936   27.0060 C.3     1  UNL1        0.0442
      6 C           5.3420   -2.0354   27.0979 C.3     1  UNL1        0.0933
      7 C           6.0984   -1.8650   28.3819 C.3     1  UNL1        0.0442
      8 C           5.4244   -1.2530   29.5740 C.3     1  UNL1        0.0953
      9 N           6.0160   -2.6474   25.9058 N.ar    1  UNL1       -0.2814
     10 C           6.2457   -1.9787   24.5829 C.ar    1  UNL1        0.3365
     11 O           5.8416   -0.5805   24.2198 O.2     1  UNL1       -0.2459
     12 N           6.9503   -2.9537   23.6869 N.ar    1  UNL1       -0.2432
     13 C           7.1562   -4.2249   24.4560 C.ar    1  UNL1        0.0877
     14 C           7.7948   -5.5304   24.0847 C.ar    1  UNL1        0.0488
     15 C           7.8560   -6.6466   25.0849 C.ar    1  UNL1        0.1417
     16 F           8.4946   -7.9521   24.7136 F       1  UNL1       -0.2041
     17 C           7.2786   -6.4573   26.4563 C.ar    1  UNL1        0.0312
     18 C           6.6399   -5.1519   26.8275 C.ar    1  UNL1        0.0211
     19 C           6.5787   -4.0357   25.8274 C.ar    1  UNL1        0.0801
     20 C           7.3747   -2.7016   22.2704 C.ar    1  UNL1        0.1511
     21 C           6.3814   -2.8371   21.1545 C.ar    1  UNL1        0.0375
     22 C           6.8057   -2.5851   19.7380 C.ar    1  UNL1        0.0047
     23 C           8.2232   -2.1976   19.4374 C.ar    1  UNL1        0.0208
     24 C           9.2164   -2.0621   20.5532 C.ar    1  UNL1        0.1005
     25 N           8.7921   -2.3141   21.9697 N.ar    1  UNL1       -0.2263
     26 N           5.5893    0.3118   34.5262 N.3     1  UNL1       -0.2689
     27 C           4.9782   -1.0153   34.1861 C.3     1  UNL1        0.0729
     28 C           4.2217   -1.1856   32.9021 C.3     1  UNL1        0.0264
     29 C           4.0763   -0.0289   31.9582 C.3     1  UNL1        0.0795
     30 C           4.6873    1.2981   32.2983 C.3     1  UNL1        0.0264
     31 C           5.4438    1.4685   33.5823 C.3     1  UNL1        0.0729
     32 C           6.3458    0.4822   35.8102 C.3     1  UNL1        0.0993
     33 N           2.1619    0.6071   38.8890 N.pl3   1  UNL1       -0.3426
     34 C           3.5536    1.0664   38.5691 C.ar    1  UNL1        0.1251
     35 C           4.2539    0.5446   37.3496 C.ar    1  UNL1        0.0310
     36 C           5.6456    1.0039   37.0298 C.ar    1  UNL1       -0.0018
     37 C           6.3369    1.9850   37.9295 C.ar    1  UNL1        0.0179
     38 C           5.6366    2.5068   39.1490 C.ar    1  UNL1        0.1000
     39 N           4.2449    2.0474   39.4688 N.ar    1  UNL1       -0.2296
     40 H           1.7081   -0.0368   38.2985 H       1  UNL1        0.1437
     41 H           1.7023    0.9496   39.6895 H       1  UNL1        0.1437
@<TRIPOS>BOND
     1    33    34    1
     2    34    35   ar
     3    35    36   ar
     4    36    32    1
     5    32    26    1
     6    26    27    1
     7    27    28    1
     8    28    29    1
     9    29     1    1
    10     1     2    2
    11     1     3   am
    12     3     4    1
    13     4     5    1
    14     5     6    1
    15     6     9    1
    16     9    10   ar
    17    10    11    2
    18    10    12   ar
    19    12    20    1
    20    20    21   ar
    21    21    22   ar
    22    22    23   ar
    23    23    24   ar
    24    24    25   ar
    25    12    13   ar
    26    13    14   ar
    27    14    15   ar
    28    15    16    1
    29    15    17   ar
    30    17    18   ar
    31    18    19   ar
    32     6     7    1
    33     7     8    1
    34    29    30    1
    35    30    31    1
    36    36    37   ar
    37    37    38   ar
    38    38    39   ar
    39    39    34   ar
    40    31    26    1
    41     8     3    1
    42    19     9   ar
    43    25    20   ar
    44    19    13   ar
    45    33    40    1
    46    33    41    1
@<TRIPOS>MOLECULE
*****
 41 46 0 0 0
SMALL
GASTEIGER

@<TRIPOS>ATOM
      1 C          -3.2210    4.3858   19.9473 C.2     1  UNL1        0.2252
      2 O          -3.8596    5.0783   18.7801 O.2     1  UNL1       -0.2749
      3 N          -1.9334    3.6387   19.7633 N.am    1  UNL1       -0.2794
      4 C          -1.2844    3.5841   18.4121 C.3     1  UNL1        0.0953
      5 C           0.0032    2.8370   18.2281 C.3     1  UNL1        0.0442
      6 C           0.6419    2.1445   19.3954 C.3     1  UNL1        0.0933
      7 C          -0.0071    2.1991   20.7466 C.3     1  UNL1        0.0442
      8 C          -1.2947    2.9462   20.9306 C.3     1  UNL1        0.0953
      9 N           1.9296    1.3974   19.2114 N.ar    1  UNL1       -0.2814
     10 C           2.1678   -0.0449   19.5475 C.ar    1  UNL1        0.3365
     11 O           1.1603   -0.9934   20.1265 O.2     1  UNL1       -0.2459
     12 N           3.5905   -0.3722   19.2028 N.ar    1  UNL1       -0.2432
     13 C           4.2315    0.8678   18.6538 C.ar    1  UNL1        0.0877
     14 C           5.6173    1.1424   18.1497 C.ar    1  UNL1        0.0488
     15 C           5.9766    2.5106   17.6509 C.ar    1  UNL1        0.1417
     16 F           7.3624    2.7852   17.1468 F       1  UNL1       -0.2041
     17 C           4.9500    3.6043   17.6562 C.ar    1  UNL1        0.0312
     18 C           3.5642    3.3298   18.1603 C.ar    1  UNL1        0.0211
     19 C           3.2050    1.9615   18.6591 C.ar    1  UNL1        0.0801
     20 C           4.2555   -1.7055   19.3767 C.ar    1  UNL1        0.1511
     21 C           3.5830   -2.9498   18.8772 C.ar    1  UNL1        0.0375
     22 C           4.2480   -4.2831   19.0510 C.ar    1  UNL1        0.0047
     23 C           5.5854   -4.3720   19.7243 C.ar    1  UNL1        0.0208
     24 C           6.2579   -3.1277   20.2238 C.ar    1  UNL1        0.1005
     25 N           5.5929   -1.7945   20.0499 N.ar    1  UNL1       -0.2263
     26 N          -5.1679    4.5495   24.0011 N.3     1  UNL1       -0.2689
     27 C          -5.3352    3.3346   23.1372 C.3     1  UNL1        0.0729
     28 C          -4.6862    3.2801   21.7859 C.3     1  UNL1        0.0264
     29 C          -3.8700    4.4404   21.2986 C.3     1  UNL1        0.0795
     30 C          -3.7027    5.6552   22.1624 C.3     1  UNL1        0.0264
     31 C          -4.3516    5.7098   23.5136 C.3     1  UNL1        0.0729
     32 C          -5.8168    4.6041   25.3523 C.3     1  UNL1        0.0993
     33 N         -10.2025    7.0532   24.0224 N.pl3   1  UNL1       -0.3426
     34 C          -9.0591    6.8612   24.9742 C.ar    1  UNL1        0.1251
     35 C          -8.0096    5.8286   24.6874 C.ar    1  UNL1        0.0310
     36 C          -6.8663    5.6367   25.6392 C.ar    1  UNL1       -0.0018
     37 C          -6.7724    6.4775   26.8779 C.ar    1  UNL1        0.0179
     38 C          -7.8219    7.5101   27.1647 C.ar    1  UNL1        0.1000
     39 N          -8.9652    7.7020   26.2129 N.ar    1  UNL1       -0.2296
     40 H         -10.2641    6.5014   23.2094 H       1  UNL1        0.1437
     41 H         -10.8912    7.7309   24.2107 H       1  UNL1        0.1437
@<TRIPOS>BOND
     1    33    34    1
     2    34    35   ar
     3    35    36   ar
     4    36    32    1
     5    32    26    1
     6    26    27    1
     7    27    28    1
     8    28    29    1
     9    29     1    1
    10     1     2    2
    11     1     3   am
    12     3     4    1
    13     4     5    1
    14     5     6    1
    15     6     9    1
    16     9    10   ar
    17    10    11    2
    18    10    12   ar
    19    12    20    1
    20    20    21   ar
    21    21    22   ar
    22    22    23   ar
    23    23    24   ar
    24    24    25   ar
    25    12    13   ar
    26    13    14   ar
    27    14    15   ar
    28    15    16    1
    29    15    17   ar
    30    17    18   ar
    31    18    19   ar
    32     6     7    1
    33     7     8    1
    34    29    30    1
    35    30    31    1
    36    36    37   ar
    37    37    38   ar
    38    38    39   ar
    39    39    34   ar
    40    31    26    1
    41     8     3    1
    42    19     9   ar
    43    25    20   ar
    44    19    13   ar
    45    33    40    1
    46    33    41    1
@<TRIPOS>MOLECULE
*****
 41 46 0 0 0
SMALL
GASTEIGER

@<TRIPOS>ATOM
      1 C           1.1303    1.3484   28.7060 C.2     1  UNL1        0.2252
      2 O          -0.1919    1.9160   29.1297 O.2     1  UNL1       -0.2749
      3 N           1.3932    1.0601   27.2577 N.am    1  UNL1       -0.2794
      4 C           0.3339    1.3394   26.2330 C.3     1  UNL1        0.0953
      5 C           0.5969    1.0511   24.7847 C.3     1  UNL1        0.0442
      6 C           1.9192    0.4835   24.3609 C.3     1  UNL1        0.0933
      7 C           2.9784    0.2042   25.3856 C.3     1  UNL1        0.0442
      8 C           2.7155    0.4925   26.8339 C.3     1  UNL1        0.0953
      9 N           2.1821    0.1952   22.9126 N.ar    1  UNL1       -0.2814
     10 C           3.1465   -0.8211   22.3768 C.ar    1  UNL1        0.3365
     11 O           4.0173   -1.7276   23.1954 O.2     1  UNL1       -0.2459
     12 N           3.0872   -0.7718   20.8788 N.ar    1  UNL1       -0.2432
     13 C           2.0861    0.2750   20.4887 C.ar    1  UNL1        0.0877
     14 C           1.6117    0.7612   19.1514 C.ar    1  UNL1        0.0488
     15 C           0.5779    1.8450   19.0710 C.ar    1  UNL1        0.1417
     16 F           0.1034    2.3312   17.7337 F       1  UNL1       -0.2041
     17 C           0.0185    2.4426   20.3280 C.ar    1  UNL1        0.0312
     18 C           0.4929    1.9564   21.6653 C.ar    1  UNL1        0.0211
     19 C           1.5268    0.8726   21.7457 C.ar    1  UNL1        0.0801
     20 C           3.8883   -1.6203   19.9363 C.ar    1  UNL1        0.1511
     21 C           3.5251   -3.0612   19.7311 C.ar    1  UNL1        0.0375
     22 C           4.3262   -3.9097   18.7886 C.ar    1  UNL1        0.0047
     23 C           5.4904   -3.3174   18.0513 C.ar    1  UNL1        0.0208
     24 C           5.8536   -1.8765   18.2565 C.ar    1  UNL1        0.1005
     25 N           5.0525   -1.0281   19.1990 N.ar    1  UNL1       -0.2263
     26 N           4.3082    0.5106   31.7799 N.3     1  UNL1       -0.2689
     27 C           4.2527    1.8486   31.1040 C.3     1  UNL1        0.0729
     28 C           3.1934    2.1278   30.0793 C.3     1  UNL1        0.0264
     29 C           2.1896    1.0691   29.7307 C.3     1  UNL1        0.0795
     30 C           2.2451   -0.2688   30.4066 C.3     1  UNL1        0.0264
     31 C           3.3044   -0.5481   31.4312 C.3     1  UNL1        0.0729
     32 C           5.3675    0.2313   32.8046 C.3     1  UNL1        0.0993
     33 N           2.4280    2.2849   36.5652 N.pl3   1  UNL1       -0.3426
     34 C           3.6005    1.4503   36.1424 C.ar    1  UNL1        0.1251
     35 C           3.8978    1.2580   34.6848 C.ar    1  UNL1        0.0310
     36 C           5.0703    0.4235   34.2622 C.ar    1  UNL1       -0.0018
     37 C           5.9456   -0.2189   35.2972 C.ar    1  UNL1        0.0179
     38 C           5.6484   -0.0266   36.7548 C.ar    1  UNL1        0.1000
     39 N           4.4758    0.8079   37.1774 N.ar    1  UNL1       -0.2296
     40 H           1.8534    2.7065   35.8859 H       1  UNL1        0.1437
     41 H           2.2329    2.4110   37.5219 H       1  UNL1        0.1437
@<TRIPOS>BOND
     1    33    34    1
     2    34    35   ar
     3    35    36   ar
     4    36    32    1
     5    32    26    1
     6    26    27    1
     7    27    28    1
     8    28    29    1
     9    29     1    1
    10     1     2    2
    11     1     3   am
    12     3     4    1
    13     4     5    1
    14     5     6    1
    15     6     9    1
    16     9    10   ar
    17    10    11    2
    18    10    12   ar
    19    12    20    1
    20    20    21   ar
    21    21    22   ar
    22    22    23   ar
    23    23    24   ar
    24    24    25   ar
    25    12    13   ar
    26    13    14   ar
    27    14    15   ar
    28    15    16    1
    29    15    17   ar
    30    17    18   ar
    31    18    19   ar
    32     6     7    1
    33     7     8    1
    34    29    30    1
    35    30    31    1
    36    36    37   ar
    37    37    38   ar
    38    38    39   ar
    39    39    34   ar
    40    31    26    1
    41     8     3    1
    42    19     9   ar
    43    25    20   ar
    44    19    13   ar
    45    33    40    1
    46    33    41    1
@<TRIPOS>MOLECULE
*****
 41 46 0 0 0
SMALL
GASTEIGER

@<TRIPOS>ATOM
      1 C           4.7011   -1.7025   20.0582 C.2     1  UNL1        0.2252
      2 O           5.3749   -2.0445   18.7625 O.2     1  UNL1       -0.2749
      3 N           5.2017   -2.2936   21.3427 N.am    1  UNL1       -0.2794
      4 C           6.3762   -3.2266   21.3315 C.3     1  UNL1        0.0953
      5 C           6.8769   -3.8176   22.6160 C.3     1  UNL1        0.0442
      6 C           6.2030   -3.4757   23.9118 C.3     1  UNL1        0.0933
      7 C           5.0286   -2.5428   23.9230 C.3     1  UNL1        0.0442
      8 C           4.5279   -1.9517   22.6385 C.3     1  UNL1        0.0953
      9 N           6.7037   -4.0668   25.1963 N.ar    1  UNL1       -0.2814
     10 C           6.5897   -3.4448   26.5566 C.ar    1  UNL1        0.3365
     11 O           5.9550   -2.1227   26.8711 O.2     1  UNL1       -0.2459
     12 N           7.2218   -4.3773   27.5470 N.ar    1  UNL1       -0.2432
     13 C           7.7265   -5.5755   26.7989 C.ar    1  UNL1        0.0877
     14 C           8.4363   -6.8165   27.2529 C.ar    1  UNL1        0.0488
     15 C           8.8259   -7.8655   26.2541 C.ar    1  UNL1        0.1417
     16 F           9.5357   -9.1066   26.7081 F       1  UNL1       -0.2041
     17 C           8.5056   -7.6736   24.8013 C.ar    1  UNL1        0.0312
     18 C           7.7959   -6.4327   24.3473 C.ar    1  UNL1        0.0211
     19 C           7.4063   -5.3836   25.3461 C.ar    1  UNL1        0.0801
     20 C           7.3303   -4.1512   29.0259 C.ar    1  UNL1        0.1511
     21 C           6.8349   -5.1951   29.9825 C.ar    1  UNL1        0.0375
     22 C           6.9433   -4.9691   31.4614 C.ar    1  UNL1        0.0047
     23 C           7.5471   -3.6992   31.9837 C.ar    1  UNL1        0.0208
     24 C           8.0425   -2.6554   31.0272 C.ar    1  UNL1        0.1005
     25 N           7.9341   -2.8815   29.5483 N.ar    1  UNL1       -0.2263
     26 N           1.1776    1.0963   20.0920 N.3     1  UNL1       -0.2689
     27 C           2.5728    1.6471   20.0754 C.3     1  UNL1        0.0729
     28 C           3.7473    0.7141   20.0641 C.3     1  UNL1        0.0264
     29 C           3.5266   -0.7696   20.0695 C.3     1  UNL1        0.0795
     30 C           2.1314   -1.3203   20.0861 C.3     1  UNL1        0.0264
     31 C           0.9570   -0.3874   20.0974 C.3     1  UNL1        0.0729
     32 C           0.0031    2.0293   20.1033 C.3     1  UNL1        0.0993
     33 N           0.3710    2.4599   25.2685 N.pl3   1  UNL1       -0.3426
     34 C          -0.3561    2.7509   23.9891 C.ar    1  UNL1        0.1251
     35 C           0.1870    2.2446   22.6858 C.ar    1  UNL1        0.0310
     36 C          -0.5401    2.5356   21.4065 C.ar    1  UNL1       -0.0018
     37 C          -1.8105    3.3329   21.4305 C.ar    1  UNL1        0.0179
     38 C          -2.3536    3.8392   22.7339 C.ar    1  UNL1        0.1000
     39 N          -1.6264    3.5482   24.0131 N.ar    1  UNL1       -0.2296
     40 H           1.2048    1.9366   25.2528 H       1  UNL1        0.1437
     41 H           0.0144    2.7922   26.1239 H       1  UNL1        0.1437
@<TRIPOS>BOND
     1    33    34    1
     2    34    35   ar
     3    35    36   ar
     4    36    32    1
     5    32    26    1
     6    26    27    1
     7    27    28    1
     8    28    29    1
     9    29     1    1
    10     1     2    2
    11     1     3   am
    12     3     4    1
    13     4     5    1
    14     5     6    1
    15     6     9    1
    16     9    10   ar
    17    10    11    2
    18    10    12   ar
    19    12    20    1
    20    20    21   ar
    21    21    22   ar
    22    22    23   ar
    23    23    24   ar
    24    24    25   ar
    25    12    13   ar
    26    13    14   ar
    27    14    15   ar
    28    15    16    1
    29    15    17   ar
    30    17    18   ar
    31    18    19   ar
    32     6     7    1
    33     7     8    1
    34    29    30    1
    35    30    31    1
    36    36    37   ar
    37    37    38   ar
    38    38    39   ar
    39    39    34   ar
    40    31    26    1
    41     8     3    1
    42    19     9   ar
    43    25    20   ar
    44    19    13   ar
    45    33    40    1
    46    33    41    1
@<TRIPOS>MOLECULE
*****
 41 46 0 0 0
SMALL
GASTEIGER

@<TRIPOS>ATOM
      1 C           0.0505    2.1962   23.0169 C.2     1  UNL1        0.2252
      2 O          -1.2415    2.9413   22.8573 O.2     1  UNL1       -0.2749
      3 N           0.5597    1.8632   24.3880 N.am    1  UNL1       -0.2794
      4 C          -0.2231    2.2753   25.5993 C.3     1  UNL1        0.0953
      5 C           0.2861    1.9424   26.9704 C.3     1  UNL1        0.0442
      6 C           1.5782    1.1972   27.1302 C.3     1  UNL1        0.0933
      7 C           2.3609    0.7851   25.9189 C.3     1  UNL1        0.0442
      8 C           1.8517    1.1181   24.5478 C.3     1  UNL1        0.0953
      9 N           2.0874    0.8642   28.5013 N.ar    1  UNL1       -0.2814
     10 C           2.9902   -0.2810   28.8524 C.ar    1  UNL1        0.3365
     11 O           3.5423   -1.2944   27.8942 O.2     1  UNL1       -0.2459
     12 N           3.2439   -0.2350   30.3301 N.ar    1  UNL1       -0.2432
     13 C           2.4979    0.9388   30.8922 C.ar    1  UNL1        0.0877
     14 C           2.3771    1.4767   32.2871 C.ar    1  UNL1        0.0488
     15 C           1.5416    2.6939   32.5518 C.ar    1  UNL1        0.1417
     16 F           1.4208    3.2319   33.9469 F       1  UNL1       -0.2041
     17 C           0.8268    3.3733   31.4215 C.ar    1  UNL1        0.0312
     18 C           0.9476    2.8354   30.0265 C.ar    1  UNL1        0.0211
     19 C           1.7831    1.6181   29.7619 C.ar    1  UNL1        0.0801
     20 C           4.0943   -1.1942   31.1090 C.ar    1  UNL1        0.1511
     21 C           5.4460   -1.5887   30.5917 C.ar    1  UNL1        0.0375
     22 C           6.2964   -2.5480   31.3706 C.ar    1  UNL1        0.0047
     23 C           5.7952   -3.1127   32.6667 C.ar    1  UNL1        0.0208
     24 C           4.4436   -2.7181   33.1839 C.ar    1  UNL1        0.1005
     25 N           3.5932   -1.7589   32.4050 N.ar    1  UNL1       -0.2263
     26 N           2.3989    0.9597   19.3829 N.3     1  UNL1       -0.2689
     27 C           1.2615    0.1093   19.8660 C.3     1  UNL1        0.0729
     28 C           0.4787    0.5215   21.0774 C.3     1  UNL1        0.0264
     29 C           0.8333    1.7840   21.8056 C.3     1  UNL1        0.0795
     30 C           1.9706    2.6344   21.3225 C.3     1  UNL1        0.0264
     31 C           2.7534    2.2223   20.1112 C.3     1  UNL1        0.0729
     32 C           3.1817    0.5476   18.1716 C.3     1  UNL1        0.0993
     33 N           4.6470   -4.4306   18.4364 N.pl3   1  UNL1       -0.3426
     34 C           4.9974   -2.9721   18.4258 C.ar    1  UNL1        0.1251
     35 C           3.9144   -1.9414   18.3040 C.ar    1  UNL1        0.0310
     36 C           4.2648   -0.4830   18.2933 C.ar    1  UNL1       -0.0018
     37 C           5.6982   -0.0552   18.4044 C.ar    1  UNL1        0.0179
     38 C           6.7811   -1.0858   18.5262 C.ar    1  UNL1        0.1000
     39 N           6.4307   -2.5443   18.5369 N.ar    1  UNL1       -0.2296
     40 H           3.7063   -4.7115   18.3635 H       1  UNL1        0.1437
     41 H           5.3579   -5.1070   18.5163 H       1  UNL1        0.1437
@<TRIPOS>BOND
     1    33    34    1
     2    34    35   ar
     3    35    36   ar
     4    36    32    1
     5    32    26    1
     6    26    27    1
     7    27    28    1
     8    28    29    1
     9    29     1    1
    10     1     2    2
    11     1     3   am
    12     3     4    1
    13     4     5    1
    14     5     6    1
    15     6     9    1
    16     9    10   ar
    17    10    11    2
    18    10    12   ar
    19    12    20    1
    20    20    21   ar
    21    21    22   ar
    22    22    23   ar
    23    23    24   ar
    24    24    25   ar
    25    12    13   ar
    26    13    14   ar
    27    14    15   ar
    28    15    16    1
    29    15    17   ar
    30    17    18   ar
    31    18    19   ar
    32     6     7    1
    33     7     8    1
    34    29    30    1
    35    30    31    1
    36    36    37   ar
    37    37    38   ar
    38    38    39   ar
    39    39    34   ar
    40    31    26    1
    41     8     3    1
    42    19     9   ar
    43    25    20   ar
    44    19    13   ar
    45    33    40    1
    46    33    41    1
