@<TRIPOS>MOLECULE
*****
 20 22 0 0 0
SMALL
GASTEIGER

@<TRIPOS>ATOM
      1 C          -9.1515  -17.2055   24.2505 C.2     1  UNL1        0.0376
      2 C          -9.6532  -18.1825   25.2721 C.2     1  UNL1        0.0999
      3 N         -10.9908  -18.6847   24.8153 N.2     1  UNL1       -0.2478
      4 C         -11.3157  -18.0182   23.5114 C.2     1  UNL1        0.0634
      5 C         -12.4998  -18.1256   22.5969 C.3     1  UNL1        0.0719
      6 C         -12.5470  -17.3187   21.3333 C.2     1  UNL1       -0.0153
      7 C         -11.4103  -16.4044   20.9842 C.2     1  UNL1        0.0493
      8 C         -10.2262  -16.2970   21.8988 C.2     1  UNL1        0.0055
      9 C         -10.1789  -17.1039   23.1623 C.2     1  UNL1        0.0170
     10 C          -6.4780  -17.8789   22.5046 C.3     1  UNL1        0.1320
     11 N          -6.6218  -16.7702   23.5046 N.ar    1  UNL1       -0.3069
     12 C          -5.5619  -15.7765   23.8777 C.ar    1  UNL1        0.1786
     13 N          -6.1358  -14.8528   24.9108 N.ar    1  UNL1       -0.2223
     14 C          -7.5503  -15.2756   25.1762 C.ar    1  UNL1        0.1178
     15 C          -7.8506  -16.4607   24.3071 C.ar    1  UNL1        0.0820
     16 C         -11.4576  -15.5976   19.7206 C.2     1  UNL1        0.2424
     17 N         -12.6946  -15.6045   18.8722 N.am    1  UNL1       -0.3253
     18 O         -10.2679  -14.7838   19.3054 O.2     1  UNL1       -0.2704
     19 H         -13.4754  -16.1386   19.1447 H       1  UNL1        0.1453
     20 H         -12.7256  -15.0749   18.0428 H       1  UNL1        0.1453
@<TRIPOS>BOND
     1    10    11    1
     2    11    12   ar
     3    12    13   ar
     4    13    14   ar
     5    14    15   ar
     6    15     1    1
     7     1     2    2
     8     2     3    1
     9     3     4    2
    10     4     5    1
    11     5     6    1
    12     6     7    2
    13     7    16    1
    14    16    17   am
    15    16    18    2
    16     7     8    1
    17     8     9    2
    18    15    11   ar
    19     9     1    1
    20     9     4    1
    21    17    19    1
    22    17    20    1
@<TRIPOS>MOLECULE
*****
 20 22 0 0 0
SMALL
GASTEIGER

@<TRIPOS>ATOM
      1 C          -8.6484  -19.2680   22.3626 C.2     1  UNL1        0.0376
      2 C          -9.0044  -20.1646   23.5113 C.2     1  UNL1        0.0999
      3 N         -10.4500  -19.9404   23.8433 N.2     1  UNL1       -0.2478
      4 C         -10.9873  -18.9054   22.8999 C.2     1  UNL1        0.0634
      5 C         -12.3465  -18.2877   22.7560 C.3     1  UNL1        0.0719
      6 C         -12.5923  -17.2544   21.6968 C.2     1  UNL1       -0.0153
      7 C         -11.4789  -16.8388   20.7817 C.2     1  UNL1        0.0493
      8 C         -10.1196  -17.4565   20.9256 C.2     1  UNL1        0.0055
      9 C          -9.8738  -18.4898   21.9848 C.2     1  UNL1        0.0170
     10 C          -7.9892  -19.9010   19.2299 C.3     1  UNL1        0.1320
     11 N          -7.0000  -19.4583   20.2670 N.ar    1  UNL1       -0.3069
     12 C          -5.5342  -19.2288   20.0461 C.ar    1  UNL1        0.1786
     13 N          -4.9313  -18.7960   21.3496 N.ar    1  UNL1       -0.2223
     14 C          -6.0245  -18.7580   22.3761 C.ar    1  UNL1        0.1178
     15 C          -7.3031  -19.1674   21.7069 C.ar    1  UNL1        0.0820
     16 C         -11.7247  -15.8054   19.7225 C.2     1  UNL1        0.2424
     17 N         -13.1272  -15.4872   19.2963 N.am    1  UNL1       -0.3253
     18 O         -10.5680  -15.0903   19.0896 O.2     1  UNL1       -0.2704
     19 H         -13.8864  -15.9566   19.7117 H       1  UNL1        0.1453
     20 H         -13.2886  -14.8090   18.6012 H       1  UNL1        0.1453
@<TRIPOS>BOND
     1    10    11    1
     2    11    12   ar
     3    12    13   ar
     4    13    14   ar
     5    14    15   ar
     6    15     1    1
     7     1     2    2
     8     2     3    1
     9     3     4    2
    10     4     5    1
    11     5     6    1
    12     6     7    2
    13     7    16    1
    14    16    17   am
    15    16    18    2
    16     7     8    1
    17     8     9    2
    18    15    11   ar
    19     9     1    1
    20     9     4    1
    21    17    19    1
    22    17    20    1
@<TRIPOS>MOLECULE
*****
 20 22 0 0 0
SMALL
GASTEIGER

@<TRIPOS>ATOM
      1 C          -7.2365  -19.3894   21.4956 C.2     1  UNL1        0.0376
      2 C          -6.2535  -20.3814   20.9482 C.2     1  UNL1        0.0999
      3 N          -4.8842  -19.9809   21.4114 N.2     1  UNL1       -0.2478
      4 C          -5.0209  -18.7414   22.2450 C.2     1  UNL1        0.0634
      5 C          -4.0093  -17.8984   22.9634 C.3     1  UNL1        0.0719
      6 C          -4.4517  -16.6899   23.7339 C.2     1  UNL1       -0.0153
      7 C          -5.9055  -16.3243   23.7859 C.2     1  UNL1        0.0493
      8 C          -6.9170  -17.1673   23.0675 C.2     1  UNL1        0.0055
      9 C          -6.4747  -18.3758   22.2971 C.2     1  UNL1        0.0170
     10 C          -9.4963  -20.0437   23.7571 C.3     1  UNL1        0.1320
     11 N          -9.7594  -19.7085   22.3189 N.ar    1  UNL1       -0.3069
     12 C         -11.1075  -19.6152   21.6679 C.ar    1  UNL1        0.1786
     13 N         -10.9019  -19.2567   20.2259 N.ar    1  UNL1       -0.2223
     14 C          -9.4268  -19.1286   19.9858 C.ar    1  UNL1        0.1178
     15 C          -8.7207  -19.4078   21.2795 C.ar    1  UNL1        0.0820
     16 C          -6.3478  -15.1156   24.5565 C.2     1  UNL1        0.2424
     17 N          -7.6116  -14.4037   24.1744 N.am    1  UNL1       -0.3253
     18 O          -5.5263  -14.6190   25.7090 O.2     1  UNL1       -0.2704
     19 H          -8.1508  -14.7297   23.4179 H       1  UNL1        0.1453
     20 H          -7.9019  -13.6105   24.6801 H       1  UNL1        0.1453
@<TRIPOS>BOND
     1    10    11    1
     2    11    12   ar
     3    12    13   ar
     4    13    14   ar
     5    14    15   ar
     6    15     1    1
     7     1     2    2
     8     2     3    1
     9     3     4    2
    10     4     5    1
    11     5     6    1
    12     6     7    2
    13     7    16    1
    14    16    17   am
    15    16    18    2
    16     7     8    1
    17     8     9    2
    18    15    11   ar
    19     9     1    1
    20     9     4    1
    21    17    19    1
    22    17    20    1
@<TRIPOS>MOLECULE
*****
 20 22 0 0 0
SMALL
GASTEIGER

@<TRIPOS>ATOM
      1 C          -7.9183  -17.9125   22.2981 C.2     1  UNL1        0.0376
      2 C          -9.0858  -18.4571   21.5298 C.2     1  UNL1        0.0999
      3 N          -8.5707  -19.4968   20.5792 N.2     1  UNL1       -0.2478
      4 C          -7.0849  -19.5948   20.7599 C.2     1  UNL1        0.0634
      5 C          -6.0470  -20.4491   20.0944 C.3     1  UNL1        0.0719
      6 C          -4.6059  -20.3242   20.4913 C.2     1  UNL1       -0.0153
      7 C          -4.2026  -19.3451   21.5537 C.2     1  UNL1        0.0493
      8 C          -5.2405  -18.4908   22.2192 C.2     1  UNL1        0.0055
      9 C          -6.6816  -18.6156   21.8223 C.2     1  UNL1        0.0170
     10 C          -9.7032  -18.0223   25.0278 C.3     1  UNL1        0.1320
     11 N          -8.7974  -16.9015   24.6111 N.ar    1  UNL1       -0.3069
     12 C          -8.5532  -15.6346   25.3760 C.ar    1  UNL1        0.1786
     13 N          -7.5817  -14.8011   24.5939 N.ar    1  UNL1       -0.2223
     14 C          -7.2256  -15.5529   23.3458 C.ar    1  UNL1        0.1178
     15 C          -7.9770  -16.8511   23.3564 C.ar    1  UNL1        0.0820
     16 C          -2.7614  -19.2202   21.9506 C.2     1  UNL1        0.2424
     17 N          -2.2992  -18.0257   22.7312 N.am    1  UNL1       -0.3253
     18 O          -1.7825  -20.2900   21.5668 O.2     1  UNL1       -0.2704
     19 H          -2.9418  -17.3236   22.9831 H       1  UNL1        0.1453
     20 H          -1.3534  -17.9438   22.9917 H       1  UNL1        0.1453
@<TRIPOS>BOND
     1    10    11    1
     2    11    12   ar
     3    12    13   ar
     4    13    14   ar
     5    14    15   ar
     6    15     1    1
     7     1     2    2
     8     2     3    1
     9     3     4    2
    10     4     5    1
    11     5     6    1
    12     6     7    2
    13     7    16    1
    14    16    17   am
    15    16    18    2
    16     7     8    1
    17     8     9    2
    18    15    11   ar
    19     9     1    1
    20     9     4    1
    21    17    19    1
    22    17    20    1
@<TRIPOS>MOLECULE
*****
 20 22 0 0 0
SMALL
GASTEIGER

@<TRIPOS>ATOM
      1 C          -8.0676  -17.7897   22.7805 C.2     1  UNL1        0.0376
      2 C          -8.3043  -16.6010   23.6643 C.2     1  UNL1        0.0999
      3 N          -6.9688  -16.0531   24.0717 N.2     1  UNL1       -0.2478
      4 C          -5.9066  -16.9030   23.4397 C.2     1  UNL1        0.0634
      5 C          -4.4088  -16.8383   23.4878 C.3     1  UNL1        0.0719
      6 C          -3.5901  -17.8469   22.7379 C.2     1  UNL1       -0.0153
      7 C          -4.2692  -18.9202   21.9399 C.2     1  UNL1        0.0493
      8 C          -5.7670  -18.9849   21.8918 C.2     1  UNL1        0.0055
      9 C          -6.5857  -17.9763   22.6417 C.2     1  UNL1        0.0170
     10 C         -10.1194  -19.7831   24.3507 C.3     1  UNL1        0.1320
     11 N         -10.0698  -19.5583   22.8685 N.ar    1  UNL1       -0.3069
     12 C         -10.9548  -20.2104   21.8478 C.ar    1  UNL1        0.1786
     13 N         -10.5584  -19.6971   20.4952 N.ar    1  UNL1       -0.2223
     14 C          -9.4287  -18.7278   20.6800 C.ar    1  UNL1        0.1178
     15 C          -9.1267  -18.6421   22.1468 C.ar    1  UNL1        0.0820
     16 C          -3.4504  -19.9288   21.1899 C.2     1  UNL1        0.2424
     17 N          -4.0418  -20.6514   20.0160 N.am    1  UNL1       -0.3253
     18 O          -2.0404  -20.2148   21.6140 O.2     1  UNL1       -0.2704
     19 H          -4.9673  -20.4636   19.7377 H       1  UNL1        0.1453
     20 H          -3.5044  -21.3133   19.5238 H       1  UNL1        0.1453
@<TRIPOS>BOND
     1    10    11    1
     2    11    12   ar
     3    12    13   ar
     4    13    14   ar
     5    14    15   ar
     6    15     1    1
     7     1     2    2
     8     2     3    1
     9     3     4    2
    10     4     5    1
    11     5     6    1
    12     6     7    2
    13     7    16    1
    14    16    17   am
    15    16    18    2
    16     7     8    1
    17     8     9    2
    18    15    11   ar
    19     9     1    1
    20     9     4    1
    21    17    19    1
    22    17    20    1
@<TRIPOS>MOLECULE
*****
 20 22 0 0 0
SMALL
GASTEIGER

@<TRIPOS>ATOM
      1 C          -8.4937  -16.5380   23.7816 C.2     1  UNL1        0.0376
      2 C          -9.9670  -16.3123   23.9499 C.2     1  UNL1        0.0999
      3 N         -10.6811  -17.1106   22.8997 N.2     1  UNL1       -0.2478
      4 C          -9.6491  -17.8296   22.0824 C.2     1  UNL1        0.0634
      5 C          -9.7657  -18.7609   20.9123 C.3     1  UNL1        0.0719
      6 C          -8.5304  -19.3382   20.2873 C.2     1  UNL1       -0.0153
      7 C          -7.1785  -18.9843   20.8323 C.2     1  UNL1        0.0493
      8 C          -7.0619  -18.0530   22.0024 C.2     1  UNL1        0.0055
      9 C          -8.2971  -17.4757   22.6275 C.2     1  UNL1        0.0170
     10 C          -8.3813  -16.5044   27.0428 C.3     1  UNL1        0.1320
     11 N          -7.3558  -15.9168   26.1192 N.ar    1  UNL1       -0.3069
     12 C          -6.0986  -15.2106   26.5326 C.ar    1  UNL1        0.1786
     13 N          -5.3733  -14.7896   25.2889 N.ar    1  UNL1       -0.2223
     14 C          -6.1822  -15.2356   24.1070 C.ar    1  UNL1        0.1178
     15 C          -7.4075  -15.9322   24.6202 C.ar    1  UNL1        0.0820
     16 C          -5.9432  -19.5617   20.2072 C.2     1  UNL1        0.2424
     17 N          -4.9427  -18.6579   19.5498 N.am    1  UNL1       -0.3253
     18 O          -5.7084  -21.0428   20.2397 O.2     1  UNL1       -0.2704
     19 H          -5.0968  -17.6858   19.5285 H       1  UNL1        0.1453
     20 H          -4.1320  -19.0369   19.1395 H       1  UNL1        0.1453
@<TRIPOS>BOND
     1    10    11    1
     2    11    12   ar
     3    12    13   ar
     4    13    14   ar
     5    14    15   ar
     6    15     1    1
     7     1     2    2
     8     2     3    1
     9     3     4    2
    10     4     5    1
    11     5     6    1
    12     6     7    2
    13     7    16    1
    14    16    17   am
    15    16    18    2
    16     7     8    1
    17     8     9    2
    18    15    11   ar
    19     9     1    1
    20     9     4    1
    21    17    19    1
    22    17    20    1
@<TRIPOS>MOLECULE
*****
 20 22 0 0 0
SMALL
GASTEIGER

@<TRIPOS>ATOM
      1 C          -7.2256  -17.7615   22.4813 C.2     1  UNL1        0.0376
      2 C          -6.1691  -18.7659   22.1278 C.2     1  UNL1        0.0999
      3 N          -6.6990  -19.6252   21.0184 N.2     1  UNL1       -0.2478
      4 C          -8.0831  -19.1519   20.6862 C.2     1  UNL1        0.0634
      5 C          -9.0891  -19.6210   19.6773 C.3     1  UNL1        0.0719
      6 C         -10.4206  -18.9382   19.5725 C.2     1  UNL1       -0.0153
      7 C         -10.7460  -17.7864   20.4766 C.2     1  UNL1        0.0493
      8 C          -9.7400  -17.3173   21.4855 C.2     1  UNL1        0.0055
      9 C          -8.4086  -18.0001   21.5903 C.2     1  UNL1        0.0170
     10 C          -9.3089  -17.3005   24.9504 C.3     1  UNL1        0.1320
     11 N          -8.0757  -16.4923   24.6747 N.ar    1  UNL1       -0.3069
     12 C          -7.5836  -15.3303   25.4857 C.ar    1  UNL1        0.1786
     13 N          -6.3218  -14.8241   24.8518 N.ar    1  UNL1       -0.2223
     14 C          -6.0341  -15.6732   23.6492 C.ar    1  UNL1        0.1178
     15 C          -7.1181  -16.7042   23.5398 C.ar    1  UNL1        0.0820
     16 C         -12.0775  -17.1036   20.3718 C.2     1  UNL1        0.2424
     17 N         -12.2556  -15.9471   19.4333 N.am    1  UNL1       -0.3253
     18 O         -13.2310  -17.5773   21.2055 O.2     1  UNL1       -0.2704
     19 H         -11.4985  -15.6362   18.8861 H       1  UNL1        0.1453
     20 H         -13.1295  -15.4990   19.3645 H       1  UNL1        0.1453
@<TRIPOS>BOND
     1    10    11    1
     2    11    12   ar
     3    12    13   ar
     4    13    14   ar
     5    14    15   ar
     6    15     1    1
     7     1     2    2
     8     2     3    1
     9     3     4    2
    10     4     5    1
    11     5     6    1
    12     6     7    2
    13     7    16    1
    14    16    17   am
    15    16    18    2
    16     7     8    1
    17     8     9    2
    18    15    11   ar
    19     9     1    1
    20     9     4    1
    21    17    19    1
    22    17    20    1
@<TRIPOS>MOLECULE
*****
 20 22 0 0 0
SMALL
GASTEIGER

@<TRIPOS>ATOM
      1 C         -15.7813   -6.4971   19.3699 C.2     1  UNL1        0.0376
      2 C         -16.8037   -5.4193   19.5771 C.2     1  UNL1        0.0999
      3 N         -16.0810   -4.1093   19.6841 N.2     1  UNL1       -0.2478
      4 C         -14.6119   -4.3774   19.5431 C.2     1  UNL1        0.0634
      5 C         -13.4190   -3.4685   19.5664 C.3     1  UNL1        0.0719
      6 C         -12.0408   -4.0353   19.3956 C.2     1  UNL1       -0.0153
      7 C         -11.8555   -5.5111   19.2014 C.2     1  UNL1        0.0493
      8 C         -13.0485   -6.4201   19.1780 C.2     1  UNL1        0.0055
      9 C         -14.4267   -5.8532   19.3489 C.2     1  UNL1        0.0170
     10 C         -15.2387   -8.2764   16.6886 C.3     1  UNL1        0.1320
     11 N         -15.8145   -8.7796   17.9791 N.ar    1  UNL1       -0.3069
     12 C         -16.2418  -10.1890   18.2636 C.ar    1  UNL1        0.1786
     13 N         -16.7554  -10.2421   19.6720 N.ar    1  UNL1       -0.2223
     14 C         -16.6454   -8.8657   20.2578 C.ar    1  UNL1        0.1178
     15 C         -16.0638   -7.9617   19.2115 C.ar    1  UNL1        0.0820
     16 C         -10.4773   -6.0779   19.0305 C.2     1  UNL1        0.2424
     17 N         -10.2993   -7.4726   18.5080 N.am    1  UNL1       -0.3253
     18 O          -9.2769   -5.2499   19.3821 O.2     1  UNL1       -0.2704
     19 H         -11.0872   -8.0161   18.2773 H       1  UNL1        0.1453
     20 H          -9.3948   -7.8446   18.3959 H       1  UNL1        0.1453
@<TRIPOS>BOND
     1    10    11    1
     2    11    12   ar
     3    12    13   ar
     4    13    14   ar
     5    14    15   ar
     6    15     1    1
     7     1     2    2
     8     2     3    1
     9     3     4    2
    10     4     5    1
    11     5     6    1
    12     6     7    2
    13     7    16    1
    14    16    17   am
    15    16    18    2
    16     7     8    1
    17     8     9    2
    18    15    11   ar
    19     9     1    1
    20     9     4    1
    21    17    19    1
    22    17    20    1
@<TRIPOS>MOLECULE
*****
 20 22 0 0 0
SMALL
GASTEIGER

@<TRIPOS>ATOM
      1 C          -5.0414  -17.2500   23.1856 C.2     1  UNL1        0.0376
      2 C          -4.8406  -16.1769   24.2142 C.2     1  UNL1        0.0999
      3 N          -6.1846  -15.6049   24.5557 N.2     1  UNL1       -0.2478
      4 C          -7.2160  -16.3246   23.7381 C.2     1  UNL1        0.0634
      5 C          -8.7072  -16.1855   23.6552 C.3     1  UNL1        0.0719
      6 C          -9.4918  -17.0630   22.7257 C.2     1  UNL1       -0.0153
      7 C          -8.7852  -18.0798   21.8789 C.2     1  UNL1        0.0493
      8 C          -7.2940  -18.2189   21.9618 C.2     1  UNL1        0.0055
      9 C          -6.5094  -17.3413   22.8913 C.2     1  UNL1        0.0170
     10 C          -2.2626  -16.1367   21.8864 C.3     1  UNL1        0.1320
     11 N          -2.6861  -17.5736   21.9638 N.ar    1  UNL1       -0.3069
     12 C          -1.9066  -18.7509   21.4575 C.ar    1  UNL1        0.1786
     13 N          -2.7023  -19.9903   21.7418 N.ar    1  UNL1       -0.2223
     14 C          -3.9734  -19.5790   22.4238 C.ar    1  UNL1        0.1178
     15 C          -3.9633  -18.0853   22.5609 C.ar    1  UNL1        0.0820
     16 C          -9.5699  -18.9574   20.9493 C.2     1  UNL1        0.2424
     17 N          -9.2472  -18.9764   19.4846 N.am    1  UNL1       -0.3253
     18 O         -10.6773  -19.8160   21.4845 O.2     1  UNL1       -0.2704
     19 H          -8.5203  -18.4128   19.1333 H       1  UNL1        0.1453
     20 H          -9.7622  -19.5524   18.8745 H       1  UNL1        0.1453
@<TRIPOS>BOND
     1    10    11    1
     2    11    12   ar
     3    12    13   ar
     4    13    14   ar
     5    14    15   ar
     6    15     1    1
     7     1     2    2
     8     2     3    1
     9     3     4    2
    10     4     5    1
    11     5     6    1
    12     6     7    2
    13     7    16    1
    14    16    17   am
    15    16    18    2
    16     7     8    1
    17     8     9    2
    18    15    11   ar
    19     9     1    1
    20     9     4    1
    21    17    19    1
    22    17    20    1
