@<TRIPOS>MOLECULE
*****
 29 31 0 0 0
SMALL
GASTEIGER

@<TRIPOS>ATOM
      1 N          -6.9288  -18.8606   22.3642 N.3     1  UNL1       -0.2713
      2 C          -6.8671  -17.3883   22.6440 C.3     1  UNL1        0.0749
      3 C          -8.1027  -16.6539   23.0729 C.3     1  UNL1        0.0485
      4 C          -9.4000  -17.3919   23.2220 C.3     1  UNL1        0.1096
      5 O          -9.8422  -16.0090   23.5990 O.3     1  UNL1       -0.3826
      6 C          -9.4618  -18.8643   22.9423 C.3     1  UNL1        0.0485
      7 C          -8.2262  -19.5987   22.5134 C.3     1  UNL1        0.0749
      8 H          -9.0868  -15.4026   23.5474 H       1  UNL1        0.2107
      9 C         -10.8510  -17.6496   23.5021 C.ar    1  UNL1        0.0019
     10 C         -11.2468  -18.6218   24.5736 C.ar    1  UNL1        0.0003
     11 C         -12.6977  -18.8795   24.8537 C.ar    1  UNL1        0.0294
     12 C         -13.7528  -18.1650   24.0622 C.ar    1  UNL1        0.1401
     13 F         -15.2037  -18.4228   24.3424 F       1  UNL1       -0.2042
     14 C         -13.3570  -17.1929   22.9907 C.ar    1  UNL1        0.0294
     15 C         -11.9060  -16.9351   22.7106 C.ar    1  UNL1        0.0003
     16 C          -5.8090  -20.9409   21.2831 C.3     1  UNL1        0.0203
     17 C          -5.6932  -19.5950   21.9353 C.3     1  UNL1        0.0888
     18 C          -4.3418  -18.9836   22.1587 C.3     1  UNL1        0.1472
     19 O          -3.8750  -18.6845   23.5524 O.3     1  UNL1       -0.3787
     20 H          -2.9873  -18.2949   23.5195 H       1  UNL1        0.2108
     21 C          -3.4572  -18.6712   20.9882 C.ar    1  UNL1        0.0066
     22 C          -4.0320  -18.6312   19.6033 C.ar    1  UNL1        0.0013
     23 C          -3.1474  -18.3188   18.4329 C.ar    1  UNL1        0.0372
     24 C          -1.6880  -18.0465   18.6474 C.ar    1  UNL1        0.1441
     25 O          -0.8034  -17.7342   17.4769 O.3     1  UNL1       -0.5047
     26 C          -1.1132  -18.0866   20.0323 C.ar    1  UNL1        0.0910
     27 CL          0.3462  -17.8143   20.2467 Cl      1  UNL1       -0.0791
     28 C          -1.9978  -18.3990   21.2027 C.ar    1  UNL1        0.0125
     29 H          -1.1625  -17.7091   16.6118 H       1  UNL1        0.2922
@<TRIPOS>BOND
     1    16    17    1
     2    17    18    1
     3    18    19    1
     4    18    21    1
     5    21    22   ar
     6    22    23   ar
     7    23    24   ar
     8    24    25    1
     9    24    26   ar
    10    26    27    1
    11    26    28   ar
    12    17     1    1
    13     1     2    1
    14     2     3    1
    15     3     4    1
    16     4     5    1
    17     4     9    1
    18     9    10   ar
    19    10    11   ar
    20    11    12   ar
    21    12    13    1
    22    12    14   ar
    23    14    15   ar
    24     4     6    1
    25     6     7    1
    26    28    21   ar
    27     7     1    1
    28    15     9   ar
    29    19    20    1
    30    25    29    1
    31     5     8    1
@<TRIPOS>MOLECULE
*****
 29 31 0 0 0
SMALL
GASTEIGER

@<TRIPOS>ATOM
      1 N          -6.5679  -17.1955   23.2471 N.3     1  UNL1       -0.2713
      2 C          -6.6496  -18.3515   22.2948 C.3     1  UNL1        0.0749
      3 C          -7.9728  -18.9996   22.0136 C.3     1  UNL1        0.0485
      4 C          -9.2143  -18.4918   22.6849 C.3     1  UNL1        0.1096
      5 O          -9.7975  -19.6058   21.8669 O.3     1  UNL1       -0.3826
      6 C          -9.1327  -17.3358   23.6373 C.3     1  UNL1        0.0485
      7 C          -7.8095  -16.6876   23.9184 C.3     1  UNL1        0.0749
      8 H          -9.0919  -20.0405   21.3630 H       1  UNL1        0.2107
      9 C         -10.6585  -18.3708   23.0720 C.ar    1  UNL1        0.0019
     10 C         -11.6308  -17.7058   22.1434 C.ar    1  UNL1        0.0003
     11 C         -13.0749  -17.5848   22.5305 C.ar    1  UNL1        0.0294
     12 C         -13.5467  -18.1288   23.8465 C.ar    1  UNL1        0.1401
     13 F         -14.9908  -18.0078   24.2336 F       1  UNL1       -0.2042
     14 C         -12.5744  -18.7938   24.7751 C.ar    1  UNL1        0.0294
     15 C         -11.1303  -18.9148   24.3879 C.ar    1  UNL1        0.0003
     16 C          -5.1776  -15.0796   23.8302 C.3     1  UNL1        0.0203
     17 C          -5.2447  -16.5474   23.5283 C.3     1  UNL1        0.0888
     18 C          -3.9886  -17.3671   23.5075 C.3     1  UNL1        0.1472
     19 O          -3.5306  -18.0693   24.7513 O.3     1  UNL1       -0.3787
     20 H          -2.7088  -18.5505   24.5669 H       1  UNL1        0.2108
     21 C          -3.1905  -17.4844   22.2428 C.ar    1  UNL1        0.0066
     22 C          -2.0771  -16.5181   21.9662 C.ar    1  UNL1        0.0013
     23 C          -1.2790  -16.6355   20.7017 C.ar    1  UNL1        0.0372
     24 C          -1.5943  -17.7192   19.7137 C.ar    1  UNL1        0.1441
     25 O          -0.7961  -17.8366   18.4490 O.3     1  UNL1       -0.5047
     26 C          -2.7077  -18.6856   19.9903 C.ar    1  UNL1        0.0910
     27 CL         -3.0230  -19.7693   19.0023 Cl      1  UNL1       -0.0791
     28 C          -3.5057  -18.5682   21.2549 C.ar    1  UNL1        0.0125
     29 H          -0.1006  -17.2329   18.2762 H       1  UNL1        0.2922
@<TRIPOS>BOND
     1    16    17    1
     2    17    18    1
     3    18    19    1
     4    18    21    1
     5    21    22   ar
     6    22    23   ar
     7    23    24   ar
     8    24    25    1
     9    24    26   ar
    10    26    27    1
    11    26    28   ar
    12    17     1    1
    13     1     2    1
    14     2     3    1
    15     3     4    1
    16     4     5    1
    17     4     9    1
    18     9    10   ar
    19    10    11   ar
    20    11    12   ar
    21    12    13    1
    22    12    14   ar
    23    14    15   ar
    24     4     6    1
    25     6     7    1
    26    28    21   ar
    27     7     1    1
    28    15     9   ar
    29    19    20    1
    30    25    29    1
    31     5     8    1
@<TRIPOS>MOLECULE
*****
 29 31 0 0 0
SMALL
GASTEIGER

@<TRIPOS>ATOM
      1 N          -7.4271  -19.4261   22.4313 N.3     1  UNL1       -0.2713
      2 C          -7.2995  -20.5440   21.4393 C.3     1  UNL1        0.0749
      3 C          -6.0477  -20.6850   20.6251 C.3     1  UNL1        0.0485
      4 C          -4.9234  -19.7081   20.8027 C.3     1  UNL1        0.1096
      5 O          -4.3344  -20.5936   19.7448 O.3     1  UNL1       -0.3826
      6 C          -5.0509  -18.5902   21.7947 C.3     1  UNL1        0.0485
      7 C          -6.3027  -18.4492   22.6090 C.3     1  UNL1        0.0749
      8 H          -4.9668  -21.2941   19.5205 H       1  UNL1        0.2107
      9 C          -3.5945  -19.0387   20.6130 C.ar    1  UNL1        0.0019
     10 C          -2.6824  -18.8362   21.7865 C.ar    1  UNL1        0.0003
     11 C          -1.3536  -18.1668   21.5968 C.ar    1  UNL1        0.0294
     12 C          -0.9367  -17.7000   20.2336 C.ar    1  UNL1        0.1401
     13 F           0.3921  -17.0306   20.0439 F       1  UNL1       -0.2042
     14 C          -1.8488  -17.9025   19.0601 C.ar    1  UNL1        0.0294
     15 C          -3.1777  -18.5719   19.2498 C.ar    1  UNL1        0.0003
     16 C          -9.3322  -20.5008   23.8333 C.3     1  UNL1        0.0203
     17 C          -8.6789  -19.2851   23.2456 C.3     1  UNL1        0.0888
     18 C          -9.2774  -17.9285   23.4722 C.3     1  UNL1        0.1472
     19 O          -8.9150  -17.1442   24.6984 O.3     1  UNL1       -0.3787
     20 H          -9.3858  -16.2961   24.6906 H       1  UNL1        0.2108
     21 C         -10.2383  -17.3562   22.4726 C.ar    1  UNL1        0.0066
     22 C         -11.6721  -17.7967   22.4731 C.ar    1  UNL1        0.0013
     23 C         -12.6329  -17.2244   21.4736 C.ar    1  UNL1        0.0372
     24 C         -12.1599  -16.2115   20.4734 C.ar    1  UNL1        0.1441
     25 O         -13.1208  -15.6391   19.4738 O.3     1  UNL1       -0.5047
     26 C         -10.7261  -15.7709   20.4728 C.ar    1  UNL1        0.0910
     27 CL        -10.2532  -14.7580   19.4727 Cl      1  UNL1       -0.0791
     28 C          -9.7653  -16.3432   21.4724 C.ar    1  UNL1        0.0125
     29 H         -14.0165  -15.9144   19.4742 H       1  UNL1        0.2922
@<TRIPOS>BOND
     1    16    17    1
     2    17    18    1
     3    18    19    1
     4    18    21    1
     5    21    22   ar
     6    22    23   ar
     7    23    24   ar
     8    24    25    1
     9    24    26   ar
    10    26    27    1
    11    26    28   ar
    12    17     1    1
    13     1     2    1
    14     2     3    1
    15     3     4    1
    16     4     5    1
    17     4     9    1
    18     9    10   ar
    19    10    11   ar
    20    11    12   ar
    21    12    13    1
    22    12    14   ar
    23    14    15   ar
    24     4     6    1
    25     6     7    1
    26    28    21   ar
    27     7     1    1
    28    15     9   ar
    29    19    20    1
    30    25    29    1
    31     5     8    1
@<TRIPOS>MOLECULE
*****
 29 31 0 0 0
SMALL
GASTEIGER

@<TRIPOS>ATOM
      1 N          -8.1249  -19.2704   20.4494 N.3     1  UNL1       -0.2713
      2 C          -7.8428  -19.7332   21.8481 C.3     1  UNL1        0.0749
      3 C          -6.4310  -19.7777   22.3529 C.3     1  UNL1        0.0485
      4 C          -5.3013  -19.3595   21.4591 C.3     1  UNL1        0.1096
      5 O          -4.5344  -19.7205   22.6967 O.3     1  UNL1       -0.3826
      6 C          -5.5834  -18.8967   20.0604 C.3     1  UNL1        0.0485
      7 C          -6.9952  -18.8521   19.5556 C.3     1  UNL1        0.0749
      8 H          -5.1509  -20.0185   23.3837 H       1  UNL1        0.2107
      9 C          -3.9053  -19.0666   20.9951 C.ar    1  UNL1        0.0019
     10 C          -3.6235  -18.8848   19.5331 C.ar    1  UNL1        0.0003
     11 C          -2.2275  -18.5920   19.0690 C.ar    1  UNL1        0.0294
     12 C          -1.1132  -18.4809   20.0671 C.ar    1  UNL1        0.1401
     13 F           0.2828  -18.1881   19.6030 F       1  UNL1       -0.2042
     14 C          -1.3949  -18.6627   21.5291 C.ar    1  UNL1        0.0294
     15 C          -2.7910  -18.9556   21.9931 C.ar    1  UNL1        0.0003
     16 C         -10.0238  -20.2719   18.9861 C.3     1  UNL1        0.0203
     17 C          -9.5367  -19.2259   19.9446 C.3     1  UNL1        0.0888
     18 C         -10.4614  -18.1354   20.3982 C.3     1  UNL1        0.1472
     19 O         -10.6578  -16.9161   19.5468 O.3     1  UNL1       -0.3787
     20 H         -11.2820  -16.3148   19.9823 H       1  UNL1        0.2108
     21 C         -11.1897  -18.2641   21.7032 C.ar    1  UNL1        0.0066
     22 C         -12.6005  -17.7700   21.8267 C.ar    1  UNL1        0.0013
     23 C         -13.3288  -17.8987   23.1316 C.ar    1  UNL1        0.0372
     24 C         -12.6462  -18.5216   24.3132 C.ar    1  UNL1        0.1441
     25 O         -13.3745  -18.6503   25.6182 O.3     1  UNL1       -0.5047
     26 C         -11.2354  -19.0158   24.1897 C.ar    1  UNL1        0.0910
     27 CL        -10.5528  -19.6387   25.3713 Cl      1  UNL1       -0.0791
     28 C         -10.5071  -18.8870   22.8848 C.ar    1  UNL1        0.0125
     29 H         -14.2558  -18.3416   25.6953 H       1  UNL1        0.2922
@<TRIPOS>BOND
     1    16    17    1
     2    17    18    1
     3    18    19    1
     4    18    21    1
     5    21    22   ar
     6    22    23   ar
     7    23    24   ar
     8    24    25    1
     9    24    26   ar
    10    26    27    1
    11    26    28   ar
    12    17     1    1
    13     1     2    1
    14     2     3    1
    15     3     4    1
    16     4     5    1
    17     4     9    1
    18     9    10   ar
    19    10    11   ar
    20    11    12   ar
    21    12    13    1
    22    12    14   ar
    23    14    15   ar
    24     4     6    1
    25     6     7    1
    26    28    21   ar
    27     7     1    1
    28    15     9   ar
    29    19    20    1
    30    25    29    1
    31     5     8    1
@<TRIPOS>MOLECULE
*****
 29 31 0 0 0
SMALL
GASTEIGER

@<TRIPOS>ATOM
      1 N          -7.4853  -19.5956   20.3953 N.3     1  UNL1       -0.2713
      2 C          -7.1217  -20.1654   21.7344 C.3     1  UNL1        0.0749
      3 C          -5.7275  -20.0053   22.2641 C.3     1  UNL1        0.0485
      4 C          -4.6969  -19.2755   21.4547 C.3     1  UNL1        0.1096
      5 O          -3.8764  -19.6351   22.6578 O.3     1  UNL1       -0.3826
      6 C          -5.0605  -18.7057   20.1155 C.3     1  UNL1        0.0485
      7 C          -6.4547  -18.8658   19.5859 C.3     1  UNL1        0.0749
      8 H          -4.4258  -20.1258   23.2889 H       1  UNL1        0.2107
      9 C          -3.3813  -18.6705   21.0631 C.ar    1  UNL1        0.0019
     10 C          -2.6814  -17.7284   21.9971 C.ar    1  UNL1        0.0003
     11 C          -1.3658  -17.1235   21.6056 C.ar    1  UNL1        0.0294
     12 C          -0.7502  -17.4607   20.2799 C.ar    1  UNL1        0.1401
     13 F           0.5654  -16.8558   19.8884 F       1  UNL1       -0.2042
     14 C          -1.4501  -18.4028   19.3459 C.ar    1  UNL1        0.0294
     15 C          -2.7657  -19.0078   19.7375 C.ar    1  UNL1        0.0003
     16 C          -9.1193  -20.5411   18.6103 C.3     1  UNL1        0.0203
     17 C          -8.8795  -19.7557   19.8656 C.3     1  UNL1        0.0888
     18 C         -10.0339  -19.1304   20.5912 C.3     1  UNL1        0.1472
     19 O         -11.2564  -18.7072   19.8320 O.3     1  UNL1       -0.3787
     20 H         -11.9022  -18.3247   20.4464 H       1  UNL1        0.2108
     21 C          -9.9658  -18.9284   22.0760 C.ar    1  UNL1        0.0066
     22 C         -10.3682  -20.0369   23.0030 C.ar    1  UNL1        0.0013
     23 C         -10.3001  -19.8348   24.4877 C.ar    1  UNL1        0.0372
     24 C          -9.8296  -18.5243   25.0455 C.ar    1  UNL1        0.1441
     25 O          -9.7615  -18.3222   26.5303 O.3     1  UNL1       -0.5047
     26 C          -9.4272  -17.4158   24.1185 C.ar    1  UNL1        0.0910
     27 CL         -8.9566  -16.1053   24.6763 Cl      1  UNL1       -0.0791
     28 C          -9.4953  -17.6179   22.6338 C.ar    1  UNL1        0.0125
     29 H         -10.0129  -19.0147   27.1093 H       1  UNL1        0.2922
@<TRIPOS>BOND
     1    16    17    1
     2    17    18    1
     3    18    19    1
     4    18    21    1
     5    21    22   ar
     6    22    23   ar
     7    23    24   ar
     8    24    25    1
     9    24    26   ar
    10    26    27    1
    11    26    28   ar
    12    17     1    1
    13     1     2    1
    14     2     3    1
    15     3     4    1
    16     4     5    1
    17     4     9    1
    18     9    10   ar
    19    10    11   ar
    20    11    12   ar
    21    12    13    1
    22    12    14   ar
    23    14    15   ar
    24     4     6    1
    25     6     7    1
    26    28    21   ar
    27     7     1    1
    28    15     9   ar
    29    19    20    1
    30    25    29    1
    31     5     8    1
@<TRIPOS>MOLECULE
*****
 29 31 0 0 0
SMALL
GASTEIGER

@<TRIPOS>ATOM
      1 N          -8.1739  -19.2722   21.2293 N.3     1  UNL1       -0.2713
      2 C          -7.6620  -20.1317   22.3469 C.3     1  UNL1        0.0749
      3 C          -6.1852  -20.3125   22.5381 C.3     1  UNL1        0.0485
      4 C          -5.2204  -19.6338   21.6116 C.3     1  UNL1        0.1096
      5 O          -4.2572  -20.3432   22.5166 O.3     1  UNL1       -0.3826
      6 C          -5.7323  -18.7743   20.4939 C.3     1  UNL1        0.0485
      7 C          -7.2091  -18.5935   20.3027 C.3     1  UNL1        0.0749
      8 H          -4.7505  -20.8401   23.1880 H       1  UNL1        0.2107
      9 C          -3.9210  -19.2015   20.9993 C.ar    1  UNL1        0.0019
     10 C          -3.7829  -19.1268   19.5076 C.ar    1  UNL1        0.0003
     11 C          -2.4836  -18.6945   18.8953 C.ar    1  UNL1        0.0294
     12 C          -1.3223  -18.3368   19.7750 C.ar    1  UNL1        0.1401
     13 F          -0.0231  -17.9045   19.1627 F       1  UNL1       -0.2042
     14 C          -1.4605  -18.4114   21.2667 C.ar    1  UNL1        0.0294
     15 C          -2.7598  -18.8438   21.8789 C.ar    1  UNL1        0.0003
     16 C         -10.3535  -19.7959   19.9157 C.3     1  UNL1        0.0203
     17 C          -9.6507  -19.0914   21.0382 C.3     1  UNL1        0.0888
     18 C         -10.4246  -18.2061   21.9694 C.3     1  UNL1        0.1472
     19 O         -11.9217  -18.1597   21.8892 O.3     1  UNL1       -0.3787
     20 H         -12.2623  -17.5428   22.5558 H       1  UNL1        0.2108
     21 C          -9.7014  -17.3672   22.9811 C.ar    1  UNL1        0.0066
     22 C          -8.9608  -16.1381   22.5444 C.ar    1  UNL1        0.0013
     23 C          -8.2377  -15.2992   23.5560 C.ar    1  UNL1        0.0372
     24 C          -8.2551  -15.6895   25.0042 C.ar    1  UNL1        0.1441
     25 O          -7.5319  -14.8505   26.0158 O.3     1  UNL1       -0.5047
     26 C          -8.9957  -16.9186   25.4409 C.ar    1  UNL1        0.0910
     27 CL         -9.0132  -17.3089   26.8891 Cl      1  UNL1       -0.0791
     28 C          -9.7189  -17.7575   24.4293 C.ar    1  UNL1        0.0125
     29 H          -7.0693  -14.0827   25.7430 H       1  UNL1        0.2922
@<TRIPOS>BOND
     1    16    17    1
     2    17    18    1
     3    18    19    1
     4    18    21    1
     5    21    22   ar
     6    22    23   ar
     7    23    24   ar
     8    24    25    1
     9    24    26   ar
    10    26    27    1
    11    26    28   ar
    12    17     1    1
    13     1     2    1
    14     2     3    1
    15     3     4    1
    16     4     5    1
    17     4     9    1
    18     9    10   ar
    19    10    11   ar
    20    11    12   ar
    21    12    13    1
    22    12    14   ar
    23    14    15   ar
    24     4     6    1
    25     6     7    1
    26    28    21   ar
    27     7     1    1
    28    15     9   ar
    29    19    20    1
    30    25    29    1
    31     5     8    1
@<TRIPOS>MOLECULE
*****
 29 31 0 0 0
SMALL
GASTEIGER

@<TRIPOS>ATOM
      1 N         -12.0461   -6.3042   18.3269 N.3     1  UNL1       -0.2713
      2 C         -12.2625   -6.7646   16.9159 C.3     1  UNL1        0.0749
      3 C         -13.5356   -7.4643   16.5421 C.3     1  UNL1        0.0485
      4 C         -14.5923   -7.7036   17.5794 C.3     1  UNL1        0.1096
      5 O         -15.2557   -8.3216   16.3844 O.3     1  UNL1       -0.3826
      6 C         -14.3759   -7.2432   18.9906 C.3     1  UNL1        0.0485
      7 C         -13.1028   -6.5435   19.3643 C.3     1  UNL1        0.0749
      8 H         -14.6731   -8.2402   15.6131 H       1  UNL1        0.2107
      9 C         -15.8794   -8.1575   18.2017 C.ar    1  UNL1        0.0019
     10 C         -16.7723   -7.1655   18.8863 C.ar    1  UNL1        0.0003
     11 C         -18.0594   -7.6194   19.5086 C.ar    1  UNL1        0.0294
     12 C         -18.4536   -9.0654   19.4463 C.ar    1  UNL1        0.1401
     13 F         -19.7407   -9.5193   20.0687 F       1  UNL1       -0.2042
     14 C         -17.5607  -10.0574   18.7618 C.ar    1  UNL1        0.0294
     15 C         -16.2736   -9.6034   18.1395 C.ar    1  UNL1        0.0003
     16 C          -9.5289   -6.4005   18.9631 C.3     1  UNL1        0.0203
     17 C         -10.7730   -5.6045   18.7007 C.3     1  UNL1        0.0888
     18 C         -10.7440   -4.1090   18.8121 C.3     1  UNL1        0.1472
     19 O          -9.5252   -3.4206   19.3512 O.3     1  UNL1       -0.3787
     20 H          -9.6710   -2.4616   19.3561 H       1  UNL1        0.2108
     21 C         -11.9337   -3.3018   18.3843 C.ar    1  UNL1        0.0066
     22 C         -12.1244   -2.9560   16.9373 C.ar    1  UNL1        0.0013
     23 C         -13.3142   -2.1488   16.5096 C.ar    1  UNL1        0.0372
     24 C         -14.3132   -1.6874   17.5289 C.ar    1  UNL1        0.1441
     25 O         -15.5030   -0.8802   17.1012 O.3     1  UNL1       -0.5047
     26 C         -14.1225   -2.0332   18.9760 C.ar    1  UNL1        0.0910
     27 CL        -15.1215   -1.5718   19.9954 Cl      1  UNL1       -0.0791
     28 C         -12.9328   -2.8404   19.4037 C.ar    1  UNL1        0.0125
     29 H         -15.6221   -0.6642   16.1972 H       1  UNL1        0.2922
@<TRIPOS>BOND
     1    16    17    1
     2    17    18    1
     3    18    19    1
     4    18    21    1
     5    21    22   ar
     6    22    23   ar
     7    23    24   ar
     8    24    25    1
     9    24    26   ar
    10    26    27    1
    11    26    28   ar
    12    17     1    1
    13     1     2    1
    14     2     3    1
    15     3     4    1
    16     4     5    1
    17     4     9    1
    18     9    10   ar
    19    10    11   ar
    20    11    12   ar
    21    12    13    1
    22    12    14   ar
    23    14    15   ar
    24     4     6    1
    25     6     7    1
    26    28    21   ar
    27     7     1    1
    28    15     9   ar
    29    19    20    1
    30    25    29    1
    31     5     8    1
@<TRIPOS>MOLECULE
*****
 29 31 0 0 0
SMALL
GASTEIGER

@<TRIPOS>ATOM
      1 N         -16.5009   -3.5455   19.6860 N.3     1  UNL1       -0.2713
      2 C         -17.8543   -2.9935   20.0230 C.3     1  UNL1        0.0749
      3 C         -19.0620   -3.8814   19.9654 C.3     1  UNL1        0.0485
      4 C         -18.9162   -5.3212   19.5708 C.3     1  UNL1        0.1096
      5 O         -20.3977   -5.2621   19.7981 O.3     1  UNL1       -0.3826
      6 C         -17.5627   -5.8732   19.2338 C.3     1  UNL1        0.0485
      7 C         -16.3551   -4.9853   19.2914 C.3     1  UNL1        0.0749
      8 H         -20.6481   -4.3644   20.0670 H       1  UNL1        0.2107
      9 C         -19.2850   -6.7405   19.2551 C.ar    1  UNL1        0.0019
     10 C         -19.7460   -7.6567   20.3495 C.ar    1  UNL1        0.0003
     11 C         -20.1148   -9.0760   20.0339 C.ar    1  UNL1        0.0294
     12 C         -20.0224   -9.5791   18.6237 C.ar    1  UNL1        0.1401
     13 F         -20.3912  -10.9983   18.3082 F       1  UNL1       -0.2042
     14 C         -19.5614   -8.6628   17.5293 C.ar    1  UNL1        0.0294
     15 C         -19.1926   -7.2435   17.8450 C.ar    1  UNL1        0.0003
     16 C         -15.3132   -1.3194   19.0662 C.3     1  UNL1        0.0203
     17 C         -15.2932   -2.6576   19.7437 C.3     1  UNL1        0.0888
     18 C         -14.0657   -3.1080   20.4787 C.3     1  UNL1        0.1472
     19 O         -14.0381   -3.0833   21.9783 O.3     1  UNL1       -0.3787
     20 H         -13.1777   -3.4037   22.2911 H       1  UNL1        0.2108
     21 C         -12.8657   -3.5830   19.7142 C.ar    1  UNL1        0.0066
     22 C         -11.9408   -2.5889   19.0768 C.ar    1  UNL1        0.0013
     23 C         -10.7408   -3.0640   18.3124 C.ar    1  UNL1        0.0372
     24 C         -10.4658   -4.5331   18.1853 C.ar    1  UNL1        0.1441
     25 O          -9.2658   -5.0081   17.4208 O.3     1  UNL1       -0.5047
     26 C         -11.3907   -5.5271   18.8227 C.ar    1  UNL1        0.0910
     27 CL        -11.1157   -6.9962   18.6957 Cl      1  UNL1       -0.0791
     28 C         -12.5907   -5.0521   19.5872 C.ar    1  UNL1        0.0125
     29 H          -8.6880   -4.3871   17.0227 H       1  UNL1        0.2922
@<TRIPOS>BOND
     1    16    17    1
     2    17    18    1
     3    18    19    1
     4    18    21    1
     5    21    22   ar
     6    22    23   ar
     7    23    24   ar
     8    24    25    1
     9    24    26   ar
    10    26    27    1
    11    26    28   ar
    12    17     1    1
    13     1     2    1
    14     2     3    1
    15     3     4    1
    16     4     5    1
    17     4     9    1
    18     9    10   ar
    19    10    11   ar
    20    11    12   ar
    21    12    13    1
    22    12    14   ar
    23    14    15   ar
    24     4     6    1
    25     6     7    1
    26    28    21   ar
    27     7     1    1
    28    15     9   ar
    29    19    20    1
    30    25    29    1
    31     5     8    1
@<TRIPOS>MOLECULE
*****
 29 31 0 0 0
SMALL
GASTEIGER

@<TRIPOS>ATOM
      1 N          -7.7268  -19.6942   20.4828 N.3     1  UNL1       -0.2713
      2 C          -7.4095  -20.1229   21.8847 C.3     1  UNL1        0.0749
      3 C          -6.0349  -19.9032   22.4433 C.3     1  UNL1        0.0485
      4 C          -4.9774  -19.2549   21.5999 C.3     1  UNL1        0.1096
      5 O          -4.1990  -19.4863   22.8611 O.3     1  UNL1       -0.3826
      6 C          -5.2946  -18.8262   20.1978 C.3     1  UNL1        0.0485
      7 C          -6.6693  -19.0458   19.6393 C.3     1  UNL1        0.0749
      8 H          -4.7696  -19.9127   23.5196 H       1  UNL1        0.2107
      9 C          -3.6496  -18.6869   21.1945 C.ar    1  UNL1        0.0019
     10 C          -3.0112  -19.1173   19.9072 C.ar    1  UNL1        0.0003
     11 C          -1.6835  -18.5494   19.5017 C.ar    1  UNL1        0.0294
     12 C          -0.9940  -17.5509   20.3837 C.ar    1  UNL1        0.1401
     13 F           0.3338  -16.9829   19.9782 F       1  UNL1       -0.2042
     14 C          -1.6324  -17.1204   21.6709 C.ar    1  UNL1        0.0294
     15 C          -2.9602  -17.6884   22.0764 C.ar    1  UNL1        0.0003
     16 C          -9.2898  -20.1032   18.4481 C.3     1  UNL1        0.0203
     17 C          -9.1014  -19.9139   19.9242 C.3     1  UNL1        0.0888
     18 C         -10.2877  -19.9443   20.8416 C.3     1  UNL1        0.1472
     19 O         -10.9007  -21.2565   21.2319 O.3     1  UNL1       -0.3787
     20 H         -11.6522  -21.0989   21.8245 H       1  UNL1        0.2108
     21 C         -10.8611  -18.6624   21.3689 C.ar    1  UNL1        0.0066
     22 C         -10.3277  -17.3468   20.8843 C.ar    1  UNL1        0.0013
     23 C         -10.9011  -16.0650   21.4116 C.ar    1  UNL1        0.0372
     24 C         -12.0080  -16.0987   22.4234 C.ar    1  UNL1        0.1441
     25 O         -12.5814  -14.8168   22.9507 O.3     1  UNL1       -0.5047
     26 C         -12.5414  -17.4142   22.9080 C.ar    1  UNL1        0.0910
     27 CL        -13.6482  -17.4479   23.9199 Cl      1  UNL1       -0.0791
     28 C         -11.9680  -18.6960   22.3808 C.ar    1  UNL1        0.0125
     29 H         -12.2481  -13.9950   22.6480 H       1  UNL1        0.2922
@<TRIPOS>BOND
     1    16    17    1
     2    17    18    1
     3    18    19    1
     4    18    21    1
     5    21    22   ar
     6    22    23   ar
     7    23    24   ar
     8    24    25    1
     9    24    26   ar
    10    26    27    1
    11    26    28   ar
    12    17     1    1
    13     1     2    1
    14     2     3    1
    15     3     4    1
    16     4     5    1
    17     4     9    1
    18     9    10   ar
    19    10    11   ar
    20    11    12   ar
    21    12    13    1
    22    12    14   ar
    23    14    15   ar
    24     4     6    1
    25     6     7    1
    26    28    21   ar
    27     7     1    1
    28    15     9   ar
    29    19    20    1
    30    25    29    1
    31     5     8    1
