@<TRIPOS>MOLECULE
*****
 52 57 0 0 0
SMALL
GASTEIGER

@<TRIPOS>ATOM
      1 C           3.6671    1.1030   26.2331 C.ar    1  UNL1        0.1140
      2 C           4.3533    0.7151   27.5093 C.ar    1  UNL1        0.0233
      3 C           3.3931    0.9413   28.6392 C.ar    1  UNL1        0.0186
      4 C           3.5186    0.7348   30.1196 C.ar    1  UNL1        0.0162
      5 C           2.3645    1.0561   31.0222 C.ar    1  UNL1        0.0506
      6 C           1.0848    1.5839   30.4444 C.ar    1  UNL1        0.0162
      7 C           0.9592    1.7903   28.9640 C.ar    1  UNL1        0.0185
      8 C           2.1134    1.4690   28.0614 C.ar    1  UNL1        0.0601
      9 N           2.2828    1.5689   26.5744 N.ar    1  UNL1       -0.3216
     10 C           1.2492    2.0503   25.5997 C.3     1  UNL1        0.1306
     11 N           4.5394   -0.2942   24.2239 N.am    1  UNL1       -0.2902
     12 C           4.2610    1.0367   24.8573 C.2     1  UNL1        0.2623
     13 O           4.5765    2.3012   24.1148 O.2     1  UNL1       -0.2685
     14 H           4.3323   -1.1242   24.7112 H       1  UNL1        0.1505
     15 C           5.1332   -0.3605   22.8481 C.3     1  UNL1        0.1720
     16 C           4.2384   -0.3617   21.6442 C.ar    1  UNL1        0.0043
     17 C           4.7168    0.2344   20.3535 C.ar    1  UNL1       -0.0022
     18 C           3.8219    0.2333   19.1496 C.ar    1  UNL1       -0.0003
     19 C           2.4486   -0.3640   19.2365 C.ar    1  UNL1       -0.0000
     20 C           1.9703   -0.9600   20.5272 C.ar    1  UNL1       -0.0003
     21 C           2.8651   -0.9589   21.7310 C.ar    1  UNL1       -0.0022
     22 C           8.7782   -1.8082   22.2415 C.3     1  UNL1        0.1152
     23 N           7.2896   -1.7430   22.4135 N.am    1  UNL1       -0.2721
     24 C           6.6219   -0.4257   22.6761 C.2     1  UNL1        0.2481
     25 O           7.4428    0.8264   22.7667 O.2     1  UNL1       -0.2727
     26 C           6.4686   -2.9951   22.3229 C.3     1  UNL1        0.1202
     27 C           5.7436   -3.3263   21.0522 C.ar    1  UNL1       -0.0023
     28 C           6.2761   -2.8409   19.7365 C.ar    1  UNL1       -0.0026
     29 C           5.5511   -3.1721   18.4658 C.ar    1  UNL1       -0.0003
     30 C           4.2935   -3.9886   18.5108 C.ar    1  UNL1       -0.0000
     31 C           3.7611   -4.4739   19.8264 C.ar    1  UNL1       -0.0003
     32 C           4.4861   -4.1427   21.0971 C.ar    1  UNL1       -0.0026
     33 N           2.4900    0.8497   32.5026 N.am    1  UNL1       -0.2804
     34 C           3.4972    1.6375   33.2870 C.2     1  UNL1        0.2495
     35 O           4.3788    2.6316   32.5908 O.2     1  UNL1       -0.2698
     36 H           1.9114    0.1973   32.9595 H       1  UNL1        0.1552
     37 C           3.6227    1.4311   34.7674 C.ar    1  UNL1        0.0537
     38 C           2.9464    2.3756   35.7163 C.ar    1  UNL1        0.0045
     39 C           3.0720    2.1692   37.1968 C.ar    1  UNL1        0.0001
     40 C           3.8738    1.0183   37.7282 C.ar    1  UNL1        0.0000
     41 C           4.5502    0.0738   36.7793 C.ar    1  UNL1        0.0001
     42 C           4.4246    0.2802   35.2989 C.ar    1  UNL1        0.0044
     43 C           5.1009   -0.6643   34.3499 C.ar    1  UNL1        0.0001
     44 C           4.3702   -1.8742   33.8479 C.ar    1  UNL1       -0.0001
     45 C           5.0465   -2.8187   32.8989 C.ar    1  UNL1        0.0039
     46 C           6.4535   -2.5533   32.4520 C.ar    1  UNL1        0.0714
     47 C           7.1843   -1.3434   32.9541 C.ar    1  UNL1        0.0039
     48 C           6.5080   -0.3989   33.9030 C.ar    1  UNL1       -0.0001
     49 C           7.1299   -3.4978   31.5031 C.3     1  UNL1        0.4186
     50 F           7.8062   -4.4423   30.5541 F       1  UNL1       -0.1659
     51 F           7.6608   -2.3327   30.7217 F       1  UNL1       -0.1659
     52 F           6.5989   -4.6630   32.2844 F       1  UNL1       -0.1659
@<TRIPOS>BOND
     1    22    23    1
     2    23    26    1
     3    26    27    1
     4    27    28   ar
     5    28    29   ar
     6    29    30   ar
     7    30    31   ar
     8    31    32   ar
     9    23    24   am
    10    24    25    2
    11    24    15    1
    12    15    11    1
    13    11    12   am
    14    12    13    2
    15    12     1    1
    16     1     2   ar
    17     2     3   ar
    18     3     4   ar
    19     4     5   ar
    20     5    33    1
    21    33    34   am
    22    34    35    2
    23    34    37    1
    24    37    38   ar
    25    38    39   ar
    26    39    40   ar
    27    40    41   ar
    28    41    42   ar
    29    42    43    1
    30    43    44   ar
    31    44    45   ar
    32    45    46   ar
    33    46    49    1
    34    49    50    1
    35    49    51    1
    36    49    52    1
    37    46    47   ar
    38    47    48   ar
    39     5     6   ar
    40     6     7   ar
    41     7     8   ar
    42     8     9   ar
    43     9    10    1
    44    15    16    1
    45    16    17   ar
    46    17    18   ar
    47    18    19   ar
    48    19    20   ar
    49    20    21   ar
    50    32    27   ar
    51     9     1   ar
    52    21    16   ar
    53     8     3   ar
    54    42    37   ar
    55    48    43   ar
    56    11    14    1
    57    33    36    1
@<TRIPOS>MOLECULE
*****
 52 57 0 0 0
SMALL
GASTEIGER

@<TRIPOS>ATOM
      1 C           2.8918    0.6716   26.4123 C.ar    1  UNL1        0.1140
      2 C           3.5979    0.1620   27.6337 C.ar    1  UNL1        0.0233
      3 C           2.8639    0.6699   28.8392 C.ar    1  UNL1        0.0186
      4 C           3.1018    0.4889   30.3091 C.ar    1  UNL1        0.0162
      5 C           2.1799    1.1315   31.3027 C.ar    1  UNL1        0.0506
      6 C           1.0202    1.9551   30.8264 C.ar    1  UNL1        0.0162
      7 C           0.7824    2.1360   29.3565 C.ar    1  UNL1        0.0185
      8 C           1.7042    1.4935   28.3629 C.ar    1  UNL1        0.0601
      9 N           1.7215    1.4945   26.8630 N.ar    1  UNL1       -0.3216
     10 C           0.7406    2.1954   25.9705 C.3     1  UNL1        0.1306
     11 N           2.8043   -0.8349   24.2974 N.am    1  UNL1       -0.2902
     12 C           3.2867    0.4050   24.9899 C.2     1  UNL1        0.2623
     13 O           4.1640    1.3785   24.2602 O.2     1  UNL1       -0.2685
     14 H           2.2285   -1.4739   24.7764 H       1  UNL1        0.1505
     15 C           3.1992   -1.1015   22.8751 C.3     1  UNL1        0.1720
     16 C           2.4121   -0.4942   21.7518 C.ar    1  UNL1        0.0043
     17 C           2.4552   -1.1124   20.3858 C.ar    1  UNL1       -0.0022
     18 C           1.6681   -0.5051   19.2625 C.ar    1  UNL1       -0.0003
     19 C           0.8378    0.7203   19.5053 C.ar    1  UNL1       -0.0000
     20 C           0.7946    1.3385   20.8714 C.ar    1  UNL1       -0.0003
     21 C           1.5818    0.7312   21.9946 C.ar    1  UNL1       -0.0022
     22 C           6.8580   -2.2337   21.8354 C.3     1  UNL1        0.1152
     23 N           5.6760   -1.3600   22.1344 N.am    1  UNL1       -0.2721
     24 C           4.3812   -1.9752   22.5760 C.2     1  UNL1        0.2481
     25 O           4.2684   -3.4641   22.7185 O.2     1  UNL1       -0.2727
     26 C           5.7888    0.1289   21.9919 C.3     1  UNL1        0.1202
     27 C           5.3674    0.7943   20.7153 C.ar    1  UNL1       -0.0023
     28 C           4.6657    2.1194   20.7564 C.ar    1  UNL1       -0.0026
     29 C           4.2443    2.7847   19.4797 C.ar    1  UNL1       -0.0003
     30 C           4.5247    2.1249   18.1621 C.ar    1  UNL1       -0.0000
     31 C           5.2264    0.7999   18.1211 C.ar    1  UNL1       -0.0003
     32 C           5.6478    0.1345   19.3977 C.ar    1  UNL1       -0.0026
     33 N           2.4178    0.9506   32.7727 N.am    1  UNL1       -0.2804
     34 C           3.5328    1.6919   33.4488 C.2     1  UNL1        0.2495
     35 O           4.4100    2.6141   32.6550 O.2     1  UNL1       -0.2698
     36 H           1.8420    0.3453   33.2936 H       1  UNL1        0.1552
     37 C           3.7706    1.5109   34.9187 C.ar    1  UNL1        0.0537
     38 C           3.2156    2.5042   35.8962 C.ar    1  UNL1        0.0045
     39 C           3.4535    2.3232   37.3661 C.ar    1  UNL1        0.0001
     40 C           4.2464    1.1491   37.8586 C.ar    1  UNL1        0.0000
     41 C           4.8015    0.1558   36.8812 C.ar    1  UNL1        0.0001
     42 C           4.5636    0.3367   35.4113 C.ar    1  UNL1        0.0044
     43 C           5.1187   -0.6565   34.4338 C.ar    1  UNL1        0.0001
     44 C           4.2819   -1.8192   33.9891 C.ar    1  UNL1       -0.0001
     45 C           4.8369   -2.8124   33.0117 C.ar    1  UNL1        0.0039
     46 C           6.2288   -2.6430   32.4790 C.ar    1  UNL1        0.0714
     47 C           7.0658   -1.4802   32.9237 C.ar    1  UNL1        0.0039
     48 C           6.5107   -0.4870   33.9011 C.ar    1  UNL1       -0.0001
     49 C           6.7839   -3.6362   31.5016 C.3     1  UNL1        0.4186
     50 F           7.3390   -4.6295   30.5241 F       1  UNL1       -0.1659
     51 F           7.0630   -2.5262   30.5320 F       1  UNL1       -0.1659
     52 F           6.5049   -4.7462   32.4711 F       1  UNL1       -0.1659
@<TRIPOS>BOND
     1    22    23    1
     2    23    26    1
     3    26    27    1
     4    27    28   ar
     5    28    29   ar
     6    29    30   ar
     7    30    31   ar
     8    31    32   ar
     9    23    24   am
    10    24    25    2
    11    24    15    1
    12    15    11    1
    13    11    12   am
    14    12    13    2
    15    12     1    1
    16     1     2   ar
    17     2     3   ar
    18     3     4   ar
    19     4     5   ar
    20     5    33    1
    21    33    34   am
    22    34    35    2
    23    34    37    1
    24    37    38   ar
    25    38    39   ar
    26    39    40   ar
    27    40    41   ar
    28    41    42   ar
    29    42    43    1
    30    43    44   ar
    31    44    45   ar
    32    45    46   ar
    33    46    49    1
    34    49    50    1
    35    49    51    1
    36    49    52    1
    37    46    47   ar
    38    47    48   ar
    39     5     6   ar
    40     6     7   ar
    41     7     8   ar
    42     8     9   ar
    43     9    10    1
    44    15    16    1
    45    16    17   ar
    46    17    18   ar
    47    18    19   ar
    48    19    20   ar
    49    20    21   ar
    50    32    27   ar
    51     9     1   ar
    52    21    16   ar
    53     8     3   ar
    54    42    37   ar
    55    48    43   ar
    56    11    14    1
    57    33    36    1
@<TRIPOS>MOLECULE
*****
 52 57 0 0 0
SMALL
GASTEIGER

@<TRIPOS>ATOM
      1 C           2.9533    0.8937   26.1743 C.ar    1  UNL1        0.1140
      2 C           3.7015    0.4241   27.3866 C.ar    1  UNL1        0.0233
      3 C           2.8972    0.7905   28.5985 C.ar    1  UNL1        0.0186
      4 C           3.1378    0.5802   30.0640 C.ar    1  UNL1        0.0162
      5 C           2.1332    1.0661   31.0663 C.ar    1  UNL1        0.0506
      6 C           0.8879    1.7622   30.6030 C.ar    1  UNL1        0.0162
      7 C           0.6472    1.9724   29.1375 C.ar    1  UNL1        0.0185
      8 C           1.6519    1.4866   28.1353 C.ar    1  UNL1        0.0601
      9 N           1.6866    1.5504   26.6370 N.ar    1  UNL1       -0.3216
     10 C           0.6385    2.1633   25.7561 C.3     1  UNL1        0.1306
     11 N           2.4700    0.1166   23.7427 N.am    1  UNL1       -0.2902
     12 C           3.3944    0.7346   24.7495 C.2     1  UNL1        0.2623
     13 O           4.7599    1.1935   24.3314 O.2     1  UNL1       -0.2685
     14 H           1.5738   -0.1846   24.0171 H       1  UNL1        0.1505
     15 C           2.9112   -0.0425   22.3179 C.3     1  UNL1        0.1720
     16 C           3.3861   -1.3771   21.8244 C.ar    1  UNL1        0.0043
     17 C           4.1398   -2.2918   22.7437 C.ar    1  UNL1       -0.0022
     18 C           4.6147   -3.6264   22.2501 C.ar    1  UNL1       -0.0003
     19 C           4.3359   -4.0461   20.8373 C.ar    1  UNL1       -0.0000
     20 C           3.5821   -3.1313   19.9180 C.ar    1  UNL1       -0.0003
     21 C           3.1072   -1.7968   20.4116 C.ar    1  UNL1       -0.0022
     22 C           4.1199    2.8449   19.8784 C.3     1  UNL1        0.1152
     23 N           4.1537    1.6696   20.8097 N.am    1  UNL1       -0.2721
     24 C           2.8774    1.1328   21.3866 C.2     1  UNL1        0.2481
     25 O           1.5672    1.7715   21.0323 O.2     1  UNL1       -0.2727
     26 C           5.4639    1.0309   21.1640 C.3     1  UNL1        0.1202
     27 C           6.0577   -0.0118   20.2640 C.ar    1  UNL1       -0.0023
     28 C           5.7236   -0.0187   18.8016 C.ar    1  UNL1       -0.0026
     29 C           6.3175   -1.0614   17.9016 C.ar    1  UNL1       -0.0003
     30 C           7.2454   -2.0972   18.4639 C.ar    1  UNL1       -0.0000
     31 C           7.5794   -2.0903   19.9262 C.ar    1  UNL1       -0.0003
     32 C           6.9856   -1.0476   20.8262 C.ar    1  UNL1       -0.0026
     33 N           2.3738    0.8558   32.5319 N.am    1  UNL1       -0.2804
     34 C           3.3880    1.6933   33.2532 C.2     1  UNL1        0.2495
     35 O           4.1615    2.7410   32.5088 O.2     1  UNL1       -0.2698
     36 H           1.8661    0.1681   33.0205 H       1  UNL1        0.1552
     37 C           3.6286    1.4830   34.7187 C.ar    1  UNL1        0.0537
     38 C           3.0639    2.4491   35.7176 C.ar    1  UNL1        0.0045
     39 C           3.3046    2.2388   37.1832 C.ar    1  UNL1        0.0001
     40 C           4.1100    1.0626   37.6498 C.ar    1  UNL1        0.0000
     41 C           4.6746    0.0965   36.6509 C.ar    1  UNL1        0.0001
     42 C           4.4340    0.3067   35.1854 C.ar    1  UNL1        0.0044
     43 C           4.9987   -0.6593   34.1864 C.ar    1  UNL1        0.0001
     44 C           4.2785   -1.9421   33.8936 C.ar    1  UNL1       -0.0001
     45 C           4.8432   -2.9081   32.8947 C.ar    1  UNL1        0.0039
     46 C           6.1281   -2.5914   32.1886 C.ar    1  UNL1        0.0714
     47 C           6.8484   -1.3086   32.4814 C.ar    1  UNL1        0.0039
     48 C           6.2837   -0.3426   33.4803 C.ar    1  UNL1       -0.0001
     49 C           6.6928   -3.5575   31.1896 C.3     1  UNL1        0.4186
     50 F           7.2575   -4.5235   30.1907 F       1  UNL1       -0.1659
     51 F           6.6517   -4.6469   32.2200 F       1  UNL1       -0.1659
     52 F           6.7338   -2.4681   30.1593 F       1  UNL1       -0.1659
@<TRIPOS>BOND
     1    22    23    1
     2    23    26    1
     3    26    27    1
     4    27    28   ar
     5    28    29   ar
     6    29    30   ar
     7    30    31   ar
     8    31    32   ar
     9    23    24   am
    10    24    25    2
    11    24    15    1
    12    15    11    1
    13    11    12   am
    14    12    13    2
    15    12     1    1
    16     1     2   ar
    17     2     3   ar
    18     3     4   ar
    19     4     5   ar
    20     5    33    1
    21    33    34   am
    22    34    35    2
    23    34    37    1
    24    37    38   ar
    25    38    39   ar
    26    39    40   ar
    27    40    41   ar
    28    41    42   ar
    29    42    43    1
    30    43    44   ar
    31    44    45   ar
    32    45    46   ar
    33    46    49    1
    34    49    50    1
    35    49    51    1
    36    49    52    1
    37    46    47   ar
    38    47    48   ar
    39     5     6   ar
    40     6     7   ar
    41     7     8   ar
    42     8     9   ar
    43     9    10    1
    44    15    16    1
    45    16    17   ar
    46    17    18   ar
    47    18    19   ar
    48    19    20   ar
    49    20    21   ar
    50    32    27   ar
    51     9     1   ar
    52    21    16   ar
    53     8     3   ar
    54    42    37   ar
    55    48    43   ar
    56    11    14    1
    57    33    36    1
@<TRIPOS>MOLECULE
*****
 52 57 0 0 0
SMALL
GASTEIGER

@<TRIPOS>ATOM
      1 C           5.4836   -2.4649   26.2392 C.ar    1  UNL1        0.1140
      2 C           4.9786   -2.3162   24.8346 C.ar    1  UNL1        0.0233
      3 C           3.9915   -1.1871   24.8139 C.ar    1  UNL1        0.0186
      4 C           3.1748   -0.5880   23.7075 C.ar    1  UNL1        0.0162
      5 C           2.2529    0.5603   23.9930 C.ar    1  UNL1        0.0506
      6 C           2.1477    1.1095   25.3849 C.ar    1  UNL1        0.0162
      7 C           2.9644    0.5104   26.4912 C.ar    1  UNL1        0.0185
      8 C           3.8862   -0.6378   26.2058 C.ar    1  UNL1        0.0601
      9 N           4.8084   -1.4276   27.0866 N.ar    1  UNL1       -0.3216
     10 C           5.0185   -1.2170   28.5568 C.3     1  UNL1        0.1306
     11 N           6.1874   -4.9393   26.6025 N.am    1  UNL1       -0.2902
     12 C           6.4873   -3.4738   26.7131 C.2     1  UNL1        0.2623
     13 O           7.7910   -3.0171   27.2977 O.2     1  UNL1       -0.2685
     14 H           5.3318   -5.2390   26.2188 H       1  UNL1        0.1505
     15 C           7.1912   -5.9481   27.0765 C.3     1  UNL1        0.1720
     16 C           7.6551   -5.9316   28.5029 C.ar    1  UNL1        0.0043
     17 C           6.7027   -5.5491   29.5968 C.ar    1  UNL1       -0.0022
     18 C           7.1666   -5.5326   31.0233 C.ar    1  UNL1       -0.0003
     19 C           8.5827   -5.8986   31.3557 C.ar    1  UNL1       -0.0000
     20 C           9.5351   -6.2811   30.2617 C.ar    1  UNL1       -0.0003
     21 C           9.0712   -6.2976   28.8353 C.ar    1  UNL1       -0.0022
     22 C           9.2547   -7.5951   24.1135 C.3     1  UNL1        0.1152
     23 N           8.7147   -6.5698   25.0659 N.am    1  UNL1       -0.2721
     24 C           7.7312   -6.9734   26.1241 C.2     1  UNL1        0.2481
     25 O           7.2876   -8.4024   26.2298 O.2     1  UNL1       -0.2727
     26 C           9.1583   -5.1408   24.9602 C.3     1  UNL1        0.1202
     27 C           8.5462   -4.2399   23.9289 C.ar    1  UNL1       -0.0023
     28 C           9.0936   -2.8590   23.7195 C.ar    1  UNL1       -0.0026
     29 C           8.4815   -1.9580   22.6882 C.ar    1  UNL1       -0.0003
     30 C           7.3219   -2.4379   21.8664 C.ar    1  UNL1       -0.0000
     31 C           6.7746   -3.8186   22.0758 C.ar    1  UNL1       -0.0003
     32 C           7.3867   -4.7196   23.1071 C.ar    1  UNL1       -0.0026
     33 N           1.4362    1.1594   22.8866 N.am    1  UNL1       -0.2804
     34 C           2.0679    2.1208   21.9240 C.2     1  UNL1        0.2495
     35 O           3.5165    2.4831   22.0679 O.2     1  UNL1       -0.2698
     36 H           0.4855    0.9216   22.7922 H       1  UNL1        0.1552
     37 C           1.2513    2.7199   20.8177 C.ar    1  UNL1        0.0537
     38 C           0.4545    3.9667   21.0641 C.ar    1  UNL1        0.0045
     39 C          -0.3622    4.5658   19.9576 C.ar    1  UNL1        0.0001
     40 C          -0.3821    3.9181   18.6048 C.ar    1  UNL1        0.0000
     41 C           0.4148    2.6714   18.3584 C.ar    1  UNL1        0.0001
     42 C           1.2314    2.0723   19.4647 C.ar    1  UNL1        0.0044
     43 C           2.0282    0.8256   19.2183 C.ar    1  UNL1        0.0001
     44 C           1.6500   -0.4540   19.9035 C.ar    1  UNL1       -0.0001
     45 C           2.4468   -1.7007   19.6570 C.ar    1  UNL1        0.0039
     46 C           3.6219   -1.6679   18.7254 C.ar    1  UNL1        0.0714
     47 C           4.0002   -0.3883   18.0401 C.ar    1  UNL1        0.0039
     48 C           3.2034    0.8585   18.2866 C.ar    1  UNL1       -0.0001
     49 C           4.4187   -2.9146   18.4790 C.3     1  UNL1        0.4186
     50 F           5.2155   -4.1614   18.2325 F       1  UNL1       -0.1659
     51 F           5.5455   -2.0870   17.9355 F       1  UNL1       -0.1659
     52 F           3.2919   -3.7422   19.0224 F       1  UNL1       -0.1659
@<TRIPOS>BOND
     1    22    23    1
     2    23    26    1
     3    26    27    1
     4    27    28   ar
     5    28    29   ar
     6    29    30   ar
     7    30    31   ar
     8    31    32   ar
     9    23    24   am
    10    24    25    2
    11    24    15    1
    12    15    11    1
    13    11    12   am
    14    12    13    2
    15    12     1    1
    16     1     2   ar
    17     2     3   ar
    18     3     4   ar
    19     4     5   ar
    20     5    33    1
    21    33    34   am
    22    34    35    2
    23    34    37    1
    24    37    38   ar
    25    38    39   ar
    26    39    40   ar
    27    40    41   ar
    28    41    42   ar
    29    42    43    1
    30    43    44   ar
    31    44    45   ar
    32    45    46   ar
    33    46    49    1
    34    49    50    1
    35    49    51    1
    36    49    52    1
    37    46    47   ar
    38    47    48   ar
    39     5     6   ar
    40     6     7   ar
    41     7     8   ar
    42     8     9   ar
    43     9    10    1
    44    15    16    1
    45    16    17   ar
    46    17    18   ar
    47    18    19   ar
    48    19    20   ar
    49    20    21   ar
    50    32    27   ar
    51     9     1   ar
    52    21    16   ar
    53     8     3   ar
    54    42    37   ar
    55    48    43   ar
    56    11    14    1
    57    33    36    1
@<TRIPOS>MOLECULE
*****
 52 57 0 0 0
SMALL
GASTEIGER

@<TRIPOS>ATOM
      1 C           4.2631   -0.4498   25.6920 C.ar    1  UNL1        0.1140
      2 C           4.8273   -0.7904   27.0395 C.ar    1  UNL1        0.0233
      3 C           3.8738   -0.2868   28.0821 C.ar    1  UNL1        0.0186
      4 C           3.9068   -0.3376   29.5809 C.ar    1  UNL1        0.0162
      5 C           2.7864    0.2635   30.3765 C.ar    1  UNL1        0.0506
      6 C           1.6328    0.9154   29.6735 C.ar    1  UNL1        0.0162
      7 C           1.5997    0.9661   28.1747 C.ar    1  UNL1        0.0185
      8 C           2.7202    0.3651   27.3791 C.ar    1  UNL1        0.0601
      9 N           2.9608    0.2643   25.9019 N.ar    1  UNL1       -0.3216
     10 C           2.0577    0.7861   24.8239 C.3     1  UNL1        0.1306
     11 N           5.0864   -2.1959   23.9533 N.am    1  UNL1       -0.2902
     12 C           4.8909   -0.7676   24.3673 C.2     1  UNL1        0.2623
     13 O           5.3232    0.3431   23.4566 O.2     1  UNL1       -0.2685
     14 H           4.8027   -2.9249   24.5511 H       1  UNL1        0.1505
     15 C           5.7143   -2.5137   22.6286 C.3     1  UNL1        0.1720
     16 C           4.8484   -2.8164   21.4416 C.ar    1  UNL1        0.0043
     17 C           3.9547   -1.7535   20.8746 C.ar    1  UNL1       -0.0022
     18 C           3.0889   -2.0562   19.6877 C.ar    1  UNL1       -0.0003
     19 C           3.1169   -3.4218   19.0678 C.ar    1  UNL1       -0.0000
     20 C           4.0106   -4.4847   19.6348 C.ar    1  UNL1       -0.0003
     21 C           4.8764   -4.1820   20.8217 C.ar    1  UNL1       -0.0022
     22 C           9.4818   -3.7518   22.7792 C.3     1  UNL1        0.1152
     23 N           7.9882   -3.7367   22.9170 N.am    1  UNL1       -0.2721
     24 C           7.2078   -2.5287   22.4908 C.2     1  UNL1        0.2481
     25 O           7.9209   -1.3357   21.9268 O.2     1  UNL1       -0.2727
     26 C           7.2751   -4.9297   23.4810 C.3     1  UNL1        0.1202
     27 C           7.4137   -5.2679   24.9358 C.ar    1  UNL1       -0.0023
     28 C           6.9860   -4.2792   25.9796 C.ar    1  UNL1       -0.0026
     29 C           7.1247   -4.6173   27.4344 C.ar    1  UNL1       -0.0003
     30 C           7.6911   -5.9442   27.8454 C.ar    1  UNL1       -0.0000
     31 C           8.1187   -6.9328   26.8015 C.ar    1  UNL1       -0.0003
     32 C           7.9800   -6.5946   25.3467 C.ar    1  UNL1       -0.0026
     33 N           2.8194    0.2127   31.8754 N.am    1  UNL1       -0.2804
     34 C           3.7265    1.1330   32.6371 C.2     1  UNL1        0.2495
     35 O           4.6005    2.1041   31.9001 O.2     1  UNL1       -0.2698
     36 H           2.2458   -0.4246   32.3591 H       1  UNL1        0.1552
     37 C           3.7596    1.0823   34.1359 C.ar    1  UNL1        0.0537
     38 C           2.9456    2.0544   34.9374 C.ar    1  UNL1        0.0045
     39 C           2.9787    2.0036   36.4362 C.ar    1  UNL1        0.0001
     40 C           3.8258    0.9808   37.1334 C.ar    1  UNL1        0.0000
     41 C           4.6398    0.0086   36.3319 C.ar    1  UNL1        0.0001
     42 C           4.6067    0.0594   34.8332 C.ar    1  UNL1        0.0044
     43 C           5.4206   -0.9128   34.0317 C.ar    1  UNL1        0.0001
     44 C           6.8799   -0.6558   33.7983 C.ar    1  UNL1       -0.0001
     45 C           7.6938   -1.6280   32.9968 C.ar    1  UNL1        0.0039
     46 C           7.0486   -2.8571   32.4287 C.ar    1  UNL1        0.0714
     47 C           5.5892   -3.1141   32.6620 C.ar    1  UNL1        0.0039
     48 C           4.7753   -2.1420   33.4635 C.ar    1  UNL1       -0.0001
     49 C           7.8625   -3.8292   31.6272 C.3     1  UNL1        0.4186
     50 F           8.6765   -4.8013   30.8257 F       1  UNL1       -0.1659
     51 F           6.6039   -4.5006   31.1633 F       1  UNL1       -0.1659
     52 F           9.1211   -3.1578   32.0911 F       1  UNL1       -0.1659
@<TRIPOS>BOND
     1    22    23    1
     2    23    26    1
     3    26    27    1
     4    27    28   ar
     5    28    29   ar
     6    29    30   ar
     7    30    31   ar
     8    31    32   ar
     9    23    24   am
    10    24    25    2
    11    24    15    1
    12    15    11    1
    13    11    12   am
    14    12    13    2
    15    12     1    1
    16     1     2   ar
    17     2     3   ar
    18     3     4   ar
    19     4     5   ar
    20     5    33    1
    21    33    34   am
    22    34    35    2
    23    34    37    1
    24    37    38   ar
    25    38    39   ar
    26    39    40   ar
    27    40    41   ar
    28    41    42   ar
    29    42    43    1
    30    43    44   ar
    31    44    45   ar
    32    45    46   ar
    33    46    49    1
    34    49    50    1
    35    49    51    1
    36    49    52    1
    37    46    47   ar
    38    47    48   ar
    39     5     6   ar
    40     6     7   ar
    41     7     8   ar
    42     8     9   ar
    43     9    10    1
    44    15    16    1
    45    16    17   ar
    46    17    18   ar
    47    18    19   ar
    48    19    20   ar
    49    20    21   ar
    50    32    27   ar
    51     9     1   ar
    52    21    16   ar
    53     8     3   ar
    54    42    37   ar
    55    48    43   ar
    56    11    14    1
    57    33    36    1
@<TRIPOS>MOLECULE
*****
 52 57 0 0 0
SMALL
GASTEIGER

@<TRIPOS>ATOM
      1 C           1.7154    1.0850   22.8478 C.ar    1  UNL1        0.1140
      2 C           0.6771    1.8979   22.1328 C.ar    1  UNL1        0.0233
      3 C          -0.2489    2.4755   23.1619 C.ar    1  UNL1        0.0186
      4 C          -1.4563    3.3577   23.0433 C.ar    1  UNL1        0.0162
      5 C          -2.1976    3.7838   24.2756 C.ar    1  UNL1        0.0506
      6 C          -1.7317    3.3279   25.6265 C.ar    1  UNL1        0.0162
      7 C          -0.5243    2.4457   25.7451 C.ar    1  UNL1        0.0185
      8 C           0.2170    2.0195   24.5128 C.ar    1  UNL1        0.0601
      9 N           1.4310    1.1602   24.3186 N.ar    1  UNL1       -0.3216
     10 C           2.2219    0.4931   25.4047 C.3     1  UNL1        0.1306
     11 N           2.5579   -0.9289   21.4392 N.am    1  UNL1       -0.2902
     12 C           2.8405    0.3296   22.2047 C.2     1  UNL1        0.2623
     13 O           4.2483    0.8328   22.3272 O.2     1  UNL1       -0.2685
     14 H           1.6339   -1.2592   21.3588 H       1  UNL1        0.1505
     15 C           3.6830   -1.6844   20.7962 C.3     1  UNL1        0.1720
     16 C           4.8137   -2.2031   21.6344 C.ar    1  UNL1        0.0043
     17 C           6.2326   -1.9297   21.2317 C.ar    1  UNL1       -0.0022
     18 C           7.3633   -2.4484   22.0699 C.ar    1  UNL1       -0.0003
     19 C           7.0751   -3.2404   23.3108 C.ar    1  UNL1       -0.0000
     20 C           5.6561   -3.5137   23.7134 C.ar    1  UNL1       -0.0003
     21 C           4.5255   -2.9950   22.8752 C.ar    1  UNL1       -0.0022
     22 C           3.8368   -1.0042   16.8893 C.3     1  UNL1        0.1152
     23 N           3.8423   -0.7675   18.3705 N.am    1  UNL1       -0.2721
     24 C           3.6774   -1.9211   19.3150 C.2     1  UNL1        0.2481
     25 O           3.5070   -3.3113   18.7784 O.2     1  UNL1       -0.2727
     26 C           4.0128    0.6228   18.9071 C.3     1  UNL1        0.1202
     27 C           2.9519    1.6553   18.6655 C.ar    1  UNL1       -0.0023
     28 C           3.3294    3.1006   18.5285 C.ar    1  UNL1       -0.0026
     29 C           2.2685    4.1332   18.2869 C.ar    1  UNL1       -0.0003
     30 C           0.8302    3.7204   18.1822 C.ar    1  UNL1       -0.0000
     31 C           0.4528    2.2752   18.3191 C.ar    1  UNL1       -0.0003
     32 C           1.5137    1.2426   18.5608 C.ar    1  UNL1       -0.0026
     33 N          -3.4050    4.6661   24.1571 N.am    1  UNL1       -0.2804
     34 C          -4.7207    4.0837   23.7331 C.2     1  UNL1        0.2495
     35 O          -4.8290    2.6190   23.4276 O.2     1  UNL1       -0.2698
     36 H          -3.3339    5.6273   24.3575 H       1  UNL1        0.1552
     37 C          -5.9280    4.9658   23.6145 C.ar    1  UNL1        0.0537
     38 C          -6.7143    5.3296   24.8391 C.ar    1  UNL1        0.0045
     39 C          -7.9217    6.2118   24.7205 C.ar    1  UNL1        0.0001
     40 C          -8.3428    6.7301   23.3774 C.ar    1  UNL1        0.0000
     41 C          -7.5566    6.3663   22.1528 C.ar    1  UNL1        0.0001
     42 C          -6.3492    5.4842   22.2714 C.ar    1  UNL1        0.0044
     43 C          -5.5630    5.1204   21.0468 C.ar    1  UNL1        0.0001
     44 C          -6.0215    3.9945   20.1682 C.ar    1  UNL1       -0.0001
     45 C          -5.2353    3.6307   18.9437 C.ar    1  UNL1        0.0039
     46 C          -3.9905    4.3928   18.5978 C.ar    1  UNL1        0.0714
     47 C          -3.5319    5.5188   19.4764 C.ar    1  UNL1        0.0039
     48 C          -4.3182    5.8826   20.7010 C.ar    1  UNL1       -0.0001
     49 C          -3.2043    4.0290   17.3732 C.3     1  UNL1        0.4186
     50 F          -2.4181    3.6652   16.1487 F       1  UNL1       -0.1659
     51 F          -4.3193    3.1319   16.9239 F       1  UNL1       -0.1659
     52 F          -2.0893    4.9262   17.8226 F       1  UNL1       -0.1659
@<TRIPOS>BOND
     1    22    23    1
     2    23    26    1
     3    26    27    1
     4    27    28   ar
     5    28    29   ar
     6    29    30   ar
     7    30    31   ar
     8    31    32   ar
     9    23    24   am
    10    24    25    2
    11    24    15    1
    12    15    11    1
    13    11    12   am
    14    12    13    2
    15    12     1    1
    16     1     2   ar
    17     2     3   ar
    18     3     4   ar
    19     4     5   ar
    20     5    33    1
    21    33    34   am
    22    34    35    2
    23    34    37    1
    24    37    38   ar
    25    38    39   ar
    26    39    40   ar
    27    40    41   ar
    28    41    42   ar
    29    42    43    1
    30    43    44   ar
    31    44    45   ar
    32    45    46   ar
    33    46    49    1
    34    49    50    1
    35    49    51    1
    36    49    52    1
    37    46    47   ar
    38    47    48   ar
    39     5     6   ar
    40     6     7   ar
    41     7     8   ar
    42     8     9   ar
    43     9    10    1
    44    15    16    1
    45    16    17   ar
    46    17    18   ar
    47    18    19   ar
    48    19    20   ar
    49    20    21   ar
    50    32    27   ar
    51     9     1   ar
    52    21    16   ar
    53     8     3   ar
    54    42    37   ar
    55    48    43   ar
    56    11    14    1
    57    33    36    1
@<TRIPOS>MOLECULE
*****
 52 57 0 0 0
SMALL
GASTEIGER

@<TRIPOS>ATOM
      1 C           0.7444    2.6131   22.9728 C.ar    1  UNL1        0.1140
      2 C           1.3989    1.3327   22.5459 C.ar    1  UNL1        0.0233
      3 C           2.0823    0.7400   23.7424 C.ar    1  UNL1        0.0186
      4 C           2.8860   -0.5139   23.9205 C.ar    1  UNL1        0.0162
      5 C           3.4576   -0.8537   25.2650 C.ar    1  UNL1        0.0506
      6 C           3.2256    0.0605   26.4314 C.ar    1  UNL1        0.0162
      7 C           2.4219    1.3144   26.2533 C.ar    1  UNL1        0.0185
      8 C           1.8503    1.6542   24.9088 C.ar    1  UNL1        0.0601
      9 N           1.0234    2.8118   24.4331 N.ar    1  UNL1       -0.3216
     10 C           0.5573    3.9655   25.2708 C.3     1  UNL1        0.1306
     11 N          -0.9144    2.9698   21.0053 N.am    1  UNL1       -0.2902
     12 C          -0.0496    3.5332   22.0936 C.2     1  UNL1        0.2623
     13 O           0.0211    5.0169   22.3029 O.2     1  UNL1       -0.2685
     14 H          -0.9609    1.9960   20.8679 H       1  UNL1        0.1505
     15 C          -1.7085    3.8899   20.1262 C.3     1  UNL1        0.1720
     16 C          -3.2076    3.8466   20.1552 C.ar    1  UNL1        0.0043
     17 C          -3.9310    3.7882   21.4679 C.ar    1  UNL1       -0.0022
     18 C          -5.4301    3.7449   21.4969 C.ar    1  UNL1       -0.0003
     19 C          -6.2058    3.7599   20.2131 C.ar    1  UNL1       -0.0000
     20 C          -5.4824    3.8182   18.9003 C.ar    1  UNL1       -0.0003
     21 C          -3.9833    3.8616   18.8714 C.ar    1  UNL1       -0.0022
     22 C           0.5575    5.3030   17.1905 C.3     1  UNL1        0.1152
     23 N          -0.1475    4.3396   18.0986 N.am    1  UNL1       -0.2721
     24 C          -1.0034    4.8534   19.2181 C.2     1  UNL1        0.2481
     25 O          -1.1544    6.3307   19.4295 O.2     1  UNL1       -0.2727
     26 C           0.0034    2.8623   17.8871 C.3     1  UNL1        0.1202
     27 C           1.1814    2.1379   18.4681 C.ar    1  UNL1       -0.0023
     28 C           1.2438    0.6402   18.4109 C.ar    1  UNL1       -0.0026
     29 C           2.4218   -0.0841   18.9919 C.ar    1  UNL1       -0.0003
     30 C           3.5375    0.6892   19.6301 C.ar    1  UNL1       -0.0000
     31 C           3.4751    2.1868   19.6874 C.ar    1  UNL1       -0.0003
     32 C           2.2971    2.9111   19.1064 C.ar    1  UNL1       -0.0026
     33 N           4.2613   -2.1076   25.4432 N.am    1  UNL1       -0.2804
     34 C           5.7253   -2.1129   25.1165 C.2     1  UNL1        0.2495
     35 O           6.3856   -0.8641   24.6117 O.2     1  UNL1       -0.2698
     36 H           3.8280   -2.9272   25.7745 H       1  UNL1        0.1552
     37 C           6.5290   -3.3668   25.2946 C.ar    1  UNL1        0.0537
     38 C           6.9996   -3.7682   26.6612 C.ar    1  UNL1        0.0045
     39 C           7.8033   -5.0222   26.8393 C.ar    1  UNL1        0.0001
     40 C           8.1365   -5.8746   25.6509 C.ar    1  UNL1        0.0000
     41 C           7.6659   -5.4731   24.2844 C.ar    1  UNL1        0.0001
     42 C           6.8622   -4.2193   24.1062 C.ar    1  UNL1        0.0044
     43 C           6.3916   -3.8178   22.7397 C.ar    1  UNL1        0.0001
     44 C           4.9326   -3.8866   22.3986 C.ar    1  UNL1       -0.0001
     45 C           4.4620   -3.4852   21.0321 C.ar    1  UNL1        0.0039
     46 C           5.4505   -3.0149   20.0066 C.ar    1  UNL1        0.0714
     47 C           6.9097   -2.9461   20.3476 C.ar    1  UNL1        0.0039
     48 C           7.3802   -3.3475   21.7142 C.ar    1  UNL1       -0.0001
     49 C           4.9799   -2.6135   18.6401 C.3     1  UNL1        0.4186
     50 F           4.5094   -2.2120   17.2736 F       1  UNL1       -0.1659
     51 F           6.3227   -2.0084   18.3555 F       1  UNL1       -0.1659
     52 F           3.6372   -3.2185   18.9247 F       1  UNL1       -0.1659
@<TRIPOS>BOND
     1    22    23    1
     2    23    26    1
     3    26    27    1
     4    27    28   ar
     5    28    29   ar
     6    29    30   ar
     7    30    31   ar
     8    31    32   ar
     9    23    24   am
    10    24    25    2
    11    24    15    1
    12    15    11    1
    13    11    12   am
    14    12    13    2
    15    12     1    1
    16     1     2   ar
    17     2     3   ar
    18     3     4   ar
    19     4     5   ar
    20     5    33    1
    21    33    34   am
    22    34    35    2
    23    34    37    1
    24    37    38   ar
    25    38    39   ar
    26    39    40   ar
    27    40    41   ar
    28    41    42   ar
    29    42    43    1
    30    43    44   ar
    31    44    45   ar
    32    45    46   ar
    33    46    49    1
    34    49    50    1
    35    49    51    1
    36    49    52    1
    37    46    47   ar
    38    47    48   ar
    39     5     6   ar
    40     6     7   ar
    41     7     8   ar
    42     8     9   ar
    43     9    10    1
    44    15    16    1
    45    16    17   ar
    46    17    18   ar
    47    18    19   ar
    48    19    20   ar
    49    20    21   ar
    50    32    27   ar
    51     9     1   ar
    52    21    16   ar
    53     8     3   ar
    54    42    37   ar
    55    48    43   ar
    56    11    14    1
    57    33    36    1
@<TRIPOS>MOLECULE
*****
 52 57 0 0 0
SMALL
GASTEIGER

@<TRIPOS>ATOM
      1 C           2.8083    0.0499   25.8406 C.ar    1  UNL1        0.1140
      2 C           1.6499    0.9006   25.4109 C.ar    1  UNL1        0.0233
      3 C           1.4881    0.7483   23.9274 C.ar    1  UNL1        0.0186
      4 C           0.5139    1.3479   22.9573 C.ar    1  UNL1        0.0162
      5 C           0.5979    1.0027   21.5000 C.ar    1  UNL1        0.0506
      6 C           1.6563    0.0579   21.0129 C.ar    1  UNL1        0.0162
      7 C           2.6306   -0.5417   21.9830 C.ar    1  UNL1        0.0185
      8 C           2.5465   -0.1965   23.4403 C.ar    1  UNL1        0.0601
      9 N           3.3624   -0.6281   24.6227 N.ar    1  UNL1       -0.3216
     10 C           4.5277   -1.5720   24.5925 C.3     1  UNL1        0.1306
     11 N           4.2046    0.9629   27.8323 N.am    1  UNL1       -0.2902
     12 C           3.3223   -0.0969   27.2421 C.2     1  UNL1        0.2623
     13 O           2.9539   -1.3035   28.0535 O.2     1  UNL1       -0.2685
     14 H           4.4464    1.7548   27.2998 H       1  UNL1        0.1505
     15 C           4.7186    0.8160   29.2338 C.3     1  UNL1        0.1720
     16 C           5.4734   -0.4182   29.6304 C.ar    1  UNL1        0.0043
     17 C           5.1437   -1.1186   30.9152 C.ar    1  UNL1       -0.0022
     18 C           5.8985   -2.3527   31.3117 C.ar    1  UNL1       -0.0003
     19 C           6.9830   -2.8864   30.4235 C.ar    1  UNL1       -0.0000
     20 C           7.3127   -2.1859   29.1386 C.ar    1  UNL1       -0.0003
     21 C           6.5579   -0.9518   28.7421 C.ar    1  UNL1       -0.0022
     22 C           2.9142    3.0842   31.9448 C.3     1  UNL1        0.1152
     23 N           3.1550    1.9969   30.9399 N.am    1  UNL1       -0.2721
     24 C           4.4778    1.9032   30.2388 C.2     1  UNL1        0.2481
     25 O           5.5597    2.8967   30.5425 O.2     1  UNL1       -0.2727
     26 C           2.0731    1.0035   30.6361 C.3     1  UNL1        0.1202
     27 C           1.0379    1.3163   29.5967 C.ar    1  UNL1       -0.0023
     28 C           0.9808    2.6838   28.9828 C.ar    1  UNL1       -0.0026
     29 C          -0.0545    2.9967   27.9434 C.ar    1  UNL1       -0.0003
     30 C          -1.0327    1.9421   27.5179 C.ar    1  UNL1       -0.0000
     31 C          -0.9756    0.5747   28.1318 C.ar    1  UNL1       -0.0003
     32 C           0.0597    0.2618   29.1712 C.ar    1  UNL1       -0.0026
     33 N          -0.3764    1.6022   20.5298 N.am    1  UNL1       -0.2804
     34 C          -0.1685    2.9993   20.0248 C.2     1  UNL1        0.2495
     35 O           1.0138    3.7968   20.4900 O.2     1  UNL1       -0.2698
     36 H          -1.1523    1.0788   20.2244 H       1  UNL1        0.1552
     37 C          -1.1427    3.5988   19.0546 C.ar    1  UNL1        0.0537
     38 C          -0.7940    3.6853   17.5983 C.ar    1  UNL1        0.0045
     39 C          -1.7683    4.2849   16.6281 C.ar    1  UNL1        0.0001
     40 C          -3.0913    4.7980   17.1142 C.ar    1  UNL1        0.0000
     41 C          -3.4400    4.7116   18.5705 C.ar    1  UNL1        0.0001
     42 C          -2.4658    4.1120   19.5407 C.ar    1  UNL1        0.0044
     43 C          -2.8145    4.0256   20.9971 C.ar    1  UNL1        0.0001
     44 C          -1.9700    4.7346   22.0139 C.ar    1  UNL1       -0.0001
     45 C          -2.3187    4.6482   23.4702 C.ar    1  UNL1        0.0039
     46 C          -3.5120    3.8527   23.9097 C.ar    1  UNL1        0.0714
     47 C          -4.3566    3.1436   22.8929 C.ar    1  UNL1        0.0039
     48 C          -4.0079    3.2300   21.4366 C.ar    1  UNL1       -0.0001
     49 C          -3.8607    3.7662   25.3661 C.3     1  UNL1        0.4186
     50 F          -4.2094    3.6798   26.8224 F       1  UNL1       -0.1659
     51 F          -2.5179    4.3325   25.7212 F       1  UNL1       -0.1659
     52 F          -5.2035    3.1999   25.0109 F       1  UNL1       -0.1659
@<TRIPOS>BOND
     1    22    23    1
     2    23    26    1
     3    26    27    1
     4    27    28   ar
     5    28    29   ar
     6    29    30   ar
     7    30    31   ar
     8    31    32   ar
     9    23    24   am
    10    24    25    2
    11    24    15    1
    12    15    11    1
    13    11    12   am
    14    12    13    2
    15    12     1    1
    16     1     2   ar
    17     2     3   ar
    18     3     4   ar
    19     4     5   ar
    20     5    33    1
    21    33    34   am
    22    34    35    2
    23    34    37    1
    24    37    38   ar
    25    38    39   ar
    26    39    40   ar
    27    40    41   ar
    28    41    42   ar
    29    42    43    1
    30    43    44   ar
    31    44    45   ar
    32    45    46   ar
    33    46    49    1
    34    49    50    1
    35    49    51    1
    36    49    52    1
    37    46    47   ar
    38    47    48   ar
    39     5     6   ar
    40     6     7   ar
    41     7     8   ar
    42     8     9   ar
    43     9    10    1
    44    15    16    1
    45    16    17   ar
    46    17    18   ar
    47    18    19   ar
    48    19    20   ar
    49    20    21   ar
    50    32    27   ar
    51     9     1   ar
    52    21    16   ar
    53     8     3   ar
    54    42    37   ar
    55    48    43   ar
    56    11    14    1
    57    33    36    1
@<TRIPOS>MOLECULE
*****
 52 57 0 0 0
SMALL
GASTEIGER

@<TRIPOS>ATOM
      1 C           4.3300   -1.4351   25.4374 C.ar    1  UNL1        0.1140
      2 C           4.7191   -1.7411   26.8534 C.ar    1  UNL1        0.0233
      3 C           3.8676   -0.9023   27.7597 C.ar    1  UNL1        0.0186
      4 C           3.8075   -0.7827   29.2537 C.ar    1  UNL1        0.0162
      5 C           2.8320    0.1613   29.8918 C.ar    1  UNL1        0.0506
      6 C           1.9167    0.9858   29.0359 C.ar    1  UNL1        0.0162
      7 C           1.9768    0.8661   27.5419 C.ar    1  UNL1        0.0185
      8 C           2.9523   -0.0779   26.9038 C.ar    1  UNL1        0.0601
      9 N           3.2381   -0.4072   25.4686 N.ar    1  UNL1       -0.3216
     10 C           2.5523    0.1871   24.2742 C.3     1  UNL1        0.1306
     11 N           4.6138   -1.4785   22.8552 N.am    1  UNL1       -0.2902
     12 C           4.9279   -2.0492   24.2064 C.2     1  UNL1        0.2623
     13 O           5.8400   -3.2339   24.3265 O.2     1  UNL1       -0.2685
     14 H           4.0152   -0.7009   22.7764 H       1  UNL1        0.1505
     15 C           5.2117   -2.0926   21.6242 C.3     1  UNL1        0.1720
     16 C           6.4761   -1.5312   21.0444 C.ar    1  UNL1        0.0043
     17 C           7.6118   -2.4464   20.6944 C.ar    1  UNL1       -0.0022
     18 C           8.8762   -1.8850   20.1146 C.ar    1  UNL1       -0.0003
     19 C           9.0048   -0.4083   19.8847 C.ar    1  UNL1       -0.0000
     20 C           7.8691    0.5070   20.2347 C.ar    1  UNL1       -0.0003
     21 C           6.6047   -0.0545   20.8145 C.ar    1  UNL1       -0.0022
     22 C           3.2123   -4.2836   18.9877 C.3     1  UNL1        0.1152
     23 N           3.8787   -3.1081   19.6389 N.am    1  UNL1       -0.2721
     24 C           4.5453   -3.2681   20.9731 C.2     1  UNL1        0.2481
     25 O           4.5455   -4.6035   21.6561 O.2     1  UNL1       -0.2727
     26 C           3.8785   -1.7727   18.9558 C.3     1  UNL1        0.1202
     27 C           2.7429   -0.8178   19.1762 C.ar    1  UNL1       -0.0023
     28 C           2.4837    0.2801   18.1874 C.ar    1  UNL1       -0.0026
     29 C           1.3481    1.2351   18.4077 C.ar    1  UNL1       -0.0003
     30 C           0.4718    1.0921   19.6168 C.ar    1  UNL1       -0.0000
     31 C           0.7310   -0.0057   20.6054 C.ar    1  UNL1       -0.0003
     32 C           1.8666   -0.9607   20.3851 C.ar    1  UNL1       -0.0026
     33 N           2.7719    0.2810   31.3858 N.am    1  UNL1       -0.2804
     34 C           3.6272    1.2905   32.0924 C.2     1  UNL1        0.2495
     35 O           4.5427    2.1804   31.3049 O.2     1  UNL1       -0.2698
     36 H           2.1710   -0.3031   31.9027 H       1  UNL1        0.1552
     37 C           3.5671    1.4102   33.5864 C.ar    1  UNL1        0.0537
     38 C           2.7241    2.4769   34.2200 C.ar    1  UNL1        0.0045
     39 C           2.6640    2.5966   35.7141 C.ar    1  UNL1        0.0001
     40 C           3.4469    1.6495   36.5744 C.ar    1  UNL1        0.0000
     41 C           4.2898    0.5828   35.9408 C.ar    1  UNL1        0.0001
     42 C           4.3499    0.4631   34.4468 C.ar    1  UNL1        0.0044
     43 C           5.1929   -0.6036   33.8132 C.ar    1  UNL1        0.0001
     44 C           4.5901   -1.9358   33.4785 C.ar    1  UNL1       -0.0001
     45 C           5.4331   -3.0025   32.8448 C.ar    1  UNL1        0.0039
     46 C           6.8788   -2.7371   32.5458 C.ar    1  UNL1        0.0714
     47 C           7.4816   -1.4049   32.8805 C.ar    1  UNL1        0.0039
     48 C           6.6387   -0.3382   33.5142 C.ar    1  UNL1       -0.0001
     49 C           7.7217   -3.8038   31.9122 C.3     1  UNL1        0.4186
     50 F           8.5646   -4.8706   31.2785 F       1  UNL1       -0.1659
     51 F           8.9445   -3.2194   32.5550 F       1  UNL1       -0.1659
     52 F           6.4989   -4.3882   31.2693 F       1  UNL1       -0.1659
@<TRIPOS>BOND
     1    22    23    1
     2    23    26    1
     3    26    27    1
     4    27    28   ar
     5    28    29   ar
     6    29    30   ar
     7    30    31   ar
     8    31    32   ar
     9    23    24   am
    10    24    25    2
    11    24    15    1
    12    15    11    1
    13    11    12   am
    14    12    13    2
    15    12     1    1
    16     1     2   ar
    17     2     3   ar
    18     3     4   ar
    19     4     5   ar
    20     5    33    1
    21    33    34   am
    22    34    35    2
    23    34    37    1
    24    37    38   ar
    25    38    39   ar
    26    39    40   ar
    27    40    41   ar
    28    41    42   ar
    29    42    43    1
    30    43    44   ar
    31    44    45   ar
    32    45    46   ar
    33    46    49    1
    34    49    50    1
    35    49    51    1
    36    49    52    1
    37    46    47   ar
    38    47    48   ar
    39     5     6   ar
    40     6     7   ar
    41     7     8   ar
    42     8     9   ar
    43     9    10    1
    44    15    16    1
    45    16    17   ar
    46    17    18   ar
    47    18    19   ar
    48    19    20   ar
    49    20    21   ar
    50    32    27   ar
    51     9     1   ar
    52    21    16   ar
    53     8     3   ar
    54    42    37   ar
    55    48    43   ar
    56    11    14    1
    57    33    36    1
