@<TRIPOS>MOLECULE
*****
 37 39 0 0 0
SMALL
GASTEIGER

@<TRIPOS>ATOM
      1 C           6.5336   -2.8691   25.8252 C.2     1  UNL1        0.2486
      2 O           6.9679   -1.5184   25.3386 O.2     1  UNL1       -0.2726
      3 N           5.7594   -3.7795   24.9186 N.am    1  UNL1       -0.2823
      4 H           5.4744   -4.6661   25.2379 H       1  UNL1        0.1549
      5 C           5.5770   -1.9987   31.2990 C.ar    1  UNL1        0.1054
      6 C           4.9657   -1.2597   30.1457 C.ar    1  UNL1        0.0181
      7 C           5.3368   -1.6256   28.7392 C.ar    1  UNL1       -0.0011
      8 C           6.3192   -2.7304   28.4859 C.ar    1  UNL1        0.0023
      9 C           6.9306   -3.4693   29.6392 C.ar    1  UNL1       -0.0030
     10 C           6.5594   -3.1035   31.0458 C.ar    1  UNL1        0.0155
     11 C           7.8628   -4.5053   29.0843 C.3     1  UNL1        0.1211
     12 N           7.8275   -4.4065   27.5879 N.am    1  UNL1       -0.2582
     13 C           8.6090   -5.2556   26.6296 C.2     1  UNL1        0.3037
     14 O           9.5292   -6.3201   27.1493 O.2     1  UNL1       -0.2649
     15 C           6.8736   -3.3096   27.2181 C.3     1  UNL1        0.1754
     16 S           5.2059   -1.6328   32.7056 S.O2    1  UNL1        0.0086
     17 O           3.7859   -2.0333   32.4351 O.2     1  UNL1       -0.1686
     18 O           6.6259   -1.2323   32.9761 O.2     1  UNL1       -0.1686
     19 C           5.7572   -0.4165   34.9341 C.3     1  UNL1        0.0276
     20 C           4.8348   -1.2670   34.1122 C.3     1  UNL1        0.1560
     21 C           5.4195   -3.3391   23.5256 C.ar    1  UNL1        0.0503
     22 C           4.2936   -2.3745   23.2977 C.ar    1  UNL1        0.0144
     23 C           3.9536   -1.9341   21.9047 C.ar    1  UNL1       -0.0002
     24 C           4.7395   -2.4582   20.7396 C.ar    1  UNL1        0.0182
     25 C           5.8654   -3.4227   20.9675 C.ar    1  UNL1       -0.0002
     26 C           6.2054   -3.8632   22.3605 C.ar    1  UNL1        0.0144
     27 C           4.3996   -2.0177   19.3466 C.3     1  UNL1        0.2827
     28 O           5.1490   -0.7374   19.5685 O.3     1  UNL1       -0.3692
     29 H           5.5178   -0.7300   20.4657 H       1  UNL1        0.2112
     30 C           4.0597   -1.5773   17.9536 C.3     1  UNL1        0.4311
     31 F           3.7197   -1.1369   16.5606 F       1  UNL1       -0.1669
     32 F           2.9789   -0.6908   18.4977 F       1  UNL1       -0.1669
     33 F           4.6687   -2.0652   17.5345 F       1  UNL1       -0.1669
     34 C           3.6502   -3.2980   19.1247 C.3     1  UNL1        0.4311
     35 F           2.9008   -4.5783   18.9028 F       1  UNL1       -0.1669
     36 F           2.8886   -3.0436   19.4985 F       1  UNL1       -0.1669
     37 F           4.6404   -4.1817   18.4257 F       1  UNL1       -0.1669
@<TRIPOS>BOND
     1    19    20    1
     2    20    16    1
     3    16    17    2
     4    16    18    2
     5    16     5    1
     6     5     6   ar
     7     6     7   ar
     8     7     8   ar
     9     8     9   ar
    10     9    10   ar
    11     9    11    1
    12    11    12    1
    13    12    13   am
    14    13    14    2
    15    12    15    1
    16    15     1    1
    17     1     2    2
    18     1     3   am
    19     3    21    1
    20    21    22   ar
    21    22    23   ar
    22    23    24   ar
    23    24    27    1
    24    27    28    1
    25    27    30    1
    26    30    31    1
    27    30    32    1
    28    30    33    1
    29    27    34    1
    30    34    35    1
    31    34    36    1
    32    34    37    1
    33    24    25   ar
    34    25    26   ar
    35    10     5   ar
    36    26    21   ar
    37    15     8    1
    38     3     4    1
    39    28    29    1
@<TRIPOS>MOLECULE
*****
 37 39 0 0 0
SMALL
GASTEIGER

@<TRIPOS>ATOM
      1 C           3.1966    0.2601   26.3105 C.2     1  UNL1        0.2486
      2 O           3.7513    1.5179   26.9105 O.2     1  UNL1       -0.2726
      3 N           3.0401   -0.9687   27.1564 N.am    1  UNL1       -0.2823
      4 H           2.6760   -1.7943   26.7626 H       1  UNL1        0.1549
      5 C           4.0244   -2.2573   21.3493 C.ar    1  UNL1        0.1054
      6 C           4.6985   -2.5791   22.6500 C.ar    1  UNL1        0.0181
      7 C           4.3550   -1.8009   23.8855 C.ar    1  UNL1       -0.0011
      8 C           3.3373   -0.7008   23.8202 C.ar    1  UNL1        0.0023
      9 C           2.6632   -0.3791   22.5195 C.ar    1  UNL1       -0.0030
     10 C           3.0067   -1.1573   21.2840 C.ar    1  UNL1        0.0155
     11 C           1.7074    0.7518   22.7600 C.3     1  UNL1        0.1211
     12 N           1.7909    1.1289   24.2094 N.am    1  UNL1       -0.2582
     13 C           1.0050    2.2133   24.8851 C.2     1  UNL1        0.3037
     14 O           0.0282    3.0342   24.0964 O.2     1  UNL1       -0.2649
     15 C           2.7982    0.2311   24.8647 C.3     1  UNL1        0.1754
     16 S           4.3679   -3.0356   20.1139 S.O2    1  UNL1        0.0086
     17 O           4.7359   -4.2176   20.9608 O.2     1  UNL1       -0.1686
     18 O           3.9999   -1.8535   19.2669 O.2     1  UNL1       -0.1686
     19 C           4.4835   -5.2958   18.8380 C.3     1  UNL1        0.0276
     20 C           4.7114   -3.8138   18.8784 C.3     1  UNL1        0.1560
     21 C           3.4384   -0.9396   28.6022 C.ar    1  UNL1        0.0503
     22 C           2.4163   -0.6307   29.6557 C.ar    1  UNL1        0.0144
     23 C           2.8146   -0.6016   31.1016 C.ar    1  UNL1       -0.0002
     24 C           4.2350   -0.8815   31.4940 C.ar    1  UNL1        0.0182
     25 C           5.2572   -1.1905   30.4405 C.ar    1  UNL1       -0.0002
     26 C           4.8588   -1.2195   28.9947 C.ar    1  UNL1        0.0144
     27 C           4.6334   -0.8525   32.9399 C.3     1  UNL1        0.2827
     28 O           4.1488    0.5632   33.0449 O.3     1  UNL1       -0.3692
     29 H           3.8015    0.8506   32.1860 H       1  UNL1        0.2112
     30 C           5.0317   -0.8234   34.3857 C.3     1  UNL1        0.4311
     31 F           5.4300   -0.7944   35.8315 F       1  UNL1       -0.1669
     32 F           6.0926    0.1899   34.0731 F       1  UNL1       -0.1669
     33 F           4.4386   -1.4152   34.6730 F       1  UNL1       -0.1669
     34 C           5.1179   -2.2682   32.8348 C.3     1  UNL1        0.4311
     35 F           5.6025   -3.6838   32.7298 F       1  UNL1       -0.1669
     36 F           4.3247   -2.6457   32.7213 F       1  UNL1       -0.1669
     37 F           6.6061   -2.1545   32.9848 F       1  UNL1       -0.1669
@<TRIPOS>BOND
     1    19    20    1
     2    20    16    1
     3    16    17    2
     4    16    18    2
     5    16     5    1
     6     5     6   ar
     7     6     7   ar
     8     7     8   ar
     9     8     9   ar
    10     9    10   ar
    11     9    11    1
    12    11    12    1
    13    12    13   am
    14    13    14    2
    15    12    15    1
    16    15     1    1
    17     1     2    2
    18     1     3   am
    19     3    21    1
    20    21    22   ar
    21    22    23   ar
    22    23    24   ar
    23    24    27    1
    24    27    28    1
    25    27    30    1
    26    30    31    1
    27    30    32    1
    28    30    33    1
    29    27    34    1
    30    34    35    1
    31    34    36    1
    32    34    37    1
    33    24    25   ar
    34    25    26   ar
    35    10     5   ar
    36    26    21   ar
    37    15     8    1
    38     3     4    1
    39    28    29    1
@<TRIPOS>MOLECULE
*****
 37 39 0 0 0
SMALL
GASTEIGER

@<TRIPOS>ATOM
      1 C           6.6803   -4.1407   25.0749 C.2     1  UNL1        0.2486
      2 O           7.7619   -4.3123   24.0499 O.2     1  UNL1       -0.2726
      3 N           5.3834   -3.4898   24.6949 N.am    1  UNL1       -0.2823
      4 H           4.6735   -3.3771   25.3676 H       1  UNL1        0.1549
      5 C           6.2436   -2.8033   30.5207 C.ar    1  UNL1        0.1054
      6 C           5.8809   -1.9431   29.3466 C.ar    1  UNL1        0.0181
      7 C           6.0632   -2.4628   27.9514 C.ar    1  UNL1       -0.0011
      8 C           6.6082   -3.8426   27.7302 C.ar    1  UNL1        0.0023
      9 C           6.9710   -4.7028   28.9043 C.ar    1  UNL1       -0.0030
     10 C           6.7887   -4.1831   30.2996 C.ar    1  UNL1        0.0155
     11 C           7.4825   -6.0117   28.3796 C.3     1  UNL1        0.1211
     12 N           7.4359   -5.9604   26.8813 N.am    1  UNL1       -0.2582
     13 C           7.8559   -7.0571   25.9480 C.2     1  UNL1        0.3037
     14 O           8.3800   -8.3504   26.4982 O.2     1  UNL1       -0.2649
     15 C           6.8955   -4.6199   26.4799 C.3     1  UNL1        0.1754
     16 S           6.0613   -2.2836   31.9160 S.O2    1  UNL1        0.0086
     17 O           7.2678   -3.0557   32.3612 O.2     1  UNL1       -0.1686
     18 O           4.8548   -1.5115   31.4707 O.2     1  UNL1       -0.1686
     19 C           4.5033   -1.6649   33.9009 C.3     1  UNL1        0.0276
     20 C           5.8790   -1.7639   33.3112 C.3     1  UNL1        0.1560
     21 C           5.1682   -3.0106   23.2899 C.ar    1  UNL1        0.0503
     22 C           5.4501   -1.5811   22.9335 C.ar    1  UNL1        0.0144
     23 C           5.2349   -1.1019   21.5285 C.ar    1  UNL1       -0.0002
     24 C           4.7377   -2.0522   20.4798 C.ar    1  UNL1        0.0182
     25 C           4.4558   -3.4817   20.8362 C.ar    1  UNL1       -0.0002
     26 C           4.6710   -3.9609   22.2412 C.ar    1  UNL1        0.0144
     27 C           4.5225   -1.5730   19.0748 C.3     1  UNL1        0.2827
     28 O           5.9449   -1.9124   18.7411 O.3     1  UNL1       -0.3692
     29 H           6.3828   -2.2777   19.5258 H       1  UNL1        0.2112
     30 C           4.3072   -1.0938   17.6698 C.3     1  UNL1        0.4311
     31 F           4.0920   -0.6146   16.2648 F       1  UNL1       -0.1669
     32 F           5.2367    0.0567   17.9198 F       1  UNL1       -0.1669
     33 F           3.7470   -1.7336   17.4222 F       1  UNL1       -0.1669
     34 C           3.1000   -1.2335   19.4085 C.3     1  UNL1        0.4311
     35 F           1.6775   -0.8941   19.7422 F       1  UNL1       -0.1669
     36 F           2.7911   -2.0636   19.4215 F       1  UNL1       -0.1669
     37 F           3.0976    0.2632   19.5074 F       1  UNL1       -0.1669
@<TRIPOS>BOND
     1    19    20    1
     2    20    16    1
     3    16    17    2
     4    16    18    2
     5    16     5    1
     6     5     6   ar
     7     6     7   ar
     8     7     8   ar
     9     8     9   ar
    10     9    10   ar
    11     9    11    1
    12    11    12    1
    13    12    13   am
    14    13    14    2
    15    12    15    1
    16    15     1    1
    17     1     2    2
    18     1     3   am
    19     3    21    1
    20    21    22   ar
    21    22    23   ar
    22    23    24   ar
    23    24    27    1
    24    27    28    1
    25    27    30    1
    26    30    31    1
    27    30    32    1
    28    30    33    1
    29    27    34    1
    30    34    35    1
    31    34    36    1
    32    34    37    1
    33    24    25   ar
    34    25    26   ar
    35    10     5   ar
    36    26    21   ar
    37    15     8    1
    38     3     4    1
    39    28    29    1
@<TRIPOS>MOLECULE
*****
 37 39 0 0 0
SMALL
GASTEIGER

@<TRIPOS>ATOM
      1 C          -0.6525    2.8353   20.1955 C.2     1  UNL1        0.2486
      2 O           0.6013    3.6272   19.9700 O.2     1  UNL1       -0.2726
      3 N          -0.6090    1.3364   20.1618 N.am    1  UNL1       -0.2823
      4 H          -1.4319    0.8166   20.3098 H       1  UNL1        0.1549
      5 C          -4.2050    4.6456   24.1627 C.ar    1  UNL1        0.1054
      6 C          -2.9086    3.9209   24.3725 C.ar    1  UNL1        0.0181
      7 C          -2.0802    3.5086   23.1919 C.ar    1  UNL1       -0.0011
      8 C          -2.5482    3.8211   21.8015 C.ar    1  UNL1        0.0023
      9 C          -3.8447    4.5458   21.5917 C.ar    1  UNL1       -0.0030
     10 C          -4.6730    4.9580   22.7723 C.ar    1  UNL1        0.0155
     11 C          -4.0475    4.7150   20.1151 C.3     1  UNL1        0.1211
     12 N          -2.8764    4.0948   19.4124 N.am    1  UNL1       -0.2582
     13 C          -2.6683    4.0372   17.9279 C.2     1  UNL1        0.3037
     14 O          -3.6871    4.6360   17.0040 O.2     1  UNL1       -0.2649
     15 C          -1.9498    3.5424   20.4546 C.3     1  UNL1        0.1754
     16 S          -5.0334    5.0578   25.3434 S.O2    1  UNL1        0.0086
     17 O          -4.9426    6.4901   24.9069 O.2     1  UNL1       -0.1686
     18 O          -5.1242    3.6256   25.7798 O.2     1  UNL1       -0.1686
     19 C          -5.3442    6.5047   27.4788 C.3     1  UNL1        0.0276
     20 C          -5.8618    5.4701   26.5240 C.3     1  UNL1        0.1560
     21 C           0.6882    0.6293   19.9026 C.ar    1  UNL1        0.0503
     22 C           1.3658   -0.1241   21.0087 C.ar    1  UNL1        0.0144
     23 C           2.6630   -0.8311   20.7495 C.ar    1  UNL1       -0.0002
     24 C           3.2828   -0.7848   19.3844 C.ar    1  UNL1        0.0182
     25 C           2.6053   -0.0314   18.2784 C.ar    1  UNL1       -0.0002
     26 C           1.3080    0.6756   18.5375 C.ar    1  UNL1        0.0144
     27 C           4.5801   -1.4919   19.1253 C.3     1  UNL1        0.2827
     28 O           5.2897   -0.1713   19.0746 O.3     1  UNL1       -0.3692
     29 H           4.6517    0.5444   19.2217 H       1  UNL1        0.2112
     30 C           5.8774   -2.1989   18.8661 C.3     1  UNL1        0.4311
     31 F           7.1746   -2.9059   18.6070 F       1  UNL1       -0.1669
     32 F           6.4180   -1.6838   20.1670 F       1  UNL1       -0.1669
     33 F           5.6539   -2.5517   18.0850 F       1  UNL1       -0.1669
     34 C           3.8705   -2.8124   19.1759 C.3     1  UNL1        0.4311
     35 F           3.1609   -4.1330   19.2266 F       1  UNL1       -0.1669
     36 F           3.4463   -2.7368   18.4020 F       1  UNL1       -0.1669
     37 F           4.3164   -3.4145   20.4754 F       1  UNL1       -0.1669
@<TRIPOS>BOND
     1    19    20    1
     2    20    16    1
     3    16    17    2
     4    16    18    2
     5    16     5    1
     6     5     6   ar
     7     6     7   ar
     8     7     8   ar
     9     8     9   ar
    10     9    10   ar
    11     9    11    1
    12    11    12    1
    13    12    13   am
    14    13    14    2
    15    12    15    1
    16    15     1    1
    17     1     2    2
    18     1     3   am
    19     3    21    1
    20    21    22   ar
    21    22    23   ar
    22    23    24   ar
    23    24    27    1
    24    27    28    1
    25    27    30    1
    26    30    31    1
    27    30    32    1
    28    30    33    1
    29    27    34    1
    30    34    35    1
    31    34    36    1
    32    34    37    1
    33    24    25   ar
    34    25    26   ar
    35    10     5   ar
    36    26    21   ar
    37    15     8    1
    38     3     4    1
    39    28    29    1
@<TRIPOS>MOLECULE
*****
 37 39 0 0 0
SMALL
GASTEIGER

@<TRIPOS>ATOM
      1 C          -0.6410    2.6444   21.2134 C.2     1  UNL1        0.2486
      2 O           0.6777    3.3253   21.4308 O.2     1  UNL1       -0.2726
      3 N          -0.6967    1.3308   20.4912 N.am    1  UNL1       -0.2823
      4 H          -1.5622    0.8839   20.3485 H       1  UNL1        0.1549
      5 C          -5.7101    4.6088   19.7706 C.ar    1  UNL1        0.1054
      6 C          -4.6797    4.0101   18.8597 C.ar    1  UNL1        0.0181
      7 C          -3.3713    3.5338   19.4177 C.ar    1  UNL1       -0.0011
      8 C          -3.0934    3.6562   20.8866 C.ar    1  UNL1        0.0023
      9 C          -4.1238    4.2549   21.7975 C.ar    1  UNL1       -0.0030
     10 C          -5.4321    4.7312   21.2395 C.ar    1  UNL1        0.0155
     11 C          -3.5713    4.2456   23.1921 C.3     1  UNL1        0.1211
     12 N          -2.1993    3.6412   23.1430 N.am    1  UNL1       -0.2582
     13 C          -1.2835    3.4368   24.3132 C.2     1  UNL1        0.3037
     14 O          -1.7179    3.8532   25.6873 O.2     1  UNL1       -0.2649
     15 C          -1.9040    3.2769   21.7181 C.3     1  UNL1        0.1754
     16 S          -7.0184    5.0852   19.2126 S.O2    1  UNL1        0.0086
     17 O          -7.4820    5.4327   20.5961 O.2     1  UNL1       -0.1686
     18 O          -6.5548    4.7376   17.8290 O.2     1  UNL1       -0.1686
     19 C          -8.8909    6.8818   19.0883 C.3     1  UNL1        0.0276
     20 C          -8.3267    5.5615   18.6545 C.3     1  UNL1        0.1560
     21 C           0.5663    0.6983   19.9865 C.ar    1  UNL1        0.0503
     22 C           1.1250   -0.5126   20.6732 C.ar    1  UNL1        0.0144
     23 C           2.3880   -1.1451   20.1685 C.ar    1  UNL1       -0.0002
     24 C           3.0923   -0.5669   18.9771 C.ar    1  UNL1        0.0182
     25 C           2.5335    0.6440   18.2904 C.ar    1  UNL1       -0.0002
     26 C           1.2706    1.2766   18.7951 C.ar    1  UNL1        0.0144
     27 C           4.3553   -1.1994   18.4724 C.3     1  UNL1        0.2827
     28 O           3.6658   -1.5509   17.1874 O.3     1  UNL1       -0.3692
     29 H           2.7471   -1.2410   17.2182 H       1  UNL1        0.2112
     30 C           5.6182   -1.8319   17.9677 C.3     1  UNL1        0.4311
     31 F           6.8812   -2.4645   17.4629 F       1  UNL1       -0.1669
     32 F           4.9633   -3.1804   18.0186 F       1  UNL1       -0.1669
     33 F           6.0930   -1.0871   17.9014 F       1  UNL1       -0.1669
     34 C           5.0448   -0.8479   19.7573 C.3     1  UNL1        0.4311
     35 F           5.7343   -0.4965   21.0422 F       1  UNL1       -0.1669
     36 F           5.0546    0.0297   19.6380 F       1  UNL1       -0.1669
     37 F           5.2775   -2.1739   20.4188 F       1  UNL1       -0.1669
@<TRIPOS>BOND
     1    19    20    1
     2    20    16    1
     3    16    17    2
     4    16    18    2
     5    16     5    1
     6     5     6   ar
     7     6     7   ar
     8     7     8   ar
     9     8     9   ar
    10     9    10   ar
    11     9    11    1
    12    11    12    1
    13    12    13   am
    14    13    14    2
    15    12    15    1
    16    15     1    1
    17     1     2    2
    18     1     3   am
    19     3    21    1
    20    21    22   ar
    21    22    23   ar
    22    23    24   ar
    23    24    27    1
    24    27    28    1
    25    27    30    1
    26    30    31    1
    27    30    32    1
    28    30    33    1
    29    27    34    1
    30    34    35    1
    31    34    36    1
    32    34    37    1
    33    24    25   ar
    34    25    26   ar
    35    10     5   ar
    36    26    21   ar
    37    15     8    1
    38     3     4    1
    39    28    29    1
@<TRIPOS>MOLECULE
*****
 37 39 0 0 0
SMALL
GASTEIGER

@<TRIPOS>ATOM
      1 C           4.2026    1.5459   34.7812 C.2     1  UNL1        0.2486
      2 O           4.3308    1.8421   33.3163 O.2     1  UNL1       -0.2726
      3 N           4.5809    0.1937   35.3088 N.am    1  UNL1       -0.2823
      4 H           4.4968   -0.0007   36.2702 H       1  UNL1        0.1549
      5 C           4.8055    3.8714   39.8669 C.ar    1  UNL1        0.1054
      6 C           5.5981    2.7347   39.2928 C.ar    1  UNL1        0.0181
      7 C           5.3014    2.2368   37.9093 C.ar    1  UNL1       -0.0011
      8 C           4.2121    2.8757   37.0999 C.ar    1  UNL1        0.0023
      9 C           3.4196    4.0124   37.6740 C.ar    1  UNL1       -0.0030
     10 C           3.7162    4.5103   39.0575 C.ar    1  UNL1        0.0155
     11 C           2.4135    4.4412   36.6472 C.3     1  UNL1        0.1211
     12 N           2.5844    3.5694   35.4386 N.am    1  UNL1       -0.2582
     13 C           1.7842    3.6508   34.1724 C.2     1  UNL1        0.3037
     14 O           0.6976    4.6760   34.0365 O.2     1  UNL1       -0.2649
     15 C           3.6960    2.6019   35.7184 C.3     1  UNL1        0.1754
     16 S           5.1022    4.3692   41.2504 S.O2    1  UNL1        0.0086
     17 O           4.3020    5.6080   40.9763 O.2     1  UNL1       -0.1686
     18 O           5.9025    3.1305   41.5246 O.2     1  UNL1       -0.1686
     19 C           4.3202    5.5263   43.4412 C.3     1  UNL1        0.0276
     20 C           5.3989    4.8671   42.6339 C.3     1  UNL1        0.1560
     21 C           5.0875   -0.8622   34.3716 C.ar    1  UNL1        0.0503
     22 C           4.1878   -1.9866   33.9518 C.ar    1  UNL1        0.0144
     23 C           4.6943   -3.0426   33.0146 C.ar    1  UNL1       -0.0002
     24 C           6.1006   -2.9742   32.4971 C.ar    1  UNL1        0.0182
     25 C           7.0003   -1.8497   32.9169 C.ar    1  UNL1       -0.0002
     26 C           6.4937   -0.7938   33.8541 C.ar    1  UNL1        0.0144
     27 C           6.6071   -4.0301   31.5599 C.3     1  UNL1        0.2827
     28 O           6.3883   -5.0725   32.6161 O.3     1  UNL1       -0.3692
     29 H           6.0323   -4.6534   33.4152 H       1  UNL1        0.2112
     30 C           7.1137   -5.0861   30.6227 C.3     1  UNL1        0.4311
     31 F           7.6202   -6.1420   29.6855 F       1  UNL1       -0.1669
     32 F           8.3192   -5.2809   31.4938 F       1  UNL1       -0.1669
     33 F           6.4436   -5.0478   30.0447 F       1  UNL1       -0.1669
     34 C           6.8259   -2.9877   30.5037 C.3     1  UNL1        0.4311
     35 F           7.0447   -1.9453   29.4475 F       1  UNL1       -0.1669
     36 F           5.9722   -2.8058   30.3531 F       1  UNL1       -0.1669
     37 F           8.3182   -2.9124   30.3717 F       1  UNL1       -0.1669
@<TRIPOS>BOND
     1    19    20    1
     2    20    16    1
     3    16    17    2
     4    16    18    2
     5    16     5    1
     6     5     6   ar
     7     6     7   ar
     8     7     8   ar
     9     8     9   ar
    10     9    10   ar
    11     9    11    1
    12    11    12    1
    13    12    13   am
    14    13    14    2
    15    12    15    1
    16    15     1    1
    17     1     2    2
    18     1     3   am
    19     3    21    1
    20    21    22   ar
    21    22    23   ar
    22    23    24   ar
    23    24    27    1
    24    27    28    1
    25    27    30    1
    26    30    31    1
    27    30    32    1
    28    30    33    1
    29    27    34    1
    30    34    35    1
    31    34    36    1
    32    34    37    1
    33    24    25   ar
    34    25    26   ar
    35    10     5   ar
    36    26    21   ar
    37    15     8    1
    38     3     4    1
    39    28    29    1
@<TRIPOS>MOLECULE
*****
 37 39 0 0 0
SMALL
GASTEIGER

@<TRIPOS>ATOM
      1 C          -1.2576    3.5330   19.9097 C.2     1  UNL1        0.2486
      2 O          -2.3362    3.9461   18.9528 O.2     1  UNL1       -0.2726
      3 N          -1.5410    3.4800   21.3817 N.am    1  UNL1       -0.2823
      4 H          -0.8330    3.2089   22.0099 H       1  UNL1        0.1549
      5 C           2.5715   -0.5634   19.4699 C.ar    1  UNL1        0.1054
      6 C           1.2247   -0.6513   20.1242 C.ar    1  UNL1        0.0181
      7 C           0.3240    0.5479   20.1506 C.ar    1  UNL1       -0.0011
      8 C           0.7702    1.8350   19.5228 C.ar    1  UNL1        0.0023
      9 C           2.1171    1.9229   18.8685 C.ar    1  UNL1       -0.0030
     10 C           3.0177    0.7237   18.8420 C.ar    1  UNL1        0.0155
     11 C           2.2838    3.3153   18.3360 C.3     1  UNL1        0.1211
     12 N           1.0399    4.0880   18.6613 N.am    1  UNL1       -0.2582
     13 C           0.7775    5.5235   18.3140 C.2     1  UNL1        0.3037
     14 O           1.8128    6.3174   17.5737 O.2     1  UNL1       -0.2649
     15 C           0.1045    3.1731   19.3947 C.3     1  UNL1        0.1754
     16 S           3.4722   -1.7626   19.4434 S.O2    1  UNL1        0.0086
     17 O           3.3136   -1.9144   20.9273 O.2     1  UNL1       -0.1686
     18 O           3.6308   -1.6107   17.9596 O.2     1  UNL1       -0.1686
     19 C           3.8086   -4.3169   19.1085 C.3     1  UNL1        0.0276
     20 C           4.3729   -2.9618   19.4170 C.3     1  UNL1        0.1560
     21 C          -2.9030    3.8399   21.8967 C.ar    1  UNL1        0.0503
     22 C          -3.0800    5.0469   22.7696 C.ar    1  UNL1        0.0144
     23 C          -4.4420    5.4069   23.2846 C.ar    1  UNL1       -0.0002
     24 C          -5.6272    4.5599   22.9268 C.ar    1  UNL1        0.0182
     25 C          -5.4502    3.3530   22.0539 C.ar    1  UNL1       -0.0002
     26 C          -4.0882    2.9930   21.5389 C.ar    1  UNL1        0.0144
     27 C          -6.9892    4.9199   23.4418 C.3     1  UNL1        0.2827
     28 O          -7.5237    4.9025   22.0403 O.3     1  UNL1       -0.3692
     29 H          -6.8085    4.6793   21.4243 H       1  UNL1        0.2112
     30 C          -8.3513    5.2799   23.9568 C.3     1  UNL1        0.4311
     31 F          -9.7133    5.6398   24.4718 F       1  UNL1       -0.1669
     32 F          -8.7717    3.8441   23.8485 F       1  UNL1       -0.1669
     33 F          -8.2029    6.1473   24.0573 F       1  UNL1       -0.1669
     34 C          -6.4547    4.9373   24.8432 C.3     1  UNL1        0.4311
     35 F          -5.9203    4.9547   26.2446 F       1  UNL1       -0.1669
     36 F          -6.4732    4.0619   24.9767 F       1  UNL1       -0.1669
     37 F          -6.2311    6.3928   25.1283 F       1  UNL1       -0.1669
@<TRIPOS>BOND
     1    19    20    1
     2    20    16    1
     3    16    17    2
     4    16    18    2
     5    16     5    1
     6     5     6   ar
     7     6     7   ar
     8     7     8   ar
     9     8     9   ar
    10     9    10   ar
    11     9    11    1
    12    11    12    1
    13    12    13   am
    14    13    14    2
    15    12    15    1
    16    15     1    1
    17     1     2    2
    18     1     3   am
    19     3    21    1
    20    21    22   ar
    21    22    23   ar
    22    23    24   ar
    23    24    27    1
    24    27    28    1
    25    27    30    1
    26    30    31    1
    27    30    32    1
    28    30    33    1
    29    27    34    1
    30    34    35    1
    31    34    36    1
    32    34    37    1
    33    24    25   ar
    34    25    26   ar
    35    10     5   ar
    36    26    21   ar
    37    15     8    1
    38     3     4    1
    39    28    29    1
@<TRIPOS>MOLECULE
*****
 37 39 0 0 0
SMALL
GASTEIGER

@<TRIPOS>ATOM
      1 C           2.8326    0.6474   25.7001 C.2     1  UNL1        0.2486
      2 O           4.0191    1.5081   25.3820 O.2     1  UNL1       -0.2726
      3 N           2.1753   -0.1541   24.6159 N.am    1  UNL1       -0.2823
      4 H           1.3965   -0.7191   24.8246 H       1  UNL1        0.1549
      5 C           3.9469   -0.9148   30.9872 C.ar    1  UNL1        0.1054
      6 C           4.8448   -1.0572   29.7942 C.ar    1  UNL1        0.0181
      7 C           4.3839   -0.5831   28.4478 C.ar    1  UNL1       -0.0011
      8 C           3.0251    0.0334   28.2945 C.ar    1  UNL1        0.0023
      9 C           2.1272    0.1758   29.4875 C.ar    1  UNL1       -0.0030
     10 C           2.5881   -0.2983   30.8339 C.ar    1  UNL1        0.0155
     11 C           0.8504    0.8187   29.0328 C.3     1  UNL1        0.1211
     12 N           0.9593    1.0736   27.5587 N.am    1  UNL1       -0.2582
     13 C          -0.0914    1.7033   26.6928 C.2     1  UNL1        0.3037
     14 O          -1.3943    2.1414   27.2931 O.2     1  UNL1       -0.2649
     15 C           2.3033    0.5883   27.1023 C.3     1  UNL1        0.1754
     16 S           4.4078   -1.3889   32.3336 S.O2    1  UNL1        0.0086
     17 O           5.4246   -2.2729   31.6743 O.2     1  UNL1       -0.1686
     18 O           3.3911   -0.5050   32.9930 O.2     1  UNL1       -0.1686
     19 C           4.8787   -0.9181   34.8449 C.3     1  UNL1        0.0276
     20 C           4.8688   -1.8630   33.6800 C.3     1  UNL1        0.1560
     21 C           2.7046   -0.0950   23.2136 C.ar    1  UNL1        0.0503
     22 C           2.5542    1.1610   22.4075 C.ar    1  UNL1        0.0144
     23 C           3.0835    1.2202   21.0053 C.ar    1  UNL1       -0.0002
     24 C           3.7632    0.0234   20.4091 C.ar    1  UNL1        0.0182
     25 C           3.9137   -1.2326   21.2152 C.ar    1  UNL1       -0.0002
     26 C           3.3844   -1.2918   22.6174 C.ar    1  UNL1        0.0144
     27 C           4.2925    0.0825   19.0068 C.3     1  UNL1        0.2827
     28 O           5.6931   -0.0366   19.5305 O.3     1  UNL1       -0.3692
     29 H           5.6723   -0.0984   20.4983 H       1  UNL1        0.2112
     30 C           4.8218    0.1417   17.6046 C.3     1  UNL1        0.4311
     31 F           5.3512    0.2008   16.2023 F       1  UNL1       -0.1669
     32 F           4.9554   -1.3523   17.5920 F       1  UNL1       -0.1669
     33 F           4.7816    1.0216   17.5110 F       1  UNL1       -0.1669
     34 C           2.8920    0.2017   18.4832 C.3     1  UNL1        0.4311
     35 F           1.4914    0.3208   17.9595 F       1  UNL1       -0.1669
     36 F           2.6896   -0.6599   18.5191 F       1  UNL1       -0.1669
     37 F           2.7212    1.6710   18.2345 F       1  UNL1       -0.1669
@<TRIPOS>BOND
     1    19    20    1
     2    20    16    1
     3    16    17    2
     4    16    18    2
     5    16     5    1
     6     5     6   ar
     7     6     7   ar
     8     7     8   ar
     9     8     9   ar
    10     9    10   ar
    11     9    11    1
    12    11    12    1
    13    12    13   am
    14    13    14    2
    15    12    15    1
    16    15     1    1
    17     1     2    2
    18     1     3   am
    19     3    21    1
    20    21    22   ar
    21    22    23   ar
    22    23    24   ar
    23    24    27    1
    24    27    28    1
    25    27    30    1
    26    30    31    1
    27    30    32    1
    28    30    33    1
    29    27    34    1
    30    34    35    1
    31    34    36    1
    32    34    37    1
    33    24    25   ar
    34    25    26   ar
    35    10     5   ar
    36    26    21   ar
    37    15     8    1
    38     3     4    1
    39    28    29    1
@<TRIPOS>MOLECULE
*****
 37 39 0 0 0
SMALL
GASTEIGER

@<TRIPOS>ATOM
      1 C           5.7467   -1.8818   26.2984 C.2     1  UNL1        0.2486
      2 O           6.9162   -1.4419   25.4686 O.2     1  UNL1       -0.2726
      3 N           4.4001   -2.0596   25.6619 N.am    1  UNL1       -0.2823
      4 H           3.6325   -2.3483   26.2066 H       1  UNL1        0.1549
      5 C           4.4791   -0.1127   31.4849 C.ar    1  UNL1        0.1054
      6 C           4.0501    0.5072   30.1881 C.ar    1  UNL1        0.0181
      7 C           4.4831   -0.1004   28.8869 C.ar    1  UNL1       -0.0011
      8 C           5.3452   -1.3279   28.8823 C.ar    1  UNL1        0.0023
      9 C           5.7743   -1.9477   30.1791 C.ar    1  UNL1       -0.0030
     10 C           5.3413   -1.3401   31.4804 C.ar    1  UNL1        0.0155
     11 C           6.6181   -3.1469   29.8629 C.3     1  UNL1        0.1211
     12 N           6.7105   -3.2682   28.3707 N.am    1  UNL1       -0.2582
     13 C           7.4582   -4.3277   27.6167 C.2     1  UNL1        0.3037
     14 O           8.2037   -5.3943   28.3628 O.2     1  UNL1       -0.2649
     15 C           5.9238   -2.1439   27.7647 C.3     1  UNL1        0.1754
     16 S           4.0461    0.4950   32.7862 S.O2    1  UNL1        0.0086
     17 O           5.4267    0.2966   33.3382 O.2     1  UNL1       -0.1686
     18 O           2.6656    0.6933   32.2341 O.2     1  UNL1       -0.1686
     19 C           4.3599    0.7848   35.3489 C.3     1  UNL1        0.0276
     20 C           3.6131    1.1026   34.0874 C.3     1  UNL1        0.1560
     21 C           4.2231   -1.7974   24.1957 C.ar    1  UNL1        0.0503
     22 C           4.5876   -2.8542   23.1955 C.ar    1  UNL1        0.0144
     23 C           4.4105   -2.5921   21.7292 C.ar    1  UNL1       -0.0002
     24 C           3.8690   -1.2732   21.2631 C.ar    1  UNL1        0.0182
     25 C           3.5046   -0.2164   22.2633 C.ar    1  UNL1       -0.0002
     26 C           3.6816   -0.4786   23.7296 C.ar    1  UNL1        0.0144
     27 C           3.6920   -1.0110   19.7968 C.3     1  UNL1        0.2827
     28 O           5.1811   -1.0140   19.6165 O.3     1  UNL1       -0.3692
     29 H           5.6100   -1.1745   20.4716 H       1  UNL1        0.2112
     30 C           3.5150   -0.7489   18.3306 C.3     1  UNL1        0.4311
     31 F           3.3379   -0.4867   16.8643 F       1  UNL1       -0.1669
     32 F           3.7316   -2.2052   18.0440 F       1  UNL1       -0.1669
     33 F           3.3752    0.1236   18.3930 F       1  UNL1       -0.1669
     34 C           2.2029   -1.0080   19.9772 C.3     1  UNL1        0.4311
     35 F           0.7138   -1.0050   20.1575 F       1  UNL1       -0.1669
     36 F           2.0901   -1.8864   19.9585 F       1  UNL1       -0.1669
     37 F           1.8519    0.4471   20.0732 F       1  UNL1       -0.1669
@<TRIPOS>BOND
     1    19    20    1
     2    20    16    1
     3    16    17    2
     4    16    18    2
     5    16     5    1
     6     5     6   ar
     7     6     7   ar
     8     7     8   ar
     9     8     9   ar
    10     9    10   ar
    11     9    11    1
    12    11    12    1
    13    12    13   am
    14    13    14    2
    15    12    15    1
    16    15     1    1
    17     1     2    2
    18     1     3   am
    19     3    21    1
    20    21    22   ar
    21    22    23   ar
    22    23    24   ar
    23    24    27    1
    24    27    28    1
    25    27    30    1
    26    30    31    1
    27    30    32    1
    28    30    33    1
    29    27    34    1
    30    34    35    1
    31    34    36    1
    32    34    37    1
    33    24    25   ar
    34    25    26   ar
    35    10     5   ar
    36    26    21   ar
    37    15     8    1
    38     3     4    1
    39    28    29    1
