@<TRIPOS>MOLECULE
*****
 30 33 0 0 0
SMALL
GASTEIGER

@<TRIPOS>ATOM
      1 C           9.0347   -1.6787   32.5662 C.3     1  UNL1        0.0324
      2 C           7.5823   -1.6597   32.9407 C.ar    1  UNL1       -0.0071
      3 C           7.1187   -0.8352   34.1048 C.ar    1  UNL1        0.0115
      4 C           5.6663   -0.8162   34.4793 C.ar    1  UNL1        0.0476
      5 C           4.6776   -1.6215   33.6896 C.ar    1  UNL1        0.0158
      6 C           5.1412   -2.4459   32.5254 C.ar    1  UNL1        0.0156
      7 C           6.5936   -2.4650   32.1510 C.ar    1  UNL1        0.0466
      8 N           5.2027    0.0083   35.6435 N.pl3   1  UNL1       -0.3061
      9 C           6.0480    0.9494   36.4497 C.3     1  UNL1        0.0923
     10 C           5.1801    1.5591   37.5104 C.3     1  UNL1        0.0391
     11 C           3.7984    0.9949   37.3597 C.3     1  UNL1        0.0790
     12 C           3.8124    0.0365   36.2060 C.3     1  UNL1        0.1067
     13 N           2.6112    1.3303   38.2130 N.3     1  UNL1       -0.2736
     14 C           1.8939    0.3891   39.1347 C.3     1  UNL1        0.0721
     15 C           0.7723    1.1428   39.7857 C.3     1  UNL1        0.0187
     16 C           0.7965    2.5498   39.2664 C.3     1  UNL1        0.0174
     17 C           1.9330    2.6657   38.2944 C.3     1  UNL1        0.0576
     18 C           2.3229    3.9002   37.5368 C.3     1  UNL1        0.0173
     19 N           7.0572   -3.2895   30.9867 N.am    1  UNL1       -0.2806
     20 C           7.0596   -4.7865   31.0815 C.2     1  UNL1        0.2493
     21 O           6.5984   -5.4590   32.3405 O.2     1  UNL1       -0.2698
     22 H           7.3598   -2.8481   30.1604 H       1  UNL1        0.1552
     23 C           7.5232   -5.6110   29.9173 C.ar    1  UNL1        0.0520
     24 C           6.8055   -5.5232   28.6030 C.ar    1  UNL1        0.0338
     25 C           7.2690   -6.3477   27.4388 C.ar    1  UNL1        0.1403
     26 F           6.5513   -6.2599   26.1246 F       1  UNL1       -0.2042
     27 C           8.4503   -7.2598   27.5889 C.ar    1  UNL1        0.0293
     28 C           9.1680   -7.3475   28.9031 C.ar    1  UNL1       -0.0018
     29 C           8.7044   -6.5231   30.0673 C.ar    1  UNL1       -0.0173
     30 C           9.4222   -6.6109   31.3815 C.3     1  UNL1        0.0312
@<TRIPOS>BOND
     1     1     2    1
     2     2     3   ar
     3     3     4   ar
     4     4     8    1
     5     8     9    1
     6     9    10    1
     7    10    11    1
     8    11    13    1
     9    13    14    1
    10    14    15    1
    11    15    16    1
    12    16    17    1
    13    17    18    1
    14    11    12    1
    15     4     5   ar
    16     5     6   ar
    17     6     7   ar
    18     7    19    1
    19    19    20   am
    20    20    21    2
    21    20    23    1
    22    23    24   ar
    23    24    25   ar
    24    25    26    1
    25    25    27   ar
    26    27    28   ar
    27    28    29   ar
    28    29    30    1
    29     7     2   ar
    30    29    23   ar
    31    12     8    1
    32    17    13    1
    33    19    22    1
@<TRIPOS>MOLECULE
*****
 30 33 0 0 0
SMALL
GASTEIGER

@<TRIPOS>ATOM
      1 C           7.2699    0.9061   33.9975 C.3     1  UNL1        0.0324
      2 C           6.6499   -0.3908   33.5691 C.ar    1  UNL1       -0.0071
      3 C           7.4078   -1.3243   32.6724 C.ar    1  UNL1        0.0115
      4 C           6.7878   -2.6213   32.2440 C.ar    1  UNL1        0.0476
      5 C           5.4099   -2.9847   32.7122 C.ar    1  UNL1        0.0158
      6 C           4.6520   -2.0512   33.6089 C.ar    1  UNL1        0.0156
      7 C           5.2720   -0.7542   34.0373 C.ar    1  UNL1        0.0466
      8 N           7.5457   -3.5548   31.3472 N.pl3   1  UNL1       -0.3061
      9 C           9.0279   -3.7846   31.3644 C.3     1  UNL1        0.0923
     10 C           9.3528   -4.7943   30.3037 C.3     1  UNL1        0.0391
     11 C           8.0713   -5.1885   29.6309 C.3     1  UNL1        0.0790
     12 C           6.9545   -4.4224   30.2759 C.3     1  UNL1        0.1067
     13 N           7.9313   -6.1754   28.5100 N.3     1  UNL1       -0.2736
     14 C           8.4026   -7.5993   28.5251 C.3     1  UNL1        0.0721
     15 C           8.0579   -8.2156   27.2017 C.3     1  UNL1        0.0187
     16 C           7.3736   -7.1725   26.3688 C.3     1  UNL1        0.0174
     17 C           7.2953   -5.9116   27.1774 C.3     1  UNL1        0.0576
     18 C           6.6878   -4.6146   26.7316 C.3     1  UNL1        0.0173
     19 N           4.5140    0.1793   34.9341 N.am    1  UNL1       -0.2806
     20 C           4.8798    0.2880   36.3847 C.2     1  UNL1        0.2493
     21 O           6.0036   -0.5368   36.9387 O.2     1  UNL1       -0.2698
     22 H           3.7765    0.7207   34.5705 H       1  UNL1        0.1552
     23 C           4.1219    1.2216   37.2814 C.ar    1  UNL1        0.0520
     24 C           2.9021    0.7381   38.0083 C.ar    1  UNL1        0.0338
     25 C           2.1441    1.6715   38.9050 C.ar    1  UNL1        0.1403
     26 F           0.9243    1.1880   39.6319 F       1  UNL1       -0.2042
     27 C           2.6059    3.0885   39.0748 C.ar    1  UNL1        0.0293
     28 C           3.8257    3.5720   38.3479 C.ar    1  UNL1       -0.0018
     29 C           4.5837    2.6385   37.4512 C.ar    1  UNL1       -0.0173
     30 C           5.8035    3.1220   36.7244 C.3     1  UNL1        0.0312
@<TRIPOS>BOND
     1     1     2    1
     2     2     3   ar
     3     3     4   ar
     4     4     8    1
     5     8     9    1
     6     9    10    1
     7    10    11    1
     8    11    13    1
     9    13    14    1
    10    14    15    1
    11    15    16    1
    12    16    17    1
    13    17    18    1
    14    11    12    1
    15     4     5   ar
    16     5     6   ar
    17     6     7   ar
    18     7    19    1
    19    19    20   am
    20    20    21    2
    21    20    23    1
    22    23    24   ar
    23    24    25   ar
    24    25    26    1
    25    25    27   ar
    26    27    28   ar
    27    28    29   ar
    28    29    30    1
    29     7     2   ar
    30    29    23   ar
    31    12     8    1
    32    17    13    1
    33    19    22    1
@<TRIPOS>MOLECULE
*****
 30 33 0 0 0
SMALL
GASTEIGER

@<TRIPOS>ATOM
      1 C           1.2444    0.9143   24.6637 C.3     1  UNL1        0.0324
      2 C           0.2137    1.8114   24.0450 C.ar    1  UNL1       -0.0071
      3 C          -0.8957    2.3704   24.8856 C.ar    1  UNL1        0.0115
      4 C          -1.9265    3.2676   24.2670 C.ar    1  UNL1        0.0476
      5 C          -1.8478    3.6057   22.8078 C.ar    1  UNL1        0.0158
      6 C          -0.7384    3.0467   21.9672 C.ar    1  UNL1        0.0156
      7 C           0.2924    2.1496   22.5858 C.ar    1  UNL1        0.0466
      8 N          -3.0360    3.8266   25.1077 N.pl3   1  UNL1       -0.3061
      9 C          -3.1370    3.7447   26.6020 C.3     1  UNL1        0.0923
     10 C          -4.4026    4.4331   27.0195 C.3     1  UNL1        0.0391
     11 C          -5.0838    4.9405   25.7831 C.3     1  UNL1        0.0790
     12 C          -4.2392    4.5656   24.6015 C.3     1  UNL1        0.1067
     13 N          -6.3818    5.6909   25.7364 N.3     1  UNL1       -0.2736
     14 C          -6.8258    6.7454   26.7064 C.3     1  UNL1        0.0721
     15 C          -8.1820    7.2248   26.2811 C.3     1  UNL1        0.0187
     16 C          -8.5761    6.4666   25.0483 C.3     1  UNL1        0.0174
     17 C          -7.4635    5.5186   24.7117 C.3     1  UNL1        0.0576
     18 C          -7.4372    4.5656   23.5536 C.3     1  UNL1        0.0173
     19 N           1.4018    1.5906   21.7451 N.am    1  UNL1       -0.2806
     20 C           1.1060    0.5433   20.7129 C.2     1  UNL1        0.2493
     21 O          -0.2992    0.0548   20.5213 O.2     1  UNL1       -0.2698
     22 H           2.3242    1.9111   21.8709 H       1  UNL1        0.1552
     23 C           2.2155   -0.0158   19.8722 C.ar    1  UNL1        0.0520
     24 C           2.7771   -1.3727   20.1775 C.ar    1  UNL1        0.0338
     25 C           3.8866   -1.9317   19.3369 C.ar    1  UNL1        0.1403
     26 F           4.4482   -3.2887   19.6423 F       1  UNL1       -0.2042
     27 C           4.4343   -1.1338   18.1910 C.ar    1  UNL1        0.0293
     28 C           3.8726    0.2232   17.8857 C.ar    1  UNL1       -0.0018
     29 C           2.7632    0.7822   18.7263 C.ar    1  UNL1       -0.0173
     30 C           2.2016    2.1391   18.4209 C.3     1  UNL1        0.0312
@<TRIPOS>BOND
     1     1     2    1
     2     2     3   ar
     3     3     4   ar
     4     4     8    1
     5     8     9    1
     6     9    10    1
     7    10    11    1
     8    11    13    1
     9    13    14    1
    10    14    15    1
    11    15    16    1
    12    16    17    1
    13    17    18    1
    14    11    12    1
    15     4     5   ar
    16     5     6   ar
    17     6     7   ar
    18     7    19    1
    19    19    20   am
    20    20    21    2
    21    20    23    1
    22    23    24   ar
    23    24    25   ar
    24    25    26    1
    25    25    27   ar
    26    27    28   ar
    27    28    29   ar
    28    29    30    1
    29     7     2   ar
    30    29    23   ar
    31    12     8    1
    32    17    13    1
    33    19    22    1
@<TRIPOS>MOLECULE
*****
 30 33 0 0 0
SMALL
GASTEIGER

@<TRIPOS>ATOM
      1 C          -1.0662    3.2922   24.8420 C.3     1  UNL1        0.0324
      2 C          -1.2717    3.2519   23.3567 C.ar    1  UNL1       -0.0071
      3 C          -0.3200    2.4838   22.4885 C.ar    1  UNL1        0.0115
      4 C          -0.5255    2.4435   21.0032 C.ar    1  UNL1        0.0476
      5 C          -1.6828    3.1713   20.3861 C.ar    1  UNL1        0.0158
      6 C          -2.6346    3.9395   21.2544 C.ar    1  UNL1        0.0156
      7 C          -2.4291    3.9798   22.7397 C.ar    1  UNL1        0.0466
      8 N           0.4264    1.6753   20.1349 N.pl3   1  UNL1       -0.3061
      9 C           0.6742    1.9114   18.6744 C.3     1  UNL1        0.0923
     10 C           1.6985    0.9181   18.2116 C.3     1  UNL1        0.0391
     11 C           2.0838    0.0681   19.3860 C.3     1  UNL1        0.0790
     12 C           1.2975    0.5360   20.5746 C.3     1  UNL1        0.1067
     13 N           3.0802   -1.0530   19.3738 N.3     1  UNL1       -0.2736
     14 C           3.4298   -1.9344   20.5361 C.3     1  UNL1        0.0721
     15 C           4.4677   -2.9157   20.0778 C.3     1  UNL1        0.0187
     16 C           4.7595   -2.6407   18.6325 C.3     1  UNL1        0.0174
     17 C           3.9020   -1.4895   18.1973 C.3     1  UNL1        0.0576
     18 C           3.8716   -0.8814   16.8264 C.3     1  UNL1        0.0173
     19 N          -3.3809    4.7480   23.6080 N.am    1  UNL1       -0.2806
     20 C          -4.6490    4.1035   24.0838 C.2     1  UNL1        0.2493
     21 O          -4.9654    2.6907   23.6913 O.2     1  UNL1       -0.2698
     22 H          -3.1733    5.6753   23.8656 H       1  UNL1        0.1552
     23 C          -5.6009    4.8717   24.9521 C.ar    1  UNL1        0.0520
     24 C          -6.8697    5.4213   24.3706 C.ar    1  UNL1        0.0338
     25 C          -7.8215    6.1895   25.2388 C.ar    1  UNL1        0.1403
     26 F          -9.0903    6.7390   24.6573 F       1  UNL1       -0.2042
     27 C          -7.5046    6.4081   26.6885 C.ar    1  UNL1        0.0293
     28 C          -6.2358    5.8585   27.2700 C.ar    1  UNL1       -0.0018
     29 C          -5.2840    5.0903   26.4018 C.ar    1  UNL1       -0.0173
     30 C          -4.0152    4.5407   26.9833 C.3     1  UNL1        0.0312
@<TRIPOS>BOND
     1     1     2    1
     2     2     3   ar
     3     3     4   ar
     4     4     8    1
     5     8     9    1
     6     9    10    1
     7    10    11    1
     8    11    13    1
     9    13    14    1
    10    14    15    1
    11    15    16    1
    12    16    17    1
    13    17    18    1
    14    11    12    1
    15     4     5   ar
    16     5     6   ar
    17     6     7   ar
    18     7    19    1
    19    19    20   am
    20    20    21    2
    21    20    23    1
    22    23    24   ar
    23    24    25   ar
    24    25    26    1
    25    25    27   ar
    26    27    28   ar
    27    28    29   ar
    28    29    30    1
    29     7     2   ar
    30    29    23   ar
    31    12     8    1
    32    17    13    1
    33    19    22    1
@<TRIPOS>MOLECULE
*****
 30 33 0 0 0
SMALL
GASTEIGER

@<TRIPOS>ATOM
      1 C          -4.2240    4.2123   20.3590 C.3     1  UNL1        0.0324
      2 C          -2.9454    3.7674   21.0050 C.ar    1  UNL1       -0.0071
      3 C          -1.9286    3.0045   20.2086 C.ar    1  UNL1        0.0115
      4 C          -0.6500    2.5597   20.8546 C.ar    1  UNL1        0.0476
      5 C          -0.3882    2.8777   22.2969 C.ar    1  UNL1        0.0158
      6 C          -1.4050    3.6405   23.0932 C.ar    1  UNL1        0.0156
      7 C          -2.6836    4.0854   22.4472 C.ar    1  UNL1        0.0466
      8 N           0.3668    1.7968   20.0582 N.pl3   1  UNL1       -0.3061
      9 C           0.7675    2.0775   18.6403 C.3     1  UNL1        0.0923
     10 C           1.8097    1.0734   18.2457 C.3     1  UNL1        0.0391
     11 C           2.0531    0.1721   19.4198 C.3     1  UNL1        0.0790
     12 C           1.1613    0.6192   20.5400 C.3     1  UNL1        0.1067
     13 N           3.0187   -0.9748   19.4657 N.3     1  UNL1       -0.2736
     14 C           3.3312   -1.8166   20.6672 C.3     1  UNL1        0.0721
     15 C           4.3470   -2.8434   20.2622 C.3     1  UNL1        0.0187
     16 C           4.6622   -2.6361   18.8104 C.3     1  UNL1        0.0174
     17 C           3.8413   -1.4812   18.3181 C.3     1  UNL1        0.0576
     18 C           3.8427   -0.9296   16.9232 C.3     1  UNL1        0.0173
     19 N          -3.7003    4.8483   23.2437 N.am    1  UNL1       -0.2806
     20 C          -4.7917    4.1149   23.9655 C.2     1  UNL1        0.2493
     21 O          -4.8663    2.6187   23.8910 O.2     1  UNL1       -0.2698
     22 H          -3.6514    5.8304   23.2925 H       1  UNL1        0.1552
     23 C          -5.8084    4.8779   24.7619 C.ar    1  UNL1        0.0520
     24 C          -5.4862    5.3259   26.1567 C.ar    1  UNL1        0.0338
     25 C          -6.5029    6.0887   26.9531 C.ar    1  UNL1        0.1403
     26 F          -6.1807    6.5367   28.3479 F       1  UNL1       -0.2042
     27 C          -7.8418    6.4036   26.3547 C.ar    1  UNL1        0.0293
     28 C          -8.1641    5.9556   24.9599 C.ar    1  UNL1       -0.0018
     29 C          -7.1474    5.1927   24.1635 C.ar    1  UNL1       -0.0173
     30 C          -7.4696    4.7447   22.7687 C.3     1  UNL1        0.0312
@<TRIPOS>BOND
     1     1     2    1
     2     2     3   ar
     3     3     4   ar
     4     4     8    1
     5     8     9    1
     6     9    10    1
     7    10    11    1
     8    11    13    1
     9    13    14    1
    10    14    15    1
    11    15    16    1
    12    16    17    1
    13    17    18    1
    14    11    12    1
    15     4     5   ar
    16     5     6   ar
    17     6     7   ar
    18     7    19    1
    19    19    20   am
    20    20    21    2
    21    20    23    1
    22    23    24   ar
    23    24    25   ar
    24    25    26    1
    25    25    27   ar
    26    27    28   ar
    27    28    29   ar
    28    29    30    1
    29     7     2   ar
    30    29    23   ar
    31    12     8    1
    32    17    13    1
    33    19    22    1
@<TRIPOS>MOLECULE
*****
 30 33 0 0 0
SMALL
GASTEIGER

@<TRIPOS>ATOM
      1 C           1.5430    0.6252   24.7410 C.3     1  UNL1        0.0324
      2 C           0.5435    1.5295   24.0828 C.ar    1  UNL1       -0.0071
      3 C          -0.5737    2.1245   24.8876 C.ar    1  UNL1        0.0115
      4 C          -1.5732    3.0288   24.2293 C.ar    1  UNL1        0.0476
      5 C          -1.4555    3.3381   22.7664 C.ar    1  UNL1        0.0158
      6 C          -0.3382    2.7432   21.9616 C.ar    1  UNL1        0.0156
      7 C           0.6613    1.8389   22.6198 C.ar    1  UNL1        0.0466
      8 N          -2.6905    3.6237   25.0342 N.pl3   1  UNL1       -0.3061
      9 C          -2.7331    3.7451   26.5287 C.3     1  UNL1        0.0923
     10 C          -4.0303    4.3981   26.9040 C.3     1  UNL1        0.0391
     11 C          -4.7895    4.6804   25.6414 C.3     1  UNL1        0.0790
     12 C          -3.9614    4.2018   24.4859 C.3     1  UNL1        0.1067
     13 N          -6.1396    5.3276   25.5504 N.3     1  UNL1       -0.2736
     14 C          -7.1640    5.0837   24.4823 C.3     1  UNL1        0.0721
     15 C          -8.3598    5.9377   24.7833 C.3     1  UNL1        0.0187
     16 C          -8.0744    6.7095   26.0374 C.3     1  UNL1        0.0174
     17 C          -6.7022    6.3324   26.5115 C.3     1  UNL1        0.0576
     18 C          -6.0135    6.8664   27.7324 C.3     1  UNL1        0.0173
     19 N           1.7786    1.2439   21.8149 N.am    1  UNL1       -0.2806
     20 C           1.5053    0.1012   20.8825 C.2     1  UNL1        0.2493
     21 O           0.1148   -0.4466   20.7549 O.2     1  UNL1       -0.2698
     22 H           2.6913    1.6035   21.8987 H       1  UNL1        0.1552
     23 C           2.6226   -0.4938   20.0776 C.ar    1  UNL1        0.0520
     24 C           2.7106   -0.2263   18.6043 C.ar    1  UNL1        0.0338
     25 C           3.8278   -0.8212   17.7994 C.ar    1  UNL1        0.1403
     26 F           3.9158   -0.5537   16.3261 F       1  UNL1       -0.2042
     27 C           4.8571   -1.6836   18.4679 C.ar    1  UNL1        0.0293
     28 C           4.7691   -1.9511   19.9412 C.ar    1  UNL1       -0.0018
     29 C           3.6519   -1.3562   20.7461 C.ar    1  UNL1       -0.0173
     30 C           3.5639   -1.6236   22.2194 C.3     1  UNL1        0.0312
@<TRIPOS>BOND
     1     1     2    1
     2     2     3   ar
     3     3     4   ar
     4     4     8    1
     5     8     9    1
     6     9    10    1
     7    10    11    1
     8    11    13    1
     9    13    14    1
    10    14    15    1
    11    15    16    1
    12    16    17    1
    13    17    18    1
    14    11    12    1
    15     4     5   ar
    16     5     6   ar
    17     6     7   ar
    18     7    19    1
    19    19    20   am
    20    20    21    2
    21    20    23    1
    22    23    24   ar
    23    24    25   ar
    24    25    26    1
    25    25    27   ar
    26    27    28   ar
    27    28    29   ar
    28    29    30    1
    29     7     2   ar
    30    29    23   ar
    31    12     8    1
    32    17    13    1
    33    19    22    1
@<TRIPOS>MOLECULE
*****
 30 33 0 0 0
SMALL
GASTEIGER

@<TRIPOS>ATOM
      1 C           7.5071   -5.7161   25.0157 C.3     1  UNL1        0.0324
      2 C           7.0165   -4.5121   25.7638 C.ar    1  UNL1       -0.0071
      3 C           6.9979   -4.5172   27.2636 C.ar    1  UNL1        0.0115
      4 C           6.5072   -3.3132   28.0117 C.ar    1  UNL1        0.0476
      5 C           6.0352   -2.1041   27.2599 C.ar    1  UNL1        0.0158
      6 C           6.0538   -2.0990   25.7600 C.ar    1  UNL1        0.0156
      7 C           6.5445   -3.3030   25.0120 C.ar    1  UNL1        0.0466
      8 N           6.4887   -3.3183   29.5116 N.pl3   1  UNL1       -0.3061
      9 C           6.9119   -4.4544   30.3947 C.3     1  UNL1        0.0923
     10 C           6.7284   -4.0264   31.8206 C.3     1  UNL1        0.0391
     11 C           6.1916   -2.6257   31.8187 C.3     1  UNL1        0.0790
     12 C           6.0435   -2.1881   30.3917 C.3     1  UNL1        0.1067
     13 N           5.8611   -1.8065   33.0310 N.3     1  UNL1       -0.2736
     14 C           4.5474   -1.7935   33.7548 C.3     1  UNL1        0.0721
     15 C           4.6607   -0.8355   34.9035 C.3     1  UNL1        0.0187
     16 C           6.0443   -0.2565   34.8895 C.3     1  UNL1        0.0174
     17 C           6.7863   -0.8567   33.7323 C.3     1  UNL1        0.0576
     18 C           8.2044   -0.5592   33.3444 C.3     1  UNL1        0.0173
     19 N           6.5630   -3.2979   23.5121 N.am    1  UNL1       -0.2806
     20 C           5.2986   -3.0409   22.7472 C.2     1  UNL1        0.2493
     21 O           4.0155   -2.7890   23.4822 O.2     1  UNL1       -0.2698
     22 H           7.4052   -3.4632   23.0296 H       1  UNL1        0.1552
     23 C           5.3172   -3.0358   21.2473 C.ar    1  UNL1        0.0520
     24 C           4.9799   -4.2852   20.4888 C.ar    1  UNL1        0.0338
     25 C           4.9985   -4.2801   18.9890 C.ar    1  UNL1        0.1403
     26 F           4.6613   -5.5295   18.2305 F       1  UNL1       -0.2042
     27 C           5.3543   -3.0257   18.2476 C.ar    1  UNL1        0.0293
     28 C           5.6915   -1.7763   19.0061 C.ar    1  UNL1       -0.0018
     29 C           5.6730   -1.7813   20.5059 C.ar    1  UNL1       -0.0173
     30 C           6.0102   -0.5319   21.2644 C.3     1  UNL1        0.0312
@<TRIPOS>BOND
     1     1     2    1
     2     2     3   ar
     3     3     4   ar
     4     4     8    1
     5     8     9    1
     6     9    10    1
     7    10    11    1
     8    11    13    1
     9    13    14    1
    10    14    15    1
    11    15    16    1
    12    16    17    1
    13    17    18    1
    14    11    12    1
    15     4     5   ar
    16     5     6   ar
    17     6     7   ar
    18     7    19    1
    19    19    20   am
    20    20    21    2
    21    20    23    1
    22    23    24   ar
    23    24    25   ar
    24    25    26    1
    25    25    27   ar
    26    27    28   ar
    27    28    29   ar
    28    29    30    1
    29     7     2   ar
    30    29    23   ar
    31    12     8    1
    32    17    13    1
    33    19    22    1
@<TRIPOS>MOLECULE
*****
 30 33 0 0 0
SMALL
GASTEIGER

@<TRIPOS>ATOM
      1 C           3.2775   -0.5630   24.9040 C.3     1  UNL1        0.0324
      2 C           4.5037   -1.2457   25.4335 C.ar    1  UNL1       -0.0071
      3 C           4.6404   -1.5076   26.9041 C.ar    1  UNL1        0.0115
      4 C           5.8666   -2.1902   27.4335 C.ar    1  UNL1        0.0476
      5 C           6.9562   -2.6110   26.4924 C.ar    1  UNL1        0.0158
      6 C           6.8195   -2.3491   25.0219 C.ar    1  UNL1        0.0156
      7 C           5.5933   -1.6664   24.4924 C.ar    1  UNL1        0.0466
      8 N           6.0032   -2.4522   28.9042 N.pl3   1  UNL1       -0.3061
      9 C           6.5780   -3.6882   29.5300 C.3     1  UNL1        0.0923
     10 C           6.5190   -3.5239   31.0198 C.3     1  UNL1        0.0391
     11 C           5.9077   -2.1863   31.3148 C.3     1  UNL1        0.0790
     12 C           5.5889   -1.5239   30.0073 C.3     1  UNL1        0.1067
     13 N           5.6589   -1.6119   32.6779 N.3     1  UNL1       -0.2736
     14 C           4.4869   -1.9174   33.5629 C.3     1  UNL1        0.0721
     15 C           4.6421   -1.1255   34.8273 C.3     1  UNL1        0.0187
     16 C           5.9098   -0.3305   34.7238 C.3     1  UNL1        0.0174
     17 C           6.5383   -0.6311   33.3954 C.3     1  UNL1        0.0576
     18 C           7.8209   -0.0526   32.8756 C.3     1  UNL1        0.0173
     19 N           5.4567   -1.4045   23.0217 N.am    1  UNL1       -0.2806
     20 C           4.8101   -2.4268   22.1347 C.2     1  UNL1        0.2493
     21 O           4.3001   -3.7111   22.7183 O.2     1  UNL1       -0.2698
     22 H           5.7914   -0.5616   22.6386 H       1  UNL1        0.1552
     23 C           4.6735   -2.1649   20.6640 C.ar    1  UNL1        0.0520
     24 C           3.5855   -1.2634   20.1607 C.ar    1  UNL1        0.0338
     25 C           3.4489   -1.0014   18.6901 C.ar    1  UNL1        0.1403
     26 F           2.3608   -0.0999   18.1868 F       1  UNL1       -0.2042
     27 C           4.4003   -1.6411   17.7229 C.ar    1  UNL1        0.0293
     28 C           5.4883   -2.5427   18.2262 C.ar    1  UNL1       -0.0018
     29 C           5.6249   -2.8046   19.6968 C.ar    1  UNL1       -0.0173
     30 C           6.7130   -3.7061   20.2001 C.3     1  UNL1        0.0312
@<TRIPOS>BOND
     1     1     2    1
     2     2     3   ar
     3     3     4   ar
     4     4     8    1
     5     8     9    1
     6     9    10    1
     7    10    11    1
     8    11    13    1
     9    13    14    1
    10    14    15    1
    11    15    16    1
    12    16    17    1
    13    17    18    1
    14    11    12    1
    15     4     5   ar
    16     5     6   ar
    17     6     7   ar
    18     7    19    1
    19    19    20   am
    20    20    21    2
    21    20    23    1
    22    23    24   ar
    23    24    25   ar
    24    25    26    1
    25    25    27   ar
    26    27    28   ar
    27    28    29   ar
    28    29    30    1
    29     7     2   ar
    30    29    23   ar
    31    12     8    1
    32    17    13    1
    33    19    22    1
@<TRIPOS>MOLECULE
*****
 30 33 0 0 0
SMALL
GASTEIGER

@<TRIPOS>ATOM
      1 C           5.8533   -2.0796   28.9578 C.3     1  UNL1        0.0324
      2 C           4.9122   -1.1757   28.2181 C.ar    1  UNL1       -0.0071
      3 C           4.6461   -1.4021   26.7593 C.ar    1  UNL1        0.0115
      4 C           3.7049   -0.4982   26.0196 C.ar    1  UNL1        0.0476
      5 C           3.0299    0.6320   26.7385 C.ar    1  UNL1        0.0158
      6 C           3.2961    0.8584   28.1972 C.ar    1  UNL1        0.0156
      7 C           4.2372   -0.0455   28.9370 C.ar    1  UNL1        0.0466
      8 N           3.4388   -0.7247   24.5608 N.pl3   1  UNL1       -0.3061
      9 C           2.4590    0.0336   23.7152 C.3     1  UNL1        0.0923
     10 C           2.5204   -0.5222   22.3233 C.3     1  UNL1        0.0391
     11 C           3.5382   -1.6241   22.3087 C.3     1  UNL1        0.0790
     12 C           4.1057   -1.7492   23.6915 C.3     1  UNL1        0.1067
     13 N           3.9211   -2.4549   21.1200 N.3     1  UNL1       -0.2736
     14 C           4.4902   -3.8421   21.1604 C.3     1  UNL1        0.0721
     15 C           4.7229   -4.2890   19.7475 C.3     1  UNL1        0.0187
     16 C           4.2977   -3.1779   18.8340 C.3     1  UNL1        0.0174
     17 C           3.8021   -2.0443   19.6822 C.3     1  UNL1        0.0576
     18 C           3.2794   -0.7309   19.1807 C.3     1  UNL1        0.0173
     19 N           4.5033    0.1810   30.3958 N.am    1  UNL1       -0.2806
     20 C           3.4954   -0.2533   31.4182 C.2     1  UNL1        0.2493
     21 O           2.2214   -0.9140   30.9820 O.2     1  UNL1       -0.2698
     22 H           5.3395    0.6146   30.6821 H       1  UNL1        0.1552
     23 C           3.7616   -0.0269   32.8770 C.ar    1  UNL1        0.0520
     24 C           3.3943    1.2815   33.5121 C.ar    1  UNL1        0.0338
     25 C           3.6604    1.5079   34.9708 C.ar    1  UNL1        0.1403
     26 F           3.2932    2.8163   35.6060 F       1  UNL1       -0.2042
     27 C           4.2938    0.4260   35.7944 C.ar    1  UNL1        0.0293
     28 C           4.6610   -0.8823   35.1593 C.ar    1  UNL1       -0.0018
     29 C           4.3949   -1.1088   33.7006 C.ar    1  UNL1       -0.0173
     30 C           4.7622   -2.4171   33.0655 C.3     1  UNL1        0.0312
@<TRIPOS>BOND
     1     1     2    1
     2     2     3   ar
     3     3     4   ar
     4     4     8    1
     5     8     9    1
     6     9    10    1
     7    10    11    1
     8    11    13    1
     9    13    14    1
    10    14    15    1
    11    15    16    1
    12    16    17    1
    13    17    18    1
    14    11    12    1
    15     4     5   ar
    16     5     6   ar
    17     6     7   ar
    18     7    19    1
    19    19    20   am
    20    20    21    2
    21    20    23    1
    22    23    24   ar
    23    24    25   ar
    24    25    26    1
    25    25    27   ar
    26    27    28   ar
    27    28    29   ar
    28    29    30    1
    29     7     2   ar
    30    29    23   ar
    31    12     8    1
    32    17    13    1
    33    19    22    1
