@<TRIPOS>MOLECULE
*****
 31 35 0 0 0
SMALL
GASTEIGER

@<TRIPOS>ATOM
      1 C          -5.4709  -18.2127   22.3807 C.ar    1  UNL1        0.0599
      2 C          -5.5650  -16.9295   23.1519 C.ar    1  UNL1        0.0955
      3 N          -4.2559  -16.2100   23.0160 N.ar    1  UNL1       -0.2292
      4 C          -3.3527  -17.0485   22.1609 C.ar    1  UNL1        0.1481
      5 C          -1.9435  -16.8448   21.6890 C.ar    1  UNL1        0.0488
      6 C          -1.2852  -17.8789   20.8246 C.ar    1  UNL1        0.0622
      7 CL          0.1240  -17.6753   20.3527 Cl      1  UNL1       -0.0821
      8 C          -2.0362  -19.1166   20.4319 C.ar    1  UNL1        0.0305
      9 C          -3.4454  -19.3203   20.9038 C.ar    1  UNL1        0.0820
     10 N          -4.1036  -18.2862   21.7682 N.ar    1  UNL1       -0.2927
     11 C          -6.5539  -19.2416   22.2457 C.3     1  UNL1        0.0707
     12 C          -6.9329  -19.7582   20.8895 C.3     1  UNL1        0.1571
     13 S          -8.3068  -19.4999   20.3455 S.O2    1  UNL1       -0.0096
     14 O          -7.7157  -19.1794   19.0047 O.2     1  UNL1       -0.1730
     15 O          -8.8979  -19.8205   21.6863 O.2     1  UNL1       -0.1730
     16 C         -10.8817  -19.8117   20.4962 C.3     1  UNL1        0.0271
     17 C          -9.6806  -19.2417   19.8016 C.3     1  UNL1        0.1509
     18 C          -6.7587  -16.4501   23.9234 C.3     1  UNL1        0.1575
     19 N          -8.1361  -16.6152   23.3531 N.ar    1  UNL1       -0.2726
     20 C          -8.6465  -15.9937   22.0868 C.ar    1  UNL1        0.3318
     21 O          -7.8689  -15.0981   21.1686 O.2     1  UNL1       -0.2463
     22 N         -10.0709  -16.4253   21.9000 N.ar    1  UNL1       -0.2817
     23 C         -10.4409  -17.3134   23.0508 C.ar    1  UNL1        0.0827
     24 C         -11.7121  -18.0304   23.3969 C.ar    1  UNL1        0.0395
     25 C         -11.7877  -18.8649   24.6412 C.ar    1  UNL1        0.1005
     26 N         -10.5920  -18.9822   25.5392 N.ar    1  UNL1       -0.2407
     27 C          -9.3207  -18.2652   25.1931 C.ar    1  UNL1        0.1176
     28 C          -9.2452  -17.4308   23.9489 C.ar    1  UNL1        0.0992
     29 C         -10.9678  -16.0368   20.7622 C.3     1  UNL1        0.0900
     30 C         -12.3407  -15.9354   20.1665 C.3     1  UNL1        0.0246
     31 C         -11.1484  -15.4655   19.3870 C.3     1  UNL1        0.0246
@<TRIPOS>BOND
     1    16    17    1
     2    17    13    1
     3    13    14    2
     4    13    15    2
     5    13    12    1
     6    12    11    1
     7    11     1    1
     8     1     2   ar
     9     2    18    1
    10    18    19    1
    11    19    20   ar
    12    20    21    2
    13    20    22   ar
    14    22    29    1
    15    29    30    1
    16    30    31    1
    17    22    23   ar
    18    23    24   ar
    19    24    25   ar
    20    25    26   ar
    21    26    27   ar
    22    27    28   ar
    23     2     3   ar
    24     3     4   ar
    25     4     5   ar
    26     5     6   ar
    27     6     7    1
    28     6     8   ar
    29     8     9   ar
    30     9    10   ar
    31    10     1   ar
    32    28    19   ar
    33    10     4   ar
    34    31    29    1
    35    28    23   ar
@<TRIPOS>MOLECULE
*****
 31 35 0 0 0
SMALL
GASTEIGER

@<TRIPOS>ATOM
      1 C          -5.8037  -18.1679   22.4596 C.ar    1  UNL1        0.0599
      2 C          -5.7987  -17.0354   23.4432 C.ar    1  UNL1        0.0955
      3 N          -4.4513  -16.3786   23.3869 N.ar    1  UNL1       -0.2292
      4 C          -3.6236  -17.1051   22.3685 C.ar    1  UNL1        0.1481
      5 C          -2.2169  -16.9025   21.8890 C.ar    1  UNL1        0.0488
      6 C          -1.6459  -17.8058   20.8364 C.ar    1  UNL1        0.0622
      7 CL         -0.2391  -17.6032   20.3568 Cl      1  UNL1       -0.0821
      8 C          -2.4818  -18.9117   20.2633 C.ar    1  UNL1        0.0305
      9 C          -3.8885  -19.1142   20.7428 C.ar    1  UNL1        0.0820
     10 N          -4.4594  -18.2109   21.7954 N.ar    1  UNL1       -0.2927
     11 C          -6.9514  -19.0946   22.1879 C.3     1  UNL1        0.0707
     12 C          -7.4442  -19.2868   20.7843 C.3     1  UNL1        0.1571
     13 S          -8.9173  -19.3515   20.5088 S.O2    1  UNL1       -0.0096
     14 O          -8.6589  -19.0637   19.0595 O.2     1  UNL1       -0.1730
     15 O          -9.1757  -19.6393   21.9581 O.2     1  UNL1       -0.1730
     16 C         -11.3127  -20.0519   21.2308 C.3     1  UNL1        0.0271
     17 C         -10.3904  -19.4162   20.2333 C.3     1  UNL1        0.1509
     18 C          -6.9405  -16.6308   24.3278 C.3     1  UNL1        0.1575
     19 N          -8.3494  -16.7168   23.8203 N.ar    1  UNL1       -0.2726
     20 C          -9.4708  -17.4832   24.4570 C.ar    1  UNL1        0.3318
     21 O          -9.3799  -18.2981   25.7130 O.2     1  UNL1       -0.2463
     22 N         -10.6987  -17.2916   23.6172 N.ar    1  UNL1       -0.2817
     23 C         -10.3364  -16.4067   22.4614 C.ar    1  UNL1        0.0827
     24 C         -11.1410  -15.8786   21.3109 C.ar    1  UNL1        0.0395
     25 C         -10.4936  -14.9951   20.2859 C.ar    1  UNL1        0.1005
     26 N          -9.0417  -14.6400   20.4114 N.ar    1  UNL1       -0.2407
     27 C          -8.2371  -15.1681   21.5619 C.ar    1  UNL1        0.1176
     28 C          -8.8844  -16.0515   22.5869 C.ar    1  UNL1        0.0992
     29 C         -12.0515  -17.8812   23.8859 C.3     1  UNL1        0.0900
     30 C         -13.5069  -18.0027   23.5438 C.3     1  UNL1        0.0246
     31 C         -12.9393  -18.7810   24.6936 C.3     1  UNL1        0.0246
@<TRIPOS>BOND
     1    16    17    1
     2    17    13    1
     3    13    14    2
     4    13    15    2
     5    13    12    1
     6    12    11    1
     7    11     1    1
     8     1     2   ar
     9     2    18    1
    10    18    19    1
    11    19    20   ar
    12    20    21    2
    13    20    22   ar
    14    22    29    1
    15    29    30    1
    16    30    31    1
    17    22    23   ar
    18    23    24   ar
    19    24    25   ar
    20    25    26   ar
    21    26    27   ar
    22    27    28   ar
    23     2     3   ar
    24     3     4   ar
    25     4     5   ar
    26     5     6   ar
    27     6     7    1
    28     6     8   ar
    29     8     9   ar
    30     9    10   ar
    31    10     1   ar
    32    28    19   ar
    33    10     4   ar
    34    31    29    1
    35    28    23   ar
@<TRIPOS>MOLECULE
*****
 31 35 0 0 0
SMALL
GASTEIGER

@<TRIPOS>ATOM
      1 C          -5.2651  -18.5609   22.3001 C.ar    1  UNL1        0.0599
      2 C          -5.7097  -19.7592   21.5149 C.ar    1  UNL1        0.0955
      3 N          -4.6176  -20.1115   20.5488 N.ar    1  UNL1       -0.2292
      4 C          -3.4981  -19.1310   20.7369 C.ar    1  UNL1        0.1481
      5 C          -2.1661  -18.9870   20.0625 C.ar    1  UNL1        0.0488
      6 C          -1.2342  -17.8848   20.4704 C.ar    1  UNL1        0.0622
      7 CL          0.0979  -17.7407   19.7960 Cl      1  UNL1       -0.0821
      8 C          -1.6343  -16.9264   21.5528 C.ar    1  UNL1        0.0305
      9 C          -2.9664  -17.0704   22.2272 C.ar    1  UNL1        0.0820
     10 N          -3.8983  -18.1727   21.8193 N.ar    1  UNL1       -0.2927
     11 C          -6.0495  -17.8719   23.3770 C.3     1  UNL1        0.0707
     12 C          -6.8968  -16.6803   23.0421 C.3     1  UNL1        0.1571
     13 S          -7.6270  -15.9496   24.1298 S.O2    1  UNL1       -0.0096
     14 O          -8.8761  -15.9619   23.2994 O.2     1  UNL1       -0.1730
     15 O          -6.3778  -15.9373   24.9601 O.2     1  UNL1       -0.1730
     16 C          -8.1454  -15.6030   26.6519 C.3     1  UNL1        0.0271
     17 C          -8.3571  -15.2189   25.2174 C.3     1  UNL1        0.1509
     18 C          -7.0168  -20.4787   21.6687 C.3     1  UNL1        0.1575
     19 N          -8.2953  -19.6998   21.7615 N.ar    1  UNL1       -0.2726
     20 C          -8.8835  -18.8389   20.6831 C.ar    1  UNL1        0.3318
     21 O          -8.2964  -18.6057   19.3227 O.2     1  UNL1       -0.2463
     22 N         -10.1619  -18.2520   21.2041 N.ar    1  UNL1       -0.2817
     23 C         -10.3638  -18.7503   22.6045 C.ar    1  UNL1        0.0827
     24 C         -11.4490  -18.5048   23.6104 C.ar    1  UNL1        0.0395
     25 C         -11.3807  -19.1542   24.9610 C.ar    1  UNL1        0.1005
     26 N         -10.2272  -20.0489   25.3054 N.ar    1  UNL1       -0.2407
     27 C          -9.1419  -20.2944   24.2994 C.ar    1  UNL1        0.1176
     28 C          -9.2102  -19.6451   22.9490 C.ar    1  UNL1        0.0992
     29 C         -11.0775  -17.3291   20.4561 C.3     1  UNL1        0.0900
     30 C         -12.3841  -16.5997   20.3504 C.3     1  UNL1        0.0246
     31 C         -11.3571  -16.4596   19.2661 C.3     1  UNL1        0.0246
@<TRIPOS>BOND
     1    16    17    1
     2    17    13    1
     3    13    14    2
     4    13    15    2
     5    13    12    1
     6    12    11    1
     7    11     1    1
     8     1     2   ar
     9     2    18    1
    10    18    19    1
    11    19    20   ar
    12    20    21    2
    13    20    22   ar
    14    22    29    1
    15    29    30    1
    16    30    31    1
    17    22    23   ar
    18    23    24   ar
    19    24    25   ar
    20    25    26   ar
    21    26    27   ar
    22    27    28   ar
    23     2     3   ar
    24     3     4   ar
    25     4     5   ar
    26     5     6   ar
    27     6     7    1
    28     6     8   ar
    29     8     9   ar
    30     9    10   ar
    31    10     1   ar
    32    28    19   ar
    33    10     4   ar
    34    31    29    1
    35    28    23   ar
@<TRIPOS>MOLECULE
*****
 31 35 0 0 0
SMALL
GASTEIGER

@<TRIPOS>ATOM
      1 C          -4.3871  -17.8180   22.6991 C.ar    1  UNL1        0.0599
      2 C          -5.3394  -18.8553   22.1825 C.ar    1  UNL1        0.0955
      3 N          -4.8279  -19.3345   20.8563 N.ar    1  UNL1       -0.2292
      4 C          -3.5594  -18.5935   20.5534 C.ar    1  UNL1        0.1481
      5 C          -2.6173  -18.6511   19.3877 C.ar    1  UNL1        0.0488
      6 C          -1.4026  -17.7713   19.3609 C.ar    1  UNL1        0.0622
      7 CL         -0.4604  -17.8289   18.1952 Cl      1  UNL1       -0.0821
      8 C          -1.1302  -16.8340   20.4999 C.ar    1  UNL1        0.0305
      9 C          -2.0723  -16.7764   21.6656 C.ar    1  UNL1        0.0820
     10 N          -3.2870  -17.6562   21.6924 N.ar    1  UNL1       -0.2927
     11 C          -4.5127  -17.0732   23.9951 C.3     1  UNL1        0.0707
     12 C          -5.4528  -15.9094   24.1033 C.3     1  UNL1        0.1571
     13 S          -5.9950  -15.5051   25.4422 S.O2    1  UNL1       -0.0096
     14 O          -4.8347  -16.1768   26.1149 O.2     1  UNL1       -0.1730
     15 O          -7.1552  -14.8333   24.7695 O.2     1  UNL1       -0.1730
     16 C          -7.9243  -15.5066   27.1822 C.3     1  UNL1        0.0271
     17 C          -6.5371  -15.1007   26.7810 C.3     1  UNL1        0.1509
     18 C          -6.5847  -19.3299   22.8710 C.3     1  UNL1        0.1575
     19 N          -7.9315  -18.9524   22.3293 N.ar    1  UNL1       -0.2726
     20 C          -8.9718  -18.1390   23.0410 C.ar    1  UNL1        0.3318
     21 O          -8.8476  -17.5604   24.4193 O.2     1  UNL1       -0.2463
     22 N         -10.1578  -18.0059   22.1324 N.ar    1  UNL1       -0.2817
     23 C          -9.8507  -18.7370   20.8591 C.ar    1  UNL1        0.0827
     24 C         -10.6460  -18.9456   19.6046 C.ar    1  UNL1        0.0395
     25 C         -10.0656  -19.7392   18.4717 C.ar    1  UNL1        0.1005
     26 N          -8.6897  -20.3242   18.5935 N.ar    1  UNL1       -0.2407
     27 C          -7.8942  -20.1156   19.8480 C.ar    1  UNL1        0.1176
     28 C          -8.4747  -19.3220   20.9808 C.ar    1  UNL1        0.0992
     29 C         -11.4279  -17.2708   22.4426 C.3     1  UNL1        0.0900
     30 C         -12.8615  -17.2833   22.8839 C.3     1  UNL1        0.0246
     31 C         -12.1944  -15.9849   22.5385 C.3     1  UNL1        0.0246
@<TRIPOS>BOND
     1    16    17    1
     2    17    13    1
     3    13    14    2
     4    13    15    2
     5    13    12    1
     6    12    11    1
     7    11     1    1
     8     1     2   ar
     9     2    18    1
    10    18    19    1
    11    19    20   ar
    12    20    21    2
    13    20    22   ar
    14    22    29    1
    15    29    30    1
    16    30    31    1
    17    22    23   ar
    18    23    24   ar
    19    24    25   ar
    20    25    26   ar
    21    26    27   ar
    22    27    28   ar
    23     2     3   ar
    24     3     4   ar
    25     4     5   ar
    26     5     6   ar
    27     6     7    1
    28     6     8   ar
    29     8     9   ar
    30     9    10   ar
    31    10     1   ar
    32    28    19   ar
    33    10     4   ar
    34    31    29    1
    35    28    23   ar
@<TRIPOS>MOLECULE
*****
 31 35 0 0 0
SMALL
GASTEIGER

@<TRIPOS>ATOM
      1 C          -7.2562  -18.6068   22.3454 C.ar    1  UNL1        0.0599
      2 C          -7.6575  -19.5425   21.2438 C.ar    1  UNL1        0.0955
      3 N          -6.4189  -19.9324   20.4928 N.ar    1  UNL1       -0.2292
      4 C          -5.2523  -19.2378   21.1303 C.ar    1  UNL1        0.1481
      5 C          -3.7856  -19.2455   20.8161 C.ar    1  UNL1        0.0488
      6 C          -2.8364  -18.4338   21.6469 C.ar    1  UNL1        0.0622
      7 CL         -1.3696  -18.4415   21.3328 Cl      1  UNL1       -0.0821
      8 C          -3.3539  -17.6146   22.7919 C.ar    1  UNL1        0.0305
      9 C          -4.8206  -17.6069   23.1061 C.ar    1  UNL1        0.0820
     10 N          -5.7698  -18.4185   22.2753 N.ar    1  UNL1       -0.2927
     11 C          -8.1794  -17.9711   23.3422 C.3     1  UNL1        0.0707
     12 C          -8.1883  -16.4809   23.5122 C.3     1  UNL1        0.1571
     13 S          -7.8065  -15.8739   24.8297 S.O2    1  UNL1       -0.0096
     14 O          -6.8419  -14.9626   24.1303 O.2     1  UNL1       -0.1730
     15 O          -8.7711  -16.7852   25.5290 O.2     1  UNL1       -0.1730
     16 C          -8.2894  -15.4869   27.3530 C.3     1  UNL1        0.0271
     17 C          -7.4247  -15.2670   26.1472 C.3     1  UNL1        0.1509
     18 C          -9.0523  -20.0067   20.9455 C.3     1  UNL1        0.1575
     19 N         -10.2275  -19.2273   21.4567 N.ar    1  UNL1       -0.2726
     20 C         -11.0026  -19.5195   22.7074 C.ar    1  UNL1        0.3318
     21 O         -10.7383  -20.6423   23.6663 O.2     1  UNL1       -0.2463
     22 N         -12.0881  -18.4917   22.8308 N.ar    1  UNL1       -0.2817
     23 C         -11.9841  -17.5643   21.6564 C.ar    1  UNL1        0.0827
     24 C         -12.7878  -16.3647   21.2506 C.ar    1  UNL1        0.0395
     25 C         -12.4418  -15.6196   19.9955 C.ar    1  UNL1        0.1005
     26 N         -11.2919  -16.0742   19.1463 N.ar    1  UNL1       -0.2407
     27 C         -10.4880  -17.2739   19.5522 C.ar    1  UNL1        0.1176
     28 C         -10.8342  -18.0190   20.8072 C.ar    1  UNL1        0.0992
     29 C         -13.1000  -18.4064   23.9347 C.3     1  UNL1        0.0900
     30 C         -13.4519  -18.5347   25.3872 C.3     1  UNL1        0.0246
     31 C         -14.5010  -18.1301   24.3943 C.3     1  UNL1        0.0246
@<TRIPOS>BOND
     1    16    17    1
     2    17    13    1
     3    13    14    2
     4    13    15    2
     5    13    12    1
     6    12    11    1
     7    11     1    1
     8     1     2   ar
     9     2    18    1
    10    18    19    1
    11    19    20   ar
    12    20    21    2
    13    20    22   ar
    14    22    29    1
    15    29    30    1
    16    30    31    1
    17    22    23   ar
    18    23    24   ar
    19    24    25   ar
    20    25    26   ar
    21    26    27   ar
    22    27    28   ar
    23     2     3   ar
    24     3     4   ar
    25     4     5   ar
    26     5     6   ar
    27     6     7    1
    28     6     8   ar
    29     8     9   ar
    30     9    10   ar
    31    10     1   ar
    32    28    19   ar
    33    10     4   ar
    34    31    29    1
    35    28    23   ar
@<TRIPOS>MOLECULE
*****
 31 35 0 0 0
SMALL
GASTEIGER

@<TRIPOS>ATOM
      1 C          -9.0481  -17.0001   23.6841 C.ar    1  UNL1        0.0599
      2 C          -7.7644  -16.9467   22.9101 C.ar    1  UNL1        0.0955
      3 N          -8.0922  -16.5770   21.4938 N.ar    1  UNL1       -0.2292
      4 C          -9.5785  -16.4020   21.3925 C.ar    1  UNL1        0.1481
      5 C         -10.4703  -16.0383   20.2426 C.ar    1  UNL1        0.0488
      6 C         -11.9528  -15.9362   20.4463 C.ar    1  UNL1        0.0622
      7 CL        -12.8446  -15.5725   19.2963 Cl      1  UNL1       -0.0821
      8 C         -12.5436  -16.1977   21.8001 C.ar    1  UNL1        0.0305
      9 C         -11.6518  -16.5613   22.9500 C.ar    1  UNL1        0.0820
     10 N         -10.1693  -16.6635   22.7463 N.ar    1  UNL1       -0.2927
     11 C          -9.1864  -17.3320   25.1404 C.3     1  UNL1        0.0707
     12 C          -9.6900  -18.6818   25.5576 C.3     1  UNL1        0.1571
     13 S         -10.3329  -19.5871   24.5491 S.O2    1  UNL1       -0.0096
     14 O          -9.0003  -20.2128   24.2612 O.2     1  UNL1       -0.1730
     15 O         -11.6654  -18.9614   24.8370 O.2     1  UNL1       -0.1730
     16 C         -10.9439  -20.1352   22.0841 C.3     1  UNL1        0.0271
     17 C         -10.9758  -20.4924   23.5406 C.3     1  UNL1        0.1509
     18 C          -6.3935  -17.2156   23.4564 C.3     1  UNL1        0.1575
     19 N          -5.3219  -17.7595   22.5588 N.ar    1  UNL1       -0.2726
     20 C          -3.9889  -17.1251   22.2924 C.ar    1  UNL1        0.3318
     21 O          -3.4938  -15.8355   22.8769 O.2     1  UNL1       -0.2463
     22 N          -3.2382  -18.0067   21.3390 N.ar    1  UNL1       -0.2817
     23 C          -4.1071  -19.1861   21.0160 C.ar    1  UNL1        0.0827
     24 C          -3.8921  -20.3793   20.1330 C.ar    1  UNL1        0.0395
     25 C          -4.9648  -21.4198   20.0037 C.ar    1  UNL1        0.1005
     26 N          -6.2525  -21.2670   20.7576 N.ar    1  UNL1       -0.2407
     27 C          -6.4676  -20.0737   21.6408 C.ar    1  UNL1        0.1176
     28 C          -5.3949  -19.0333   21.7700 C.ar    1  UNL1        0.0992
     29 C          -1.8605  -17.7535   20.8026 C.3     1  UNL1        0.0900
     30 C          -0.7278  -16.8102   20.5243 C.3     1  UNL1        0.0246
     31 C          -0.6067  -18.2582   20.1518 C.3     1  UNL1        0.0246
@<TRIPOS>BOND
     1    16    17    1
     2    17    13    1
     3    13    14    2
     4    13    15    2
     5    13    12    1
     6    12    11    1
     7    11     1    1
     8     1     2   ar
     9     2    18    1
    10    18    19    1
    11    19    20   ar
    12    20    21    2
    13    20    22   ar
    14    22    29    1
    15    29    30    1
    16    30    31    1
    17    22    23   ar
    18    23    24   ar
    19    24    25   ar
    20    25    26   ar
    21    26    27   ar
    22    27    28   ar
    23     2     3   ar
    24     3     4   ar
    25     4     5   ar
    26     5     6   ar
    27     6     7    1
    28     6     8   ar
    29     8     9   ar
    30     9    10   ar
    31    10     1   ar
    32    28    19   ar
    33    10     4   ar
    34    31    29    1
    35    28    23   ar
@<TRIPOS>MOLECULE
*****
 31 35 0 0 0
SMALL
GASTEIGER

@<TRIPOS>ATOM
      1 C          -8.8764  -17.2033   23.7573 C.ar    1  UNL1        0.0599
      2 C          -7.6325  -17.1979   22.9190 C.ar    1  UNL1        0.0955
      3 N          -8.0237  -16.8575   21.5115 N.ar    1  UNL1       -0.2292
      4 C          -9.5093  -16.6526   21.4798 C.ar    1  UNL1        0.1481
      5 C         -10.4502  -16.2990   20.3665 C.ar    1  UNL1        0.0488
      6 C         -11.9181  -16.1591   20.6412 C.ar    1  UNL1        0.0622
      7 CL        -12.8592  -15.8055   19.5278 Cl      1  UNL1       -0.0821
      8 C         -12.4452  -16.3729   22.0292 C.ar    1  UNL1        0.0305
      9 C         -11.5043  -16.7264   23.1425 C.ar    1  UNL1        0.0820
     10 N         -10.0363  -16.8663   22.8678 N.ar    1  UNL1       -0.2927
     11 C          -8.9479  -17.4946   25.2270 C.3     1  UNL1        0.0707
     12 C          -8.8923  -16.3701   26.2181 C.3     1  UNL1        0.1571
     13 S          -7.5838  -15.7031   26.5230 S.O2    1  UNL1       -0.0096
     14 O          -7.7503  -14.8255   25.3180 O.2     1  UNL1       -0.1730
     15 O          -7.4173  -16.5807   27.7281 O.2     1  UNL1       -0.1730
     16 C          -5.1202  -15.1833   25.8826 C.3     1  UNL1        0.0271
     17 C          -6.2754  -15.0361   26.8280 C.3     1  UNL1        0.1509
     18 C          -6.2417  -17.4828   23.4033 C.3     1  UNL1        0.1575
     19 N          -5.1999  -17.9765   22.4437 N.ar    1  UNL1       -0.2726
     20 C          -3.8900  -17.3095   22.1444 C.ar    1  UNL1        0.3318
     21 O          -3.3922  -16.0317   22.7521 O.2     1  UNL1       -0.2463
     22 N          -3.1655  -18.1447   21.1307 N.ar    1  UNL1       -0.2817
     23 C          -4.0276  -19.3279   20.8034 C.ar    1  UNL1        0.0827
     24 C          -3.8302  -20.4864   19.8715 C.ar    1  UNL1        0.0395
     25 C          -4.8900  -21.5411   19.7509 C.ar    1  UNL1        0.1005
     26 N          -6.1472  -21.4372   20.5624 N.ar    1  UNL1       -0.2407
     27 C          -6.3447  -20.2786   21.4945 C.ar    1  UNL1        0.1176
     28 C          -5.2849  -19.2239   21.6150 C.ar    1  UNL1        0.0992
     29 C          -1.8160  -17.8487   20.5467 C.3     1  UNL1        0.0900
     30 C          -0.6973  -18.2067   19.6137 C.3     1  UNL1        0.0246
     31 C          -0.5971  -16.9780   20.4682 C.3     1  UNL1        0.0246
@<TRIPOS>BOND
     1    16    17    1
     2    17    13    1
     3    13    14    2
     4    13    15    2
     5    13    12    1
     6    12    11    1
     7    11     1    1
     8     1     2   ar
     9     2    18    1
    10    18    19    1
    11    19    20   ar
    12    20    21    2
    13    20    22   ar
    14    22    29    1
    15    29    30    1
    16    30    31    1
    17    22    23   ar
    18    23    24   ar
    19    24    25   ar
    20    25    26   ar
    21    26    27   ar
    22    27    28   ar
    23     2     3   ar
    24     3     4   ar
    25     4     5   ar
    26     5     6   ar
    27     6     7    1
    28     6     8   ar
    29     8     9   ar
    30     9    10   ar
    31    10     1   ar
    32    28    19   ar
    33    10     4   ar
    34    31    29    1
    35    28    23   ar
@<TRIPOS>MOLECULE
*****
 31 35 0 0 0
SMALL
GASTEIGER

@<TRIPOS>ATOM
      1 C          -5.3724  -16.5514   23.5170 C.ar    1  UNL1        0.0599
      2 C          -6.4365  -17.5964   23.3568 C.ar    1  UNL1        0.0955
      3 N          -5.9188  -18.6449   22.4173 N.ar    1  UNL1       -0.2292
      4 C          -4.5347  -18.2479   21.9969 C.ar    1  UNL1        0.1481
      5 C          -3.5383  -18.8974   21.0830 C.ar    1  UNL1        0.0488
      6 C          -2.2042  -18.2530   20.8487 C.ar    1  UNL1        0.0622
      7 CL         -1.2077  -18.9025   19.9348 Cl      1  UNL1       -0.0821
      8 C          -1.8665  -16.9592   21.5284 C.ar    1  UNL1        0.0305
      9 C          -2.8629  -16.3097   22.4423 C.ar    1  UNL1        0.0820
     10 N          -4.1970  -16.9540   22.6766 N.ar    1  UNL1       -0.2927
     11 C          -5.4670  -15.3200   24.3683 C.3     1  UNL1        0.0707
     12 C          -5.4571  -15.4392   25.8634 C.3     1  UNL1        0.1571
     13 S          -6.7508  -15.5231   26.6178 S.O2    1  UNL1       -0.0096
     14 O          -6.0780  -16.3398   27.6810 O.2     1  UNL1       -0.1730
     15 O          -7.4237  -14.7063   25.5547 O.2     1  UNL1       -0.1730
     16 C          -8.8332  -16.8829   27.3692 C.3     1  UNL1        0.0271
     17 C          -8.0446  -15.6070   27.3722 C.3     1  UNL1        0.1509
     18 C          -7.7821  -17.5934   24.0197 C.3     1  UNL1        0.1575
     19 N          -9.0158  -17.3209   23.2113 N.ar    1  UNL1       -0.2726
     20 C          -9.0695  -16.5849   21.9053 C.ar    1  UNL1        0.3318
     21 O          -7.8987  -15.9924   21.1786 O.2     1  UNL1       -0.2463
     22 N         -10.4993  -16.5456   21.4538 N.ar    1  UNL1       -0.2817
     23 C         -11.3295  -17.2572   22.4807 C.ar    1  UNL1        0.0827
     24 C         -12.8017  -17.5308   22.5670 C.ar    1  UNL1        0.0395
     25 C         -13.3572  -18.2836   23.7396 C.ar    1  UNL1        0.1005
     26 N         -12.4404  -18.7627   24.8258 N.ar    1  UNL1       -0.2407
     27 C         -10.9680  -18.4891   24.7395 C.ar    1  UNL1        0.1176
     28 C         -10.4126  -17.7364   23.5669 C.ar    1  UNL1        0.0992
     29 C         -11.0095  -15.9068   20.1962 C.3     1  UNL1        0.0900
     30 C         -12.1221  -15.6703   19.2182 C.3     1  UNL1        0.0246
     31 C         -10.7807  -15.0368   18.9958 C.3     1  UNL1        0.0246
@<TRIPOS>BOND
     1    16    17    1
     2    17    13    1
     3    13    14    2
     4    13    15    2
     5    13    12    1
     6    12    11    1
     7    11     1    1
     8     1     2   ar
     9     2    18    1
    10    18    19    1
    11    19    20   ar
    12    20    21    2
    13    20    22   ar
    14    22    29    1
    15    29    30    1
    16    30    31    1
    17    22    23   ar
    18    23    24   ar
    19    24    25   ar
    20    25    26   ar
    21    26    27   ar
    22    27    28   ar
    23     2     3   ar
    24     3     4   ar
    25     4     5   ar
    26     5     6   ar
    27     6     7    1
    28     6     8   ar
    29     8     9   ar
    30     9    10   ar
    31    10     1   ar
    32    28    19   ar
    33    10     4   ar
    34    31    29    1
    35    28    23   ar
@<TRIPOS>MOLECULE
*****
 31 35 0 0 0
SMALL
GASTEIGER

@<TRIPOS>ATOM
      1 C          -4.3301  -17.5040   22.6565 C.ar    1  UNL1        0.0599
      2 C          -5.1468  -18.5338   21.9337 C.ar    1  UNL1        0.0955
      3 N          -4.3536  -19.0090   20.7527 N.ar    1  UNL1       -0.2292
      4 C          -3.0466  -18.2729   20.7455 C.ar    1  UNL1        0.1481
      5 C          -1.8679  -18.3294   19.8196 C.ar    1  UNL1        0.0488
      6 C          -0.6747  -17.4558   20.0704 C.ar    1  UNL1        0.0622
      7 CL          0.5042  -17.5123   19.1445 Cl      1  UNL1       -0.0821
      8 C          -0.6602  -16.5256   21.2471 C.ar    1  UNL1        0.0305
      9 C          -1.8389  -16.4691   22.1730 C.ar    1  UNL1        0.0820
     10 N          -3.0321  -17.3427   21.9222 N.ar    1  UNL1       -0.2927
     11 C          -4.7395  -16.7651   23.8961 C.3     1  UNL1        0.0707
     12 C          -5.8406  -15.7485   23.8341 C.3     1  UNL1        0.1571
     13 S          -6.6768  -15.4734   25.0486 S.O2    1  UNL1       -0.0096
     14 O          -7.8339  -16.1857   24.4133 O.2     1  UNL1       -0.1730
     15 O          -5.5196  -14.7611   25.6840 O.2     1  UNL1       -0.1730
     16 C          -7.1582  -15.8298   27.5767 C.3     1  UNL1        0.0271
     17 C          -7.5130  -15.1983   26.2632 C.3     1  UNL1        0.1509
     18 C          -6.5163  -19.0056   22.3235 C.3     1  UNL1        0.1575
     19 N          -7.5453  -19.2765   21.2664 N.ar    1  UNL1       -0.2726
     20 C          -7.4131  -20.2554   20.1374 C.ar    1  UNL1        0.3318
     21 O          -6.2285  -21.1350   19.8675 O.2     1  UNL1       -0.2463
     22 N          -8.6733  -20.2000   19.3258 N.ar    1  UNL1       -0.2817
     23 C          -9.5846  -19.1870   19.9531 C.ar    1  UNL1        0.0827
     24 C         -10.9589  -18.7105   19.5873 C.ar    1  UNL1        0.0395
     25 C         -11.6363  -17.6633   20.4207 C.ar    1  UNL1        0.1005
     26 N         -10.9392  -17.0926   21.6199 N.ar    1  UNL1       -0.2407
     27 C          -9.5647  -17.5690   21.9859 C.ar    1  UNL1        0.1176
     28 C          -8.8874  -18.6162   21.1525 C.ar    1  UNL1        0.0992
     29 C          -8.9702  -21.0146   18.1019 C.3     1  UNL1        0.0900
     30 C          -9.6269  -21.1514   16.7601 C.3     1  UNL1        0.0246
     31 C          -8.8278  -22.2890   17.3234 C.3     1  UNL1        0.0246
@<TRIPOS>BOND
     1    16    17    1
     2    17    13    1
     3    13    14    2
     4    13    15    2
     5    13    12    1
     6    12    11    1
     7    11     1    1
     8     1     2   ar
     9     2    18    1
    10    18    19    1
    11    19    20   ar
    12    20    21    2
    13    20    22   ar
    14    22    29    1
    15    29    30    1
    16    30    31    1
    17    22    23   ar
    18    23    24   ar
    19    24    25   ar
    20    25    26   ar
    21    26    27   ar
    22    27    28   ar
    23     2     3   ar
    24     3     4   ar
    25     4     5   ar
    26     5     6   ar
    27     6     7    1
    28     6     8   ar
    29     8     9   ar
    30     9    10   ar
    31    10     1   ar
    32    28    19   ar
    33    10     4   ar
    34    31    29    1
    35    28    23   ar
