@<TRIPOS>MOLECULE
*****
 15 17 0 0 0
SMALL
GASTEIGER

@<TRIPOS>ATOM
      1 C          -8.5994  -16.6767   22.3473 C.3     1  UNL1        0.2210
      2 C         -10.0091  -16.6171   21.8380 C.3     1  UNL1        0.0983
      3 N         -10.4492  -16.0346   20.5276 N.3     1  UNL1       -0.2955
      4 C         -11.9383  -16.1871   20.4294 C.3     1  UNL1        0.0686
      5 C         -12.4184  -16.8639   21.6791 C.3     1  UNL1        0.0172
      6 C         -12.5948  -17.5383   23.0073 C.3     1  UNL1        0.0029
      7 C         -11.2261  -17.1297   22.5496 C.3     1  UNL1        0.0195
      8 H          -9.9989  -16.5316   19.7592 H       1  UNL1        0.1233
      9 O          -7.9624  -15.4530   22.9361 O.3     1  UNL1       -0.4724
     10 C          -8.1816  -15.5222   26.8981 C.ar    1  UNL1        0.0238
     11 C          -6.7306  -15.4190   27.2641 C.ar    1  UNL1        0.0991
     12 N          -5.6902  -15.3271   26.1875 N.ar    1  UNL1       -0.2391
     13 C          -6.1008  -15.3384   24.7448 C.ar    1  UNL1        0.1356
     14 C          -7.5518  -15.4416   24.3788 C.ar    1  UNL1        0.1577
     15 C          -8.5922  -15.5335   25.4555 C.ar    1  UNL1        0.0401
@<TRIPOS>BOND
     1    10    11   ar
     2    11    12   ar
     3    12    13   ar
     4    13    14   ar
     5    14     9    1
     6     9     1    1
     7     2     1    1
     8     2     3    1
     9     3     4    1
    10     5     4    1
    11     5     6    1
    12     7     6    1
    13    14    15   ar
    14    15    10   ar
    15     7     2    1
    16     7     5    1
    17     3     8    1
@<TRIPOS>MOLECULE
*****
 15 17 0 0 0
SMALL
GASTEIGER

@<TRIPOS>ATOM
      1 C          -4.1577  -16.9834   23.6977 C.3     1  UNL1        0.2210
      2 C          -3.2052  -17.2201   22.5633 C.3     1  UNL1        0.0983
      3 N          -2.4266  -16.1673   21.8316 N.3     1  UNL1       -0.2955
      4 C          -1.6043  -16.8476   20.7775 C.3     1  UNL1        0.0686
      5 C          -1.8748  -18.3209   20.8578 C.3     1  UNL1        0.0172
      6 C          -2.3374  -19.7127   21.1721 C.3     1  UNL1        0.0029
      7 C          -2.8642  -18.5511   21.9614 C.3     1  UNL1        0.0195
      8 H          -1.8155  -15.6738   22.4824 H       1  UNL1        0.1233
      9 O          -5.1348  -15.8473   23.6319 O.3     1  UNL1       -0.4724
     10 C          -6.7614  -15.3879   27.2227 C.ar    1  UNL1        0.0238
     11 C          -8.2186  -15.3416   26.8699 C.ar    1  UNL1        0.0991
     12 N          -8.6479  -15.4639   25.4379 N.ar    1  UNL1       -0.2391
     13 C          -7.6200  -15.6325   24.3586 C.ar    1  UNL1        0.1356
     14 C          -6.1628  -15.6787   24.7113 C.ar    1  UNL1        0.1577
     15 C          -5.7335  -15.5564   26.1433 C.ar    1  UNL1        0.0401
@<TRIPOS>BOND
     1    10    11   ar
     2    11    12   ar
     3    12    13   ar
     4    13    14   ar
     5    14     9    1
     6     9     1    1
     7     2     1    1
     8     2     3    1
     9     3     4    1
    10     5     4    1
    11     5     6    1
    12     7     6    1
    13    14    15   ar
    14    15    10   ar
    15     7     2    1
    16     7     5    1
    17     3     8    1
@<TRIPOS>MOLECULE
*****
 15 17 0 0 0
SMALL
GASTEIGER

@<TRIPOS>ATOM
      1 C          -8.0018  -15.4234   23.2093 C.3     1  UNL1        0.2210
      2 C          -7.2785  -15.3789   24.5227 C.3     1  UNL1        0.0983
      3 N          -5.8270  -15.0557   24.7192 N.3     1  UNL1       -0.2955
      4 C          -5.5310  -15.1269   26.1881 C.3     1  UNL1        0.0686
      5 C          -6.7997  -15.4941   26.8992 C.3     1  UNL1        0.0172
      6 C          -8.1911  -15.8625   27.3218 C.3     1  UNL1        0.0029
      7 C          -7.8797  -15.6498   25.8699 C.3     1  UNL1        0.0195
      8 H          -5.6312  -14.1169   24.3718 H       1  UNL1        0.1233
      9 O          -8.5455  -16.7238   22.6961 O.3     1  UNL1       -0.4724
     10 C         -11.8212  -18.4637   24.1077 C.ar    1  UNL1        0.0238
     11 C         -12.8816  -17.7526   23.3203 C.ar    1  UNL1        0.0991
     12 N         -12.4966  -16.6986   22.3249 N.ar    1  UNL1       -0.2391
     13 C         -11.0513  -16.3557   22.1169 C.ar    1  UNL1        0.1356
     14 C          -9.9909  -17.0667   22.9042 C.ar    1  UNL1        0.1577
     15 C         -10.3759  -18.1207   23.8996 C.ar    1  UNL1        0.0401
@<TRIPOS>BOND
     1    10    11   ar
     2    11    12   ar
     3    12    13   ar
     4    13    14   ar
     5    14     9    1
     6     9     1    1
     7     2     1    1
     8     2     3    1
     9     3     4    1
    10     5     4    1
    11     5     6    1
    12     7     6    1
    13    14    15   ar
    14    15    10   ar
    15     7     2    1
    16     7     5    1
    17     3     8    1
@<TRIPOS>MOLECULE
*****
 15 17 0 0 0
SMALL
GASTEIGER

@<TRIPOS>ATOM
      1 C          -9.9337  -16.4056   23.4204 C.3     1  UNL1        0.2210
      2 C         -10.0950  -17.8869   23.5932 C.3     1  UNL1        0.0983
      3 N          -9.8371  -18.6609   24.8520 N.3     1  UNL1       -0.2955
      4 C         -10.1252  -20.1066   24.5743 C.3     1  UNL1        0.0686
      5 C         -10.5610  -20.2260   23.1439 C.3     1  UNL1        0.0172
      6 C         -10.9538  -20.0348   21.7089 C.3     1  UNL1        0.0029
      7 C         -10.5423  -18.8541   22.5376 C.3     1  UNL1        0.0195
      8 H         -10.4467  -18.3233   25.5969 H       1  UNL1        0.1233
      9 O          -9.6172  -15.5423   24.6056 O.3     1  UNL1       -0.4724
     10 C          -6.4767  -15.5008   27.0316 C.ar    1  UNL1        0.0238
     11 C          -5.3745  -15.1892   26.0631 C.ar    1  UNL1        0.0991
     12 N          -5.6865  -14.9954   24.6088 N.ar    1  UNL1       -0.2391
     13 C          -7.1007  -15.1131   24.1229 C.ar    1  UNL1        0.1356
     14 C          -8.2029  -15.4246   25.0914 C.ar    1  UNL1        0.1577
     15 C          -7.8909  -15.6184   26.5457 C.ar    1  UNL1        0.0401
@<TRIPOS>BOND
     1    10    11   ar
     2    11    12   ar
     3    12    13   ar
     4    13    14   ar
     5    14     9    1
     6     9     1    1
     7     2     1    1
     8     2     3    1
     9     3     4    1
    10     5     4    1
    11     5     6    1
    12     7     6    1
    13    14    15   ar
    14    15    10   ar
    15     7     2    1
    16     7     5    1
    17     3     8    1
@<TRIPOS>MOLECULE
*****
 15 17 0 0 0
SMALL
GASTEIGER

@<TRIPOS>ATOM
      1 C          -6.0314  -20.1796   21.8076 C.3     1  UNL1        0.2210
      2 C          -7.3694  -19.5121   21.9285 C.3     1  UNL1        0.0983
      3 N          -7.8345  -18.3211   21.1441 N.3     1  UNL1       -0.2955
      4 C          -9.2296  -17.9913   21.5858 C.3     1  UNL1        0.0686
      5 C          -9.6266  -18.9785   22.6431 C.3     1  UNL1        0.0172
      6 C          -9.7367  -20.0828   23.6523 C.3     1  UNL1        0.0029
      7 C          -8.4769  -19.9183   22.8549 C.3     1  UNL1        0.0195
      8 H          -7.8293  -18.5394   20.1477 H       1  UNL1        0.1233
      9 O          -5.2773  -20.1190   20.5124 O.3     1  UNL1       -0.4724
     10 C          -2.1457  -18.0372   19.2440 C.ar    1  UNL1        0.0238
     11 C          -1.1855  -18.2514   20.3763 C.ar    1  UNL1        0.0991
     12 N          -1.5892  -19.0881   21.5540 N.ar    1  UNL1       -0.2391
     13 C          -2.9531  -19.7106   21.5994 C.ar    1  UNL1        0.1356
     14 C          -3.9133  -19.4964   20.4671 C.ar    1  UNL1        0.1577
     15 C          -3.5096  -18.6597   19.2894 C.ar    1  UNL1        0.0401
@<TRIPOS>BOND
     1    10    11   ar
     2    11    12   ar
     3    12    13   ar
     4    13    14   ar
     5    14     9    1
     6     9     1    1
     7     2     1    1
     8     2     3    1
     9     3     4    1
    10     5     4    1
    11     5     6    1
    12     7     6    1
    13    14    15   ar
    14    15    10   ar
    15     7     2    1
    16     7     5    1
    17     3     8    1
@<TRIPOS>MOLECULE
*****
 15 17 0 0 0
SMALL
GASTEIGER

@<TRIPOS>ATOM
      1 C          -6.3177  -19.6534   20.5879 C.3     1  UNL1        0.2210
      2 C          -4.9171  -19.1987   20.3019 C.3     1  UNL1        0.0983
      3 N          -4.4977  -18.2800   19.1927 N.3     1  UNL1       -0.2955
      4 C          -3.0115  -18.0963   19.2801 C.3     1  UNL1        0.0686
      5 C          -2.5125  -18.9015   20.4432 C.3     1  UNL1        0.0172
      6 C          -2.3157  -19.7837   21.6404 C.3     1  UNL1        0.0029
      7 C          -3.6903  -19.5828   21.0747 C.3     1  UNL1        0.0195
      8 H          -4.9644  -17.3788   19.2946 H       1  UNL1        0.1233
      9 O          -7.4831  -18.8412   20.1060 O.3     1  UNL1       -0.4724
     10 C         -11.2920  -19.4750   21.0227 C.ar    1  UNL1        0.0238
     11 C         -11.3550  -18.8812   22.3987 C.ar    1  UNL1        0.0991
     12 N         -10.1274  -18.2741   23.0105 N.ar    1  UNL1       -0.2391
     13 C          -8.8367  -18.2608   22.2463 C.ar    1  UNL1        0.1356
     14 C          -8.7738  -18.8545   20.8703 C.ar    1  UNL1        0.1577
     15 C         -10.0014  -19.4616   20.2585 C.ar    1  UNL1        0.0401
@<TRIPOS>BOND
     1    10    11   ar
     2    11    12   ar
     3    12    13   ar
     4    13    14   ar
     5    14     9    1
     6     9     1    1
     7     2     1    1
     8     2     3    1
     9     3     4    1
    10     5     4    1
    11     5     6    1
    12     7     6    1
    13    14    15   ar
    14    15    10   ar
    15     7     2    1
    16     7     5    1
    17     3     8    1
@<TRIPOS>MOLECULE
*****
 15 17 0 0 0
SMALL
GASTEIGER

@<TRIPOS>ATOM
      1 C          -8.3838  -15.7382   23.3938 C.3     1  UNL1        0.2210
      2 C          -7.5701  -15.5706   24.6428 C.3     1  UNL1        0.0983
      3 N          -6.1381  -15.1290   24.7094 N.3     1  UNL1       -0.2955
      4 C          -5.7284  -15.1007   26.1521 C.3     1  UNL1        0.0686
      5 C          -6.9073  -15.5248   26.9771 C.3     1  UNL1        0.0172
      6 C          -8.2295  -15.9745   27.5244 C.3     1  UNL1        0.0029
      7 C          -8.0454  -15.8152   26.0442 C.3     1  UNL1        0.0195
      8 H          -6.0439  -14.1976   24.3044 H       1  UNL1        0.1233
      9 O          -9.7773  -16.2874   23.4746 O.3     1  UNL1       -0.4724
     10 C         -10.8964  -18.3561   20.2780 C.ar    1  UNL1        0.0238
     11 C         -10.9914  -19.7379   20.8537 C.ar    1  UNL1        0.0991
     12 N         -10.6818  -19.9696   22.3030 N.ar    1  UNL1       -0.2391
     13 C         -10.2770  -18.8195   23.1766 C.ar    1  UNL1        0.1356
     14 C         -10.1820  -17.4376   22.6010 C.ar    1  UNL1        0.1577
     15 C         -10.4917  -17.2059   21.1517 C.ar    1  UNL1        0.0401
@<TRIPOS>BOND
     1    10    11   ar
     2    11    12   ar
     3    12    13   ar
     4    13    14   ar
     5    14     9    1
     6     9     1    1
     7     2     1    1
     8     2     3    1
     9     3     4    1
    10     5     4    1
    11     5     6    1
    12     7     6    1
    13    14    15   ar
    14    15    10   ar
    15     7     2    1
    16     7     5    1
    17     3     8    1
@<TRIPOS>MOLECULE
*****
 15 17 0 0 0
SMALL
GASTEIGER

@<TRIPOS>ATOM
      1 C          -7.6269  -19.0376   21.2791 C.3     1  UNL1        0.2210
      2 C          -6.1343  -19.0468   21.4282 C.3     1  UNL1        0.0983
      3 N          -5.3409  -18.2318   22.4061 N.3     1  UNL1       -0.2955
      4 C          -3.8893  -18.5540   22.2079 C.3     1  UNL1        0.0686
      5 C          -3.7857  -19.5682   21.1075 C.3     1  UNL1        0.0172
      6 C          -3.9947  -20.5582   20.0002 C.3     1  UNL1        0.0029
      7 C          -5.1731  -19.8728   20.6257 C.3     1  UNL1        0.0195
      8 H          -5.6205  -18.4656   23.3588 H       1  UNL1        0.1233
      9 O          -8.3698  -17.7348   21.2519 O.3     1  UNL1       -0.4724
     10 C         -11.8488  -17.8434   23.1585 C.ar    1  UNL1        0.0238
     11 C         -12.8036  -17.6566   22.0168 C.ar    1  UNL1        0.0991
     12 N         -12.2805  -17.4960   20.6202 N.ar    1  UNL1       -0.2391
     13 C         -10.8026  -17.5220   20.3652 C.ar    1  UNL1        0.1356
     14 C          -9.8478  -17.7087   21.5068 C.ar    1  UNL1        0.1577
     15 C         -10.3709  -17.8694   22.9035 C.ar    1  UNL1        0.0401
@<TRIPOS>BOND
     1    10    11   ar
     2    11    12   ar
     3    12    13   ar
     4    13    14   ar
     5    14     9    1
     6     9     1    1
     7     2     1    1
     8     2     3    1
     9     3     4    1
    10     5     4    1
    11     5     6    1
    12     7     6    1
    13    14    15   ar
    14    15    10   ar
    15     7     2    1
    16     7     5    1
    17     3     8    1
@<TRIPOS>MOLECULE
*****
 15 17 0 0 0
SMALL
GASTEIGER

@<TRIPOS>ATOM
      1 C          -8.1493  -19.4033   20.3954 C.3     1  UNL1        0.2210
      2 C          -9.0814  -18.3840   20.9805 C.3     1  UNL1        0.0983
      3 N          -8.6814  -17.0848   21.6146 N.3     1  UNL1       -0.2955
      4 C          -9.9300  -16.3828   22.0602 C.3     1  UNL1        0.0686
      5 C         -11.1015  -17.2483   21.7016 C.3     1  UNL1        0.0172
      6 C         -12.0536  -18.3068   21.2292 C.3     1  UNL1        0.0029
      7 C         -10.5770  -18.4851   21.0343 C.3     1  UNL1        0.0195
      8 H          -8.1831  -16.5078   20.9369 H       1  UNL1        0.1233
      9 O          -6.8587  -18.9666   19.7680 O.3     1  UNL1       -0.4724
     10 C          -2.9917  -19.5403   20.4519 C.ar    1  UNL1        0.0238
     11 C          -2.9727  -19.5860   21.9510 C.ar    1  UNL1        0.0991
     12 N          -4.2490  -19.4252   22.7226 N.ar    1  UNL1       -0.2391
     13 C          -5.5443  -19.2187   21.9949 C.ar    1  UNL1        0.1356
     14 C          -5.5633  -19.1731   20.4958 C.ar    1  UNL1        0.1577
     15 C          -4.2870  -19.3339   19.7243 C.ar    1  UNL1        0.0401
@<TRIPOS>BOND
     1    10    11   ar
     2    11    12   ar
     3    12    13   ar
     4    13    14   ar
     5    14     9    1
     6     9     1    1
     7     2     1    1
     8     2     3    1
     9     3     4    1
    10     5     4    1
    11     5     6    1
    12     7     6    1
    13    14    15   ar
    14    15    10   ar
    15     7     2    1
    16     7     5    1
    17     3     8    1
