@<TRIPOS>MOLECULE
*****
 30 33 0 0 0
SMALL
GASTEIGER

@<TRIPOS>ATOM
      1 N           3.9414   -1.3278   21.7441 N.pl3   1  UNL1       -0.2852
      2 C           4.4312   -1.6476   23.1253 C.3     1  UNL1        0.1220
      3 C           3.6373   -0.8290   24.0998 C.ar    1  UNL1        0.0337
      4 C           3.4493   -0.5208   25.5557 C.ar    1  UNL1        0.0990
      5 N           2.3527    0.4954   25.6766 N.ar    1  UNL1       -0.2287
      6 N           1.8628    0.8153   24.2953 N.ar    1  UNL1       -0.1681
      7 C           2.6567   -0.0033   23.3208 C.ar    1  UNL1        0.0960
      8 C           2.8447   -0.3115   21.8649 C.3     1  UNL1        0.1160
      9 C           5.6925   -1.6464   18.1970 C.ar    1  UNL1        0.3208
     10 N           5.4900   -3.1048   17.9109 N.ar    1  UNL1       -0.1985
     11 C           4.7713   -3.9710   18.9026 C.ar    1  UNL1        0.0668
     12 C           4.5688   -5.4295   18.6164 C.3     1  UNL1        0.0523
     13 C           4.2551   -3.3786   20.1802 C.ar    1  UNL1        0.0493
     14 C           4.4576   -1.9201   20.4664 C.ar    1  UNL1        0.1380
     15 N           5.1763   -1.0540   19.4748 N.ar    1  UNL1       -0.1793
     16 C           7.2562    0.3635   17.6822 C.3     1  UNL1        0.2559
     17 O           6.4113   -0.7803   17.2053 O.3     1  UNL1       -0.4426
     18 C           1.8364    1.0878   26.9543 C.ar    1  UNL1        0.0841
     19 C           0.7313    2.1014   26.9183 C.ar    1  UNL1        0.0192
     20 C           0.2151    2.6937   28.1961 C.ar    1  UNL1        0.0029
     21 C           0.8040    2.2726   29.5098 C.ar    1  UNL1        0.0184
     22 C           1.9091    1.2590   29.5458 C.ar    1  UNL1        0.1072
     23 C           2.4253    0.6666   28.2680 C.ar    1  UNL1        0.0375
     24 S           2.4981    0.8377   30.8594 S.O2    1  UNL1        0.0105
     25 C           3.0870    0.4164   32.1730 C.3     1  UNL1        0.1816
     26 O           3.0005    2.2334   31.0818 O.2     1  UNL1       -0.1686
     27 O           1.9956   -0.5581   30.6370 O.2     1  UNL1       -0.1686
     28 C           2.0717    0.2908   20.7293 C.3     1  UNL1        0.0240
     29 C           2.3950    1.6760   20.2532 C.3     1  UNL1        0.0021
     30 C           0.9753   -0.4921   20.0697 C.3     1  UNL1        0.0021
@<TRIPOS>BOND
     1    16    17    1
     2    17     9    1
     3     9    10   ar
     4    10    11   ar
     5    11    12    1
     6    11    13   ar
     7    13    14   ar
     8    14     1    1
     9     1     2    1
    10     2     3    1
    11     3     4   ar
    12     4     5   ar
    13     5    18    1
    14    18    19   ar
    15    19    20   ar
    16    20    21   ar
    17    21    22   ar
    18    22    24    1
    19    24    25    1
    20    24    26    2
    21    24    27    2
    22    22    23   ar
    23     5     6   ar
    24     6     7   ar
    25     7     8    1
    26     8    28    1
    27    28    29    1
    28    28    30    1
    29    14    15   ar
    30    15     9   ar
    31     8     1    1
    32     7     3   ar
    33    23    18   ar
@<TRIPOS>MOLECULE
*****
 30 33 0 0 0
SMALL
GASTEIGER

@<TRIPOS>ATOM
      1 N           5.0165   -1.2929   20.9909 N.pl3   1  UNL1       -0.2852
      2 C           5.2032   -1.1238   22.4697 C.3     1  UNL1        0.1220
      3 C           5.7907   -2.3934   23.0109 C.ar    1  UNL1        0.0337
      4 C           6.2692   -3.0735   24.2594 C.ar    1  UNL1        0.0990
      5 N           6.7413   -4.4476   23.8867 N.ar    1  UNL1       -0.2287
      6 N           6.5547   -4.6168   22.4080 N.ar    1  UNL1       -0.1681
      7 C           5.9671   -3.3472   21.8668 C.ar    1  UNL1        0.0960
      8 C           5.4887   -2.6671   20.6183 C.3     1  UNL1        0.1160
      9 C           4.8115    1.7315   18.4295 C.ar    1  UNL1        0.3208
     10 N           3.3353    1.7821   18.1683 N.ar    1  UNL1       -0.1985
     11 C           2.4194    0.8076   18.8480 C.ar    1  UNL1        0.0668
     12 C           0.9432    0.8583   18.5867 C.3     1  UNL1        0.0523
     13 C           2.9798   -0.2173   19.7888 C.ar    1  UNL1        0.0493
     14 C           4.4561   -0.2680   20.0501 C.ar    1  UNL1        0.1380
     15 N           5.3719    0.7064   19.3704 N.ar    1  UNL1       -0.1793
     16 C           6.6209    2.2443   16.6371 C.3     1  UNL1        0.2559
     17 O           5.7272    2.7058   17.7498 O.3     1  UNL1       -0.4426
     18 C           7.3018   -5.4726   24.8276 C.ar    1  UNL1        0.0841
     19 C           7.9885   -6.6914   24.2864 C.ar    1  UNL1        0.0192
     20 C           8.5489   -7.7164   25.2274 C.ar    1  UNL1        0.0029
     21 C           8.4226   -7.5226   26.7095 C.ar    1  UNL1        0.0184
     22 C           7.7359   -6.3038   27.2506 C.ar    1  UNL1        0.1072
     23 C           7.1755   -5.2788   26.3096 C.ar    1  UNL1        0.0375
     24 S           7.6095   -6.1099   28.7326 S.O2    1  UNL1        0.0105
     25 C           7.4831   -5.9160   30.2146 C.3     1  UNL1        0.1816
     26 O           8.8946   -6.8553   28.9398 O.2     1  UNL1       -0.1686
     27 O           6.3244   -5.3645   28.5255 O.2     1  UNL1       -0.1686
     28 C           5.4833   -3.2575   19.2394 C.3     1  UNL1        0.0240
     29 C           4.6587   -4.4764   18.9486 C.3     1  UNL1        0.0021
     30 C           6.3024   -2.6291   18.1513 C.3     1  UNL1        0.0021
@<TRIPOS>BOND
     1    16    17    1
     2    17     9    1
     3     9    10   ar
     4    10    11   ar
     5    11    12    1
     6    11    13   ar
     7    13    14   ar
     8    14     1    1
     9     1     2    1
    10     2     3    1
    11     3     4   ar
    12     4     5   ar
    13     5    18    1
    14    18    19   ar
    15    19    20   ar
    16    20    21   ar
    17    21    22   ar
    18    22    24    1
    19    24    25    1
    20    24    26    2
    21    24    27    2
    22    22    23   ar
    23     5     6   ar
    24     6     7   ar
    25     7     8    1
    26     8    28    1
    27    28    29    1
    28    28    30    1
    29    14    15   ar
    30    15     9   ar
    31     8     1    1
    32     7     3   ar
    33    23    18   ar
@<TRIPOS>MOLECULE
*****
 30 33 0 0 0
SMALL
GASTEIGER

@<TRIPOS>ATOM
      1 N           4.8874   -1.2293   21.0813 N.pl3   1  UNL1       -0.2852
      2 C           5.3630   -0.9824   22.4824 C.3     1  UNL1        0.1220
      3 C           5.8826   -2.2783   23.0307 C.ar    1  UNL1        0.0337
      4 C           6.4977   -2.9266   24.2354 C.ar    1  UNL1        0.0990
      5 N           6.7233   -4.3751   23.9178 N.ar    1  UNL1       -0.2287
      6 N           6.2476   -4.6221   22.5168 N.ar    1  UNL1       -0.1681
      7 C           5.7281   -3.3261   21.9685 C.ar    1  UNL1        0.0960
      8 C           5.1130   -2.6779   20.7638 C.3     1  UNL1        0.1160
      9 C           2.2048    0.9724   19.1561 C.ar    1  UNL1        0.3208
     10 N           3.0977    1.8371   18.3165 N.ar    1  UNL1       -0.1985
     11 C           4.5873    1.6797   18.3986 C.ar    1  UNL1        0.0668
     12 C           5.4802    2.5445   17.5589 C.3     1  UNL1        0.0523
     13 C           5.1838    0.6576   19.3201 C.ar    1  UNL1        0.0493
     14 C           4.2909   -0.2072   20.1598 C.ar    1  UNL1        0.1380
     15 N           2.8014   -0.0497   20.0777 N.ar    1  UNL1       -0.1793
     16 C          -0.0595    1.5730   20.2794 C.3     1  UNL1        0.2559
     17 O           0.7154    1.1298   19.0741 O.3     1  UNL1       -0.4426
     18 C           7.3198   -5.3973   24.8394 C.ar    1  UNL1        0.0841
     19 C           8.0443   -6.5835   24.2755 C.ar    1  UNL1        0.0192
     20 C           8.6408   -7.6056   25.1972 C.ar    1  UNL1        0.0029
     21 C           8.5129   -7.4416   26.6827 C.ar    1  UNL1        0.0184
     22 C           7.7884   -6.2553   27.2466 C.ar    1  UNL1        0.1072
     23 C           7.1919   -5.2332   26.3249 C.ar    1  UNL1        0.0375
     24 S           7.6605   -6.0911   28.7321 S.O2    1  UNL1        0.0105
     25 C           7.5326   -5.9270   30.2175 C.3     1  UNL1        0.1816
     26 O           6.3196   -5.4453   28.5453 O.2     1  UNL1       -0.1686
     27 O           9.0014   -6.7370   28.9189 O.2     1  UNL1       -0.1686
     28 C           4.7817   -3.3586   19.4689 C.3     1  UNL1        0.0240
     29 C           5.5499   -3.0202   18.2257 C.3     1  UNL1        0.0021
     30 C           3.6822   -4.3776   19.4171 C.3     1  UNL1        0.0021
@<TRIPOS>BOND
     1    16    17    1
     2    17     9    1
     3     9    10   ar
     4    10    11   ar
     5    11    12    1
     6    11    13   ar
     7    13    14   ar
     8    14     1    1
     9     1     2    1
    10     2     3    1
    11     3     4   ar
    12     4     5   ar
    13     5    18    1
    14    18    19   ar
    15    19    20   ar
    16    20    21   ar
    17    21    22   ar
    18    22    24    1
    19    24    25    1
    20    24    26    2
    21    24    27    2
    22    22    23   ar
    23     5     6   ar
    24     6     7   ar
    25     7     8    1
    26     8    28    1
    27    28    29    1
    28    28    30    1
    29    14    15   ar
    30    15     9   ar
    31     8     1    1
    32     7     3   ar
    33    23    18   ar
@<TRIPOS>MOLECULE
*****
 30 33 0 0 0
SMALL
GASTEIGER

@<TRIPOS>ATOM
      1 N           3.2437   -0.4627   20.9425 N.pl3   1  UNL1       -0.2852
      2 C           3.2002   -0.7175   22.4201 C.3     1  UNL1        0.1220
      3 C           2.3069    0.3144   23.0423 C.ar    1  UNL1        0.0337
      4 C           1.7279    0.7946   24.3401 C.ar    1  UNL1        0.0990
      5 N           0.8615    1.9840   24.0491 N.ar    1  UNL1       -0.2287
      6 N           0.9049    2.2388   22.5716 N.ar    1  UNL1       -0.1681
      7 C           1.7982    1.2069   21.9493 C.ar    1  UNL1        0.0960
      8 C           2.3772    0.7267   20.6515 C.3     1  UNL1        0.1160
      9 C           5.7290   -1.3580   17.9807 C.ar    1  UNL1        0.3208
     10 N           5.5658   -2.8476   17.9143 N.ar    1  UNL1       -0.1985
     11 C           4.6285   -3.5423   18.8572 C.ar    1  UNL1        0.0668
     12 C           4.4653   -5.0319   18.7907 C.3     1  UNL1        0.0523
     13 C           3.8545   -2.7473   19.8666 C.ar    1  UNL1        0.0493
     14 C           4.0177   -1.2577   19.9331 C.ar    1  UNL1        0.1380
     15 N           4.9549   -0.5631   18.9902 N.ar    1  UNL1       -0.1793
     16 C           7.3703    0.5893   17.4674 C.3     1  UNL1        0.2559
     17 O           6.6662   -0.6634   17.0378 O.3     1  UNL1       -0.4426
     18 C           0.0874    2.7790   25.0585 C.ar    1  UNL1        0.0841
     19 C           0.7892    3.3719   26.2442 C.ar    1  UNL1        0.0192
     20 C           0.0151    4.1669   27.2536 C.ar    1  UNL1        0.0029
     21 C          -1.4607    4.3690   27.0773 C.ar    1  UNL1        0.0184
     22 C          -2.1625    3.7761   25.8915 C.ar    1  UNL1        0.1072
     23 C          -1.3884    2.9811   24.8822 C.ar    1  UNL1        0.0375
     24 S          -3.6383    3.9781   25.7151 S.O2    1  UNL1        0.0105
     25 C          -5.1141    4.1802   25.5388 C.3     1  UNL1        0.1816
     26 O          -3.5891    3.2126   24.4261 O.2     1  UNL1       -0.1686
     27 O          -3.6875    4.7436   27.0042 O.2     1  UNL1       -0.1686
     28 C           2.1326    1.3299   19.3001 C.3     1  UNL1        0.0240
     29 C           2.8549    2.5807   18.8953 C.3     1  UNL1        0.0021
     30 C           1.1658    0.6823   18.3536 C.3     1  UNL1        0.0021
@<TRIPOS>BOND
     1    16    17    1
     2    17     9    1
     3     9    10   ar
     4    10    11   ar
     5    11    12    1
     6    11    13   ar
     7    13    14   ar
     8    14     1    1
     9     1     2    1
    10     2     3    1
    11     3     4   ar
    12     4     5   ar
    13     5    18    1
    14    18    19   ar
    15    19    20   ar
    16    20    21   ar
    17    21    22   ar
    18    22    24    1
    19    24    25    1
    20    24    26    2
    21    24    27    2
    22    22    23   ar
    23     5     6   ar
    24     6     7   ar
    25     7     8    1
    26     8    28    1
    27    28    29    1
    28    28    30    1
    29    14    15   ar
    30    15     9   ar
    31     8     1    1
    32     7     3   ar
    33    23    18   ar
@<TRIPOS>MOLECULE
*****
 30 33 0 0 0
SMALL
GASTEIGER

@<TRIPOS>ATOM
      1 N           2.5227   -0.1154   19.9027 N.pl3   1  UNL1       -0.2852
      2 C           1.3110    0.4642   19.2349 C.3     1  UNL1        0.1220
      3 C           0.5730    1.2883   20.2480 C.ar    1  UNL1        0.0337
      4 C          -0.6320    2.1557   20.4614 C.ar    1  UNL1        0.0990
      5 N          -0.6211    2.6215   21.8872 N.ar    1  UNL1       -0.2287
      6 N           0.5906    2.0420   22.5550 N.ar    1  UNL1       -0.1681
      7 C           1.3286    1.2180   21.5419 C.ar    1  UNL1        0.0960
      8 C           2.5336    0.3505   21.3285 C.3     1  UNL1        0.1160
      9 C           5.6775   -1.2949   17.8036 C.ar    1  UNL1        0.3208
     10 N           5.5872   -2.7831   17.9683 N.ar    1  UNL1       -0.1985
     11 C           4.4753   -3.3820   18.7778 C.ar    1  UNL1        0.0668
     12 C           4.3851   -4.8703   18.9424 C.3     1  UNL1        0.0523
     13 C           3.4539   -2.4928   19.4225 C.ar    1  UNL1        0.0493
     14 C           3.5442   -1.0046   19.2579 C.ar    1  UNL1        0.1380
     15 N           4.6559   -0.4057   18.4485 N.ar    1  UNL1       -0.1793
     16 C           6.7389    0.7521   16.6065 C.3     1  UNL1        0.2559
     17 O           6.7893   -0.6960   16.9942 O.3     1  UNL1       -0.4426
     18 C          -1.6426    3.5108   22.5320 C.ar    1  UNL1        0.0841
     19 C          -1.2982    4.2653   23.7819 C.ar    1  UNL1        0.0192
     20 C          -2.3197    5.1545   24.4266 C.ar    1  UNL1        0.0029
     21 C          -3.6856    5.2893   23.8216 C.ar    1  UNL1        0.0184
     22 C          -4.0301    4.5349   22.5718 C.ar    1  UNL1        0.1072
     23 C          -3.0085    3.6456   21.9270 C.ar    1  UNL1        0.0375
     24 S          -5.3960    4.6696   21.9667 S.O2    1  UNL1        0.0105
     25 C          -6.7619    4.8043   21.3616 C.3     1  UNL1        0.1816
     26 O          -4.8749    5.7122   21.0225 O.2     1  UNL1       -0.1686
     27 O          -5.9170    3.6269   22.9109 O.2     1  UNL1       -0.1686
     28 C           3.5678    0.0089   22.3598 C.3     1  UNL1        0.0240
     29 C           3.5253   -1.3207   23.0529 C.3     1  UNL1        0.0021
     30 C           4.6446    0.9969   22.6981 C.3     1  UNL1        0.0021
@<TRIPOS>BOND
     1    16    17    1
     2    17     9    1
     3     9    10   ar
     4    10    11   ar
     5    11    12    1
     6    11    13   ar
     7    13    14   ar
     8    14     1    1
     9     1     2    1
    10     2     3    1
    11     3     4   ar
    12     4     5   ar
    13     5    18    1
    14    18    19   ar
    15    19    20   ar
    16    20    21   ar
    17    21    22   ar
    18    22    24    1
    19    24    25    1
    20    24    26    2
    21    24    27    2
    22    22    23   ar
    23     5     6   ar
    24     6     7   ar
    25     7     8    1
    26     8    28    1
    27    28    29    1
    28    28    30    1
    29    14    15   ar
    30    15     9   ar
    31     8     1    1
    32     7     3   ar
    33    23    18   ar
@<TRIPOS>MOLECULE
*****
 30 33 0 0 0
SMALL
GASTEIGER

@<TRIPOS>ATOM
      1 N           3.1410   -0.5514   20.8706 N.pl3   1  UNL1       -0.2852
      2 C           1.8773    0.2009   20.5752 C.3     1  UNL1        0.1220
      3 C           1.4129    0.8449   21.8479 C.ar    1  UNL1        0.0337
      4 C           0.3450    1.7078   22.4518 C.ar    1  UNL1        0.0990
      5 N           0.6616    1.8868   23.9071 N.ar    1  UNL1       -0.2287
      6 N           1.9252    1.1346   24.2025 N.ar    1  UNL1       -0.1681
      7 C           2.3896    0.4906   22.9298 C.ar    1  UNL1        0.0960
      8 C           3.4576   -0.3724   22.3259 C.3     1  UNL1        0.1160
      9 C           5.6898   -1.4347   17.9597 C.ar    1  UNL1        0.3208
     10 N           5.5578   -2.9281   17.9108 N.ar    1  UNL1       -0.1985
     11 C           4.6201   -3.6293   18.8486 C.ar    1  UNL1        0.0668
     12 C           4.4881   -5.1227   18.7997 C.3     1  UNL1        0.0523
     13 C           3.8146   -2.8371   19.8351 C.ar    1  UNL1        0.0493
     14 C           3.9465   -1.3436   19.8841 C.ar    1  UNL1        0.1380
     15 N           4.8841   -0.6425   18.9463 N.ar    1  UNL1       -0.1793
     16 C           6.7254    0.7630   17.0392 C.3     1  UNL1        0.2559
     17 O           6.6274   -0.7336   17.0220 O.3     1  UNL1       -0.4426
     18 C          -0.1440    2.6791   24.8937 C.ar    1  UNL1        0.0841
     19 C           0.5231    3.2826   26.0940 C.ar    1  UNL1        0.0192
     20 C          -0.2826    4.0748   27.0806 C.ar    1  UNL1        0.0029
     21 C          -1.7552    4.2635   26.8669 C.ar    1  UNL1        0.0184
     22 C          -2.4223    3.6600   25.6666 C.ar    1  UNL1        0.1072
     23 C          -1.6166    2.8678   24.6800 C.ar    1  UNL1        0.0375
     24 S          -3.8949    3.8486   25.4528 S.O2    1  UNL1        0.0105
     25 C          -5.3676    4.0373   25.2390 C.3     1  UNL1        0.1816
     26 O          -4.0892    4.0087   26.9316 O.2     1  UNL1       -0.1686
     27 O          -3.7007    3.6885   23.9740 O.2     1  UNL1       -0.1686
     28 C           4.6354   -0.9541   23.0500 C.3     1  UNL1        0.0240
     29 C           4.4623   -2.1748   23.9045 C.3     1  UNL1        0.0021
     30 C           5.9862   -0.3153   22.9197 C.3     1  UNL1        0.0021
@<TRIPOS>BOND
     1    16    17    1
     2    17     9    1
     3     9    10   ar
     4    10    11   ar
     5    11    12    1
     6    11    13   ar
     7    13    14   ar
     8    14     1    1
     9     1     2    1
    10     2     3    1
    11     3     4   ar
    12     4     5   ar
    13     5    18    1
    14    18    19   ar
    15    19    20   ar
    16    20    21   ar
    17    21    22   ar
    18    22    24    1
    19    24    25    1
    20    24    26    2
    21    24    27    2
    22    22    23   ar
    23     5     6   ar
    24     6     7   ar
    25     7     8    1
    26     8    28    1
    27    28    29    1
    28    28    30    1
    29    14    15   ar
    30    15     9   ar
    31     8     1    1
    32     7     3   ar
    33    23    18   ar
@<TRIPOS>MOLECULE
*****
 30 33 0 0 0
SMALL
GASTEIGER

@<TRIPOS>ATOM
      1 N           2.3177   -0.6791   20.0867 N.pl3   1  UNL1       -0.2852
      2 C           1.0475   -0.2349   20.7496 C.3     1  UNL1        0.1220
      3 C           0.5577    0.9916   20.0384 C.ar    1  UNL1        0.0337
      4 C          -0.5300    2.0240   20.0085 C.ar    1  UNL1        0.0990
      5 N          -0.2347    2.9760   18.8876 N.ar    1  UNL1       -0.2287
      6 N           1.0354    2.5320   18.2247 N.ar    1  UNL1       -0.1681
      7 C           1.5252    1.3055   18.9359 C.ar    1  UNL1        0.0960
      8 C           2.6129    0.2730   18.9657 C.3     1  UNL1        0.1160
      9 C           4.5341   -3.1565   22.2547 C.ar    1  UNL1        0.3208
     10 N           4.8057   -4.2418   21.2556 N.ar    1  UNL1       -0.1985
     11 C           4.2479   -4.1396   19.8668 C.ar    1  UNL1        0.0668
     12 C           4.5196   -5.2250   18.8677 C.3     1  UNL1        0.0523
     13 C           3.4187   -2.9520   19.4772 C.ar    1  UNL1        0.0493
     14 C           3.1470   -1.8666   20.4763 C.ar    1  UNL1        0.1380
     15 N           3.7047   -1.9689   21.8650 N.ar    1  UNL1       -0.1793
     16 C           6.3994   -3.9554   23.8770 C.3     1  UNL1        0.2559
     17 O           5.0918   -3.2588   23.6434 O.3     1  UNL1       -0.4426
     18 C          -1.0640    4.1637   18.4980 C.ar    1  UNL1        0.0841
     19 C          -0.4019    5.4776   18.2061 C.ar    1  UNL1        0.0192
     20 C          -1.2313    6.6652   17.8165 C.ar    1  UNL1        0.0029
     21 C          -2.7228    6.5389   17.7187 C.ar    1  UNL1        0.0184
     22 C          -3.3849    5.2250   18.0105 C.ar    1  UNL1        0.1072
     23 C          -2.5555    4.0374   18.4002 C.ar    1  UNL1        0.0375
     24 S          -4.8763    5.0986   17.9127 S.O2    1  UNL1        0.0105
     25 C          -6.3678    4.9723   17.8150 C.3     1  UNL1        0.1816
     26 O          -4.7460    3.6055   17.8528 O.2     1  UNL1       -0.1686
     27 O          -5.0067    6.5918   17.9726 O.2     1  UNL1       -0.1686
     28 C           3.7893    0.2046   18.0376 C.3     1  UNL1        0.0240
     29 C           5.0098    1.0326   18.3114 C.3     1  UNL1        0.0021
     30 C           3.7453   -0.6918   16.8358 C.3     1  UNL1        0.0021
@<TRIPOS>BOND
     1    16    17    1
     2    17     9    1
     3     9    10   ar
     4    10    11   ar
     5    11    12    1
     6    11    13   ar
     7    13    14   ar
     8    14     1    1
     9     1     2    1
    10     2     3    1
    11     3     4   ar
    12     4     5   ar
    13     5    18    1
    14    18    19   ar
    15    19    20   ar
    16    20    21   ar
    17    21    22   ar
    18    22    24    1
    19    24    25    1
    20    24    26    2
    21    24    27    2
    22    22    23   ar
    23     5     6   ar
    24     6     7   ar
    25     7     8    1
    26     8    28    1
    27    28    29    1
    28    28    30    1
    29    14    15   ar
    30    15     9   ar
    31     8     1    1
    32     7     3   ar
    33    23    18   ar
@<TRIPOS>MOLECULE
*****
 30 33 0 0 0
SMALL
GASTEIGER

@<TRIPOS>ATOM
      1 N           3.8071   -1.1585   21.7001 N.pl3   1  UNL1       -0.2852
      2 C           2.5689   -0.3247   21.8479 C.3     1  UNL1        0.1220
      3 C           2.4329    0.0510   23.2937 C.ar    1  UNL1        0.0337
      4 C           1.5835    0.7985   24.2785 C.ar    1  UNL1        0.0990
      5 N           2.2127    0.6590   25.6329 N.ar    1  UNL1       -0.2287
      6 N           3.4509   -0.1747   25.4853 N.ar    1  UNL1       -0.1681
      7 C           3.5870   -0.5504   24.0395 C.ar    1  UNL1        0.0960
      8 C           4.4363   -1.2979   23.0547 C.3     1  UNL1        0.1160
      9 C           5.4682   -1.4534   18.1080 C.ar    1  UNL1        0.3208
     10 N           5.3613   -2.9300   17.8666 N.ar    1  UNL1       -0.1985
     11 C           4.7363   -3.8161   18.9032 C.ar    1  UNL1        0.0668
     12 C           4.6294   -5.2927   18.6617 C.3     1  UNL1        0.0523
     13 C           4.2183   -3.2256   20.1809 C.ar    1  UNL1        0.0493
     14 C           4.3252   -1.7489   20.4224 C.ar    1  UNL1        0.1380
     15 N           4.9501   -0.8629   19.3859 N.ar    1  UNL1       -0.1793
     16 C           5.8939    0.9178   17.1355 C.3     1  UNL1        0.2559
     17 O           6.0932   -0.5674   17.0715 O.3     1  UNL1       -0.4426
     18 C           1.6946    1.2495   26.9108 C.ar    1  UNL1        0.0841
     19 C           0.6017    2.2762   26.8737 C.ar    1  UNL1        0.0192
     20 C           0.0837    2.8667   28.1516 C.ar    1  UNL1        0.0029
     21 C           0.6586    2.4305   29.4666 C.ar    1  UNL1        0.0184
     22 C           1.7516    1.4038   29.5038 C.ar    1  UNL1        0.1072
     23 C           2.2696    0.8134   28.2258 C.ar    1  UNL1        0.0375
     24 S           2.3265    0.9676   30.8187 S.O2    1  UNL1        0.0105
     25 C           2.9014    0.5313   32.1336 C.3     1  UNL1        0.1816
     26 O           2.7314    2.3820   31.1110 O.2     1  UNL1       -0.1686
     27 O           1.9216   -0.4469   30.5264 O.2     1  UNL1       -0.1686
     28 C           5.6940   -2.0524   23.3692 C.3     1  UNL1        0.0240
     29 C           7.0228   -1.3606   23.2921 C.3     1  UNL1        0.0021
     30 C           5.6230   -3.4987   23.7606 C.3     1  UNL1        0.0021
@<TRIPOS>BOND
     1    16    17    1
     2    17     9    1
     3     9    10   ar
     4    10    11   ar
     5    11    12    1
     6    11    13   ar
     7    13    14   ar
     8    14     1    1
     9     1     2    1
    10     2     3    1
    11     3     4   ar
    12     4     5   ar
    13     5    18    1
    14    18    19   ar
    15    19    20   ar
    16    20    21   ar
    17    21    22   ar
    18    22    24    1
    19    24    25    1
    20    24    26    2
    21    24    27    2
    22    22    23   ar
    23     5     6   ar
    24     6     7   ar
    25     7     8    1
    26     8    28    1
    27    28    29    1
    28    28    30    1
    29    14    15   ar
    30    15     9   ar
    31     8     1    1
    32     7     3   ar
    33    23    18   ar
@<TRIPOS>MOLECULE
*****
 30 33 0 0 0
SMALL
GASTEIGER

@<TRIPOS>ATOM
      1 N           5.4114   -2.2239   21.4945 N.pl3   1  UNL1       -0.2852
      2 C           6.1447   -3.5308   21.5623 C.3     1  UNL1        0.1220
      3 C           6.3557   -3.8695   23.0082 C.ar    1  UNL1        0.0337
      4 C           6.9393   -4.8865   23.9437 C.ar    1  UNL1        0.0990
      5 N           6.6972   -4.4175   25.3477 N.ar    1  UNL1       -0.2287
      6 N           5.9640   -3.1106   25.2800 N.ar    1  UNL1       -0.1681
      7 C           5.7529   -2.7719   23.8341 C.ar    1  UNL1        0.0960
      8 C           5.1693   -1.7549   22.8986 C.3     1  UNL1        0.1160
      9 C           5.5684   -0.5744   17.8883 C.ar    1  UNL1        0.3208
     10 N           4.1582   -0.0858   17.7385 N.ar    1  UNL1       -0.1985
     11 C           3.1657   -0.3099   18.8407 C.ar    1  UNL1        0.0668
     12 C           1.7554    0.1788   18.6909 C.3     1  UNL1        0.0523
     13 C           3.5834   -1.0226   20.0927 C.ar    1  UNL1        0.0493
     14 C           4.9937   -1.5112   20.2425 C.ar    1  UNL1        0.1380
     15 N           5.9861   -1.2872   19.1404 N.ar    1  UNL1       -0.1793
     16 C           6.7694    1.0284   16.2336 C.3     1  UNL1        0.2559
     17 O           6.5608   -0.3504   16.7861 O.3     1  UNL1       -0.4426
     18 C           7.1150   -5.1301   26.5998 C.ar    1  UNL1        0.0841
     19 C           7.8407   -6.4399   26.5106 C.ar    1  UNL1        0.0192
     20 C           8.2584   -7.1525   27.7627 C.ar    1  UNL1        0.0029
     21 C           7.9504   -6.5555   29.1039 C.ar    1  UNL1        0.0184
     22 C           7.2247   -5.2458   29.1930 C.ar    1  UNL1        0.1072
     23 C           6.8070   -4.5331   27.9409 C.ar    1  UNL1        0.0375
     24 S           6.9167   -4.6487   30.5341 S.O2    1  UNL1        0.0105
     25 C           6.6087   -4.0515   31.8752 C.3     1  UNL1        0.1816
     26 O           6.8993   -6.0204   31.1409 O.2     1  UNL1       -0.1686
     27 O           6.9341   -3.2769   29.9273 O.2     1  UNL1       -0.1686
     28 C           4.4670   -0.4909   23.2972 C.3     1  UNL1        0.0240
     29 C           3.0539   -0.5439   23.7977 C.3     1  UNL1        0.0021
     30 C           5.1776    0.8261   23.1953 C.3     1  UNL1        0.0021
@<TRIPOS>BOND
     1    16    17    1
     2    17     9    1
     3     9    10   ar
     4    10    11   ar
     5    11    12    1
     6    11    13   ar
     7    13    14   ar
     8    14     1    1
     9     1     2    1
    10     2     3    1
    11     3     4   ar
    12     4     5   ar
    13     5    18    1
    14    18    19   ar
    15    19    20   ar
    16    20    21   ar
    17    21    22   ar
    18    22    24    1
    19    24    25    1
    20    24    26    2
    21    24    27    2
    22    22    23   ar
    23     5     6   ar
    24     6     7   ar
    25     7     8    1
    26     8    28    1
    27    28    29    1
    28    28    30    1
    29    14    15   ar
    30    15     9   ar
    31     8     1    1
    32     7     3   ar
    33    23    18   ar
