@<TRIPOS>MOLECULE
*****
 39 44 0 0 0
SMALL
GASTEIGER

@<TRIPOS>ATOM
      1 O           6.4744   -5.5293   32.4449 O.2     1  UNL1       -0.2749
      2 C           6.5815   -4.2250   31.7119 C.2     1  UNL1        0.2252
      3 N           6.7827   -4.2144   30.2255 N.am    1  UNL1       -0.2794
      4 C           6.8768   -5.5081   29.4722 C.3     1  UNL1        0.0953
      5 C           7.0779   -5.4975   27.9858 C.3     1  UNL1        0.0442
      6 C           7.1850   -4.1932   27.2527 C.3     1  UNL1        0.0933
      7 C           7.0909   -2.8996   28.0060 C.3     1  UNL1        0.0442
      8 C           6.8897   -2.9102   29.4925 C.3     1  UNL1        0.0953
      9 N           7.3862   -4.1826   25.7662 N.ar    1  UNL1       -0.2817
     10 C           7.0571   -3.0495   24.8400 C.ar    1  UNL1        0.3317
     11 O           6.4691   -1.7281   25.2376 O.2     1  UNL1       -0.2463
     12 N           7.4193   -3.4699   23.4465 N.ar    1  UNL1       -0.2758
     13 C           7.9723   -4.8628   23.5114 C.ar    1  UNL1        0.0800
     14 C           8.4917   -5.7869   22.4502 C.ar    1  UNL1        0.0188
     15 C           8.9907   -7.1515   22.8228 C.ar    1  UNL1        0.0016
     16 C           8.9702   -7.5919   24.2565 C.ar    1  UNL1        0.0016
     17 C           8.4508   -6.6678   25.3177 C.ar    1  UNL1        0.0188
     18 C           7.9518   -5.3032   24.9451 C.ar    1  UNL1        0.0796
     19 C           7.2571   -2.6427   22.2058 C.3     1  UNL1        0.1373
     20 C           6.0248   -2.7885   21.3629 C.ar    1  UNL1        0.0014
     21 C           4.9015   -1.8040   21.5001 C.ar    1  UNL1       -0.0023
     22 C           3.6693   -1.9498   20.6573 C.ar    1  UNL1        0.0006
     23 C           3.5604   -3.0802   19.6772 C.ar    1  UNL1        0.0114
     24 C           4.6838   -4.0646   19.5400 C.ar    1  UNL1        0.0574
     25 CL          4.5750   -5.1950   18.5599 Cl      1  UNL1       -0.0823
     26 C           5.9160   -3.9189   20.3828 C.ar    1  UNL1        0.0090
     27 C           6.4874   -2.9314   32.4653 C.3     1  UNL1        0.0795
     28 C           7.7313   -2.1541   32.7793 C.3     1  UNL1        0.0264
     29 C           7.6372   -0.8605   33.5326 C.3     1  UNL1        0.0729
     30 N           6.2992   -0.3440   33.9720 N.3     1  UNL1       -0.2689
     31 C           5.0552   -1.1213   33.6579 C.3     1  UNL1        0.0729
     32 C           5.1493   -2.4150   32.9046 C.3     1  UNL1        0.0264
     33 C           6.2051    0.9497   34.7253 C.3     1  UNL1        0.0992
     34 C           4.9795    1.2602   35.5324 C.ar    1  UNL1       -0.0031
     35 C           3.9492    2.2095   34.9963 C.ar    1  UNL1        0.0178
     36 C           2.7235    2.5201   35.8032 C.ar    1  UNL1        0.0986
     37 N           2.5281    1.8814   37.1463 N.ar    1  UNL1       -0.2423
     38 C           3.5584    0.9322   37.6825 C.ar    1  UNL1        0.0986
     39 C           4.7841    0.6216   36.8755 C.ar    1  UNL1        0.0178
@<TRIPOS>BOND
     1     1     2    2
     2     2    27    1
     3    27    28    1
     4    28    29    1
     5    29    30    1
     6    30    33    1
     7    33    34    1
     8    34    35   ar
     9    35    36   ar
    10    36    37   ar
    11    37    38   ar
    12    38    39   ar
    13    30    31    1
    14    31    32    1
    15     2     3   am
    16     3     4    1
    17     4     5    1
    18     5     6    1
    19     6     9    1
    20     9    10   ar
    21    10    11    2
    22    10    12   ar
    23    12    19    1
    24    19    20    1
    25    20    21   ar
    26    21    22   ar
    27    22    23   ar
    28    23    24   ar
    29    24    25    1
    30    24    26   ar
    31    12    13   ar
    32    13    14   ar
    33    14    15   ar
    34    15    16   ar
    35    16    17   ar
    36    17    18   ar
    37     6     7    1
    38     7     8    1
    39    32    27    1
    40     8     3    1
    41    39    34   ar
    42    18     9   ar
    43    26    20   ar
    44    18    13   ar
@<TRIPOS>MOLECULE
*****
 39 44 0 0 0
SMALL
GASTEIGER

@<TRIPOS>ATOM
      1 O           1.6764    0.1497   30.6306 O.2     1  UNL1       -0.2749
      2 C           3.1152   -0.2706   30.6864 C.2     1  UNL1        0.2252
      3 N           3.7921   -0.7931   29.4540 N.am    1  UNL1       -0.2794
      4 C           3.0302   -0.8954   28.1660 C.3     1  UNL1        0.0953
      5 C           3.7072   -1.4180   26.9336 C.3     1  UNL1        0.0442
      6 C           5.1461   -1.8383   26.9894 C.3     1  UNL1        0.0933
      7 C           5.9079   -1.7360   28.2774 C.3     1  UNL1        0.0442
      8 C           5.2309   -1.2134   29.5097 C.3     1  UNL1        0.0953
      9 N           5.8230   -2.3609   25.7570 N.ar    1  UNL1       -0.2817
     10 C           5.9347   -1.6470   24.4425 C.ar    1  UNL1        0.3317
     11 O           5.3891   -0.2853   24.1295 O.2     1  UNL1       -0.2463
     12 N           6.6879   -2.5340   23.4960 N.ar    1  UNL1       -0.2758
     13 C           7.0416   -3.7961   24.2254 C.ar    1  UNL1        0.0800
     14 C           7.7813   -5.0289   23.7978 C.ar    1  UNL1        0.0188
     15 C           7.9866   -6.1546   24.7675 C.ar    1  UNL1        0.0016
     16 C           7.4521   -6.0476   26.1650 C.ar    1  UNL1        0.0016
     17 C           6.7123   -4.8148   26.5926 C.ar    1  UNL1        0.0188
     18 C           6.5071   -3.6891   25.6229 C.ar    1  UNL1        0.0796
     19 C           7.0276   -2.2151   22.0702 C.3     1  UNL1        0.1373
     20 C           5.9958   -2.3914   20.9957 C.ar    1  UNL1        0.0014
     21 C           5.1541   -1.2267   20.5657 C.ar    1  UNL1       -0.0023
     22 C           4.1223   -1.4029   19.4914 C.ar    1  UNL1        0.0006
     23 C           3.9322   -2.7441   18.8470 C.ar    1  UNL1        0.0114
     24 C           4.7738   -3.9089   19.2771 C.ar    1  UNL1        0.0574
     25 CL          4.5836   -5.2500   18.6328 Cl      1  UNL1       -0.0823
     26 C           5.8056   -3.7326   20.3514 C.ar    1  UNL1        0.0090
     27 C           3.8770   -0.1683   31.9744 C.3     1  UNL1        0.0795
     28 C           4.4851    1.1402   32.3843 C.3     1  UNL1        0.0264
     29 C           5.2469    1.2425   33.6723 C.3     1  UNL1        0.0729
     30 N           5.4008    0.0362   34.5505 N.3     1  UNL1       -0.2689
     31 C           4.7927   -1.2724   34.1406 C.3     1  UNL1        0.0729
     32 C           4.0308   -1.3747   32.8526 C.3     1  UNL1        0.0264
     33 C           6.1627    0.1385   35.8386 C.3     1  UNL1        0.0992
     34 C           5.5545    0.8411   37.0160 C.ar    1  UNL1       -0.0031
     35 C           6.3703    1.8178   37.8100 C.ar    1  UNL1        0.0178
     36 C           5.7622    2.5204   38.9874 C.ar    1  UNL1        0.0986
     37 N           4.3382    2.2463   39.3710 N.ar    1  UNL1       -0.2423
     38 C           3.5223    1.2696   38.5770 C.ar    1  UNL1        0.0986
     39 C           4.1305    0.5670   37.3995 C.ar    1  UNL1        0.0178
@<TRIPOS>BOND
     1     1     2    2
     2     2    27    1
     3    27    28    1
     4    28    29    1
     5    29    30    1
     6    30    33    1
     7    33    34    1
     8    34    35   ar
     9    35    36   ar
    10    36    37   ar
    11    37    38   ar
    12    38    39   ar
    13    30    31    1
    14    31    32    1
    15     2     3   am
    16     3     4    1
    17     4     5    1
    18     5     6    1
    19     6     9    1
    20     9    10   ar
    21    10    11    2
    22    10    12   ar
    23    12    19    1
    24    19    20    1
    25    20    21   ar
    26    21    22   ar
    27    22    23   ar
    28    23    24   ar
    29    24    25    1
    30    24    26   ar
    31    12    13   ar
    32    13    14   ar
    33    14    15   ar
    34    15    16   ar
    35    16    17   ar
    36    17    18   ar
    37     6     7    1
    38     7     8    1
    39    32    27    1
    40     8     3    1
    41    39    34   ar
    42    18     9   ar
    43    26    20   ar
    44    18    13   ar
@<TRIPOS>MOLECULE
*****
 39 44 0 0 0
SMALL
GASTEIGER

@<TRIPOS>ATOM
      1 O           9.5248   -7.3049   26.8900 O.2     1  UNL1       -0.2749
      2 C           8.7435   -6.0255   26.9392 C.2     1  UNL1        0.2252
      3 N           8.2716   -5.3855   25.6673 N.am    1  UNL1       -0.2794
      4 C           8.5812   -6.0251   24.3462 C.3     1  UNL1        0.0953
      5 C           8.1094   -5.3851   23.0743 C.3     1  UNL1        0.0442
      6 C           7.3280   -4.1056   23.1234 C.3     1  UNL1        0.0933
      7 C           7.0185   -3.4661   24.4444 C.3     1  UNL1        0.0442
      8 C           7.4903   -4.1061   25.7164 C.3     1  UNL1        0.0953
      9 N           6.8561   -3.4656   21.8514 N.ar    1  UNL1       -0.2817
     10 C           5.5217   -3.6777   21.2000 C.ar    1  UNL1        0.3317
     11 O           4.4248   -4.5669   21.7061 O.2     1  UNL1       -0.2463
     12 N           5.4768   -2.8444   19.9536 N.ar    1  UNL1       -0.2758
     13 C           6.7835   -2.1173   19.8347 C.ar    1  UNL1        0.0800
     14 C           7.3072   -1.1553   18.8099 C.ar    1  UNL1        0.0188
     15 C           8.6833   -0.5773   18.9581 C.ar    1  UNL1        0.0016
     16 C           9.5358   -0.9612   20.1310 C.ar    1  UNL1        0.0016
     17 C           9.0121   -1.9233   21.1558 C.ar    1  UNL1        0.0188
     18 C           7.6360   -2.5013   21.0076 C.ar    1  UNL1        0.0796
     19 C           4.3271   -2.7540   18.9944 C.3     1  UNL1        0.1373
     20 C           3.4845   -1.5137   18.9483 C.ar    1  UNL1        0.0014
     21 C           3.8576   -0.3872   18.0308 C.ar    1  UNL1       -0.0023
     22 C           3.0151    0.8529   17.9847 C.ar    1  UNL1        0.0006
     23 C           1.7995    0.9666   18.8562 C.ar    1  UNL1        0.0114
     24 C           1.4265   -0.1599   19.7737 C.ar    1  UNL1        0.0574
     25 CL          0.2109   -0.0463   20.6452 Cl      1  UNL1       -0.0823
     26 C           2.2690   -1.4001   19.8198 C.ar    1  UNL1        0.0090
     27 C           8.4339   -5.3860   28.2603 C.3     1  UNL1        0.0795
     28 C           7.1721   -5.7424   28.9887 C.3     1  UNL1        0.0264
     29 C           6.8625   -5.1029   30.3098 C.3     1  UNL1        0.0729
     30 N           7.8149   -4.1069   30.9024 N.3     1  UNL1       -0.2689
     31 C           9.0768   -3.7505   30.1739 C.3     1  UNL1        0.0729
     32 C           9.3863   -4.3900   28.8528 C.3     1  UNL1        0.0264
     33 C           7.5053   -3.4674   32.2234 C.3     1  UNL1        0.0992
     34 C           6.4940   -2.3625   32.3032 C.ar    1  UNL1       -0.0031
     35 C           6.7303   -1.0752   31.5703 C.ar    1  UNL1        0.0178
     36 C           5.7190    0.0297   31.6501 C.ar    1  UNL1        0.0986
     37 N           4.4715   -0.1526   32.4627 N.ar    1  UNL1       -0.2423
     38 C           4.2352   -1.4398   33.1956 C.ar    1  UNL1        0.0986
     39 C           5.2465   -2.5448   33.1158 C.ar    1  UNL1        0.0178
@<TRIPOS>BOND
     1     1     2    2
     2     2    27    1
     3    27    28    1
     4    28    29    1
     5    29    30    1
     6    30    33    1
     7    33    34    1
     8    34    35   ar
     9    35    36   ar
    10    36    37   ar
    11    37    38   ar
    12    38    39   ar
    13    30    31    1
    14    31    32    1
    15     2     3   am
    16     3     4    1
    17     4     5    1
    18     5     6    1
    19     6     9    1
    20     9    10   ar
    21    10    11    2
    22    10    12   ar
    23    12    19    1
    24    19    20    1
    25    20    21   ar
    26    21    22   ar
    27    22    23   ar
    28    23    24   ar
    29    24    25    1
    30    24    26   ar
    31    12    13   ar
    32    13    14   ar
    33    14    15   ar
    34    15    16   ar
    35    16    17   ar
    36    17    18   ar
    37     6     7    1
    38     7     8    1
    39    32    27    1
    40     8     3    1
    41    39    34   ar
    42    18     9   ar
    43    26    20   ar
    44    18    13   ar
@<TRIPOS>MOLECULE
*****
 39 44 0 0 0
SMALL
GASTEIGER

@<TRIPOS>ATOM
      1 O           6.7196   -5.2102   31.9903 O.2     1  UNL1       -0.2749
      2 C           6.5389   -3.8004   31.5112 C.2     1  UNL1        0.2252
      3 N           6.4777   -3.5101   30.0408 N.am    1  UNL1       -0.2794
      4 C           6.5971   -4.6297   29.0497 C.3     1  UNL1        0.0953
      5 C           6.5359   -4.3394   27.5793 C.3     1  UNL1        0.0442
      6 C           6.3552   -2.9295   27.1000 C.3     1  UNL1        0.0933
      7 C           6.2357   -1.8100   28.0911 C.3     1  UNL1        0.0442
      8 C           6.2970   -2.1003   29.5615 C.3     1  UNL1        0.0953
      9 N           6.2939   -2.6392   25.6296 N.ar    1  UNL1       -0.2817
     10 C           7.3095   -3.0529   24.6062 C.ar    1  UNL1        0.3317
     11 O           8.5647   -3.8295   24.8735 O.2     1  UNL1       -0.2463
     12 N           6.8495   -2.5537   23.2686 N.ar    1  UNL1       -0.2758
     13 C           5.5497   -1.8314   23.4654 C.ar    1  UNL1        0.0800
     14 C           4.6344   -1.1324   22.5043 C.ar    1  UNL1        0.0188
     15 C           3.3757   -0.4863   23.0025 C.ar    1  UNL1        0.0016
     16 C           3.0323   -0.5392   24.4617 C.ar    1  UNL1        0.0016
     17 C           3.9476   -1.2382   25.4227 C.ar    1  UNL1        0.0188
     18 C           5.2063   -1.8843   24.9246 C.ar    1  UNL1        0.0796
     19 C           7.5640   -2.7433   21.9634 C.3     1  UNL1        0.1373
     20 C           6.7837   -2.8088   20.6839 C.ar    1  UNL1        0.0014
     21 C           7.0223   -1.7921   19.6071 C.ar    1  UNL1       -0.0023
     22 C           6.2422   -1.8575   18.3277 C.ar    1  UNL1        0.0006
     23 C           5.2234   -2.9396   18.1250 C.ar    1  UNL1        0.0114
     24 C           4.9848   -3.9563   19.2017 C.ar    1  UNL1        0.0574
     25 CL          3.9660   -5.0384   18.9991 Cl      1  UNL1       -0.0823
     26 C           5.7649   -3.8909   20.4812 C.ar    1  UNL1        0.0090
     27 C           6.4195   -2.6808   32.5023 C.3     1  UNL1        0.0795
     28 C           7.6108   -1.8239   32.8130 C.3     1  UNL1        0.0264
     29 C           7.4913   -0.7044   33.8041 C.3     1  UNL1        0.0729
     30 N           6.1806   -0.4417   34.4845 N.3     1  UNL1       -0.2689
     31 C           4.9892   -1.2986   34.1737 C.3     1  UNL1        0.0729
     32 C           5.1087   -2.4182   33.1826 C.3     1  UNL1        0.0264
     33 C           6.0611    0.6779   35.4756 C.3     1  UNL1        0.0992
     34 C           4.7195    1.2825   35.7660 C.ar    1  UNL1       -0.0031
     35 C           4.1368    1.1875   37.1450 C.ar    1  UNL1        0.0178
     36 C           2.7952    1.7921   37.4356 C.ar    1  UNL1        0.0986
     37 N           2.0363    2.4917   36.3472 N.ar    1  UNL1       -0.2423
     38 C           2.6189    2.5867   34.9683 C.ar    1  UNL1        0.0986
     39 C           3.9606    1.9821   34.6777 C.ar    1  UNL1        0.0178
@<TRIPOS>BOND
     1     1     2    2
     2     2    27    1
     3    27    28    1
     4    28    29    1
     5    29    30    1
     6    30    33    1
     7    33    34    1
     8    34    35   ar
     9    35    36   ar
    10    36    37   ar
    11    37    38   ar
    12    38    39   ar
    13    30    31    1
    14    31    32    1
    15     2     3   am
    16     3     4    1
    17     4     5    1
    18     5     6    1
    19     6     9    1
    20     9    10   ar
    21    10    11    2
    22    10    12   ar
    23    12    19    1
    24    19    20    1
    25    20    21   ar
    26    21    22   ar
    27    22    23   ar
    28    23    24   ar
    29    24    25    1
    30    24    26   ar
    31    12    13   ar
    32    13    14   ar
    33    14    15   ar
    34    15    16   ar
    35    16    17   ar
    36    17    18   ar
    37     6     7    1
    38     7     8    1
    39    32    27    1
    40     8     3    1
    41    39    34   ar
    42    18     9   ar
    43    26    20   ar
    44    18    13   ar
@<TRIPOS>MOLECULE
*****
 39 44 0 0 0
SMALL
GASTEIGER

@<TRIPOS>ATOM
      1 O           6.9126   -2.7410   31.9254 O.2     1  UNL1       -0.2749
      2 C           6.0260   -1.5345   32.0146 C.2     1  UNL1        0.2252
      3 N           5.3447   -1.0118   30.7847 N.am    1  UNL1       -0.2794
      4 C           5.5501   -1.6957   29.4656 C.3     1  UNL1        0.0953
      5 C           4.8689   -1.1730   28.2357 C.3     1  UNL1        0.0442
      6 C           3.9821    0.0336   28.3249 C.3     1  UNL1        0.0933
      7 C           3.7767    0.7174   29.6440 C.3     1  UNL1        0.0442
      8 C           4.4580    0.1947   30.8739 C.3     1  UNL1        0.0953
      9 N           3.3009    0.5563   27.0950 N.ar    1  UNL1       -0.2817
     10 C           3.9434    0.7773   25.7577 C.ar    1  UNL1        0.3317
     11 O           5.3800    0.5145   25.4156 O.2     1  UNL1       -0.2463
     12 N           2.8971    1.3073   24.8227 N.ar    1  UNL1       -0.2758
     13 C           1.6079    1.4139   25.5821 C.ar    1  UNL1        0.0800
     14 C           0.2390    1.8736   25.1762 C.ar    1  UNL1        0.0188
     15 C          -0.8803    1.8692   26.1747 C.ar    1  UNL1        0.0016
     16 C          -0.6307    1.4050   27.5791 C.ar    1  UNL1        0.0016
     17 C           0.7381    0.9453   27.9850 C.ar    1  UNL1        0.0188
     18 C           1.8575    0.9497   26.9865 C.ar    1  UNL1        0.0796
     19 C           3.1037    1.6676   23.3813 C.3     1  UNL1        0.1373
     20 C           2.4859    0.8281   22.3025 C.ar    1  UNL1        0.0014
     21 C           1.1171    1.1591   21.7859 C.ar    1  UNL1       -0.0023
     22 C           0.4993    0.3198   20.7072 C.ar    1  UNL1        0.0006
     23 C           1.2504   -0.8506   20.1449 C.ar    1  UNL1        0.0114
     24 C           2.6192   -1.1815   20.6614 C.ar    1  UNL1        0.0574
     25 CL          3.3703   -2.3519   20.0991 Cl      1  UNL1       -0.0823
     26 C           3.2370   -0.3422   21.7402 C.ar    1  UNL1        0.0090
     27 C           5.8205   -0.8506   33.3338 C.3     1  UNL1        0.0795
     28 C           4.6970   -1.2758   34.2320 C.3     1  UNL1        0.0264
     29 C           4.4915   -0.5919   35.5511 C.3     1  UNL1        0.0729
     30 N           5.4096    0.5171   35.9720 N.3     1  UNL1       -0.2689
     31 C           6.5333    0.9423   35.0737 C.3     1  UNL1        0.0729
     32 C           6.7387    0.2584   33.7546 C.3     1  UNL1        0.0264
     33 C           5.2042    1.2010   37.2911 C.3     1  UNL1        0.0992
     34 C           3.8500    1.7314   37.6582 C.ar    1  UNL1       -0.0031
     35 C           3.3602    3.0164   37.0590 C.ar    1  UNL1        0.0178
     36 C           2.0060    3.5468   37.4260 C.ar    1  UNL1        0.0986
     37 N           1.1416    2.7923   38.3921 N.ar    1  UNL1       -0.2423
     38 C           1.6313    1.5073   38.9913 C.ar    1  UNL1        0.0986
     39 C           2.9855    0.9769   38.6243 C.ar    1  UNL1        0.0178
@<TRIPOS>BOND
     1     1     2    2
     2     2    27    1
     3    27    28    1
     4    28    29    1
     5    29    30    1
     6    30    33    1
     7    33    34    1
     8    34    35   ar
     9    35    36   ar
    10    36    37   ar
    11    37    38   ar
    12    38    39   ar
    13    30    31    1
    14    31    32    1
    15     2     3   am
    16     3     4    1
    17     4     5    1
    18     5     6    1
    19     6     9    1
    20     9    10   ar
    21    10    11    2
    22    10    12   ar
    23    12    19    1
    24    19    20    1
    25    20    21   ar
    26    21    22   ar
    27    22    23   ar
    28    23    24   ar
    29    24    25    1
    30    24    26   ar
    31    12    13   ar
    32    13    14   ar
    33    14    15   ar
    34    15    16   ar
    35    16    17   ar
    36    17    18   ar
    37     6     7    1
    38     7     8    1
    39    32    27    1
    40     8     3    1
    41    39    34   ar
    42    18     9   ar
    43    26    20   ar
    44    18    13   ar
@<TRIPOS>MOLECULE
*****
 39 44 0 0 0
SMALL
GASTEIGER

@<TRIPOS>ATOM
      1 O           3.1213    0.3216   30.2917 O.2     1  UNL1       -0.2749
      2 C           2.7948    0.3113   28.8278 C.2     1  UNL1        0.2252
      3 N           3.6257   -0.5016   27.8797 N.am    1  UNL1       -0.2794
      4 C           4.7832   -1.3041   28.3957 C.3     1  UNL1        0.0953
      5 C           5.6142   -2.1170   27.4477 C.3     1  UNL1        0.0442
      6 C           5.2876   -2.1273   25.9836 C.3     1  UNL1        0.0933
      7 C           4.1302   -1.3248   25.4677 C.3     1  UNL1        0.0442
      8 C           3.2992   -0.5119   26.4158 C.3     1  UNL1        0.0953
      9 N           6.1186   -2.9402   25.0356 N.ar    1  UNL1       -0.2817
     10 C           6.5620   -2.5171   23.6665 C.ar    1  UNL1        0.3317
     11 O           6.2523   -1.2069   23.0050 O.2     1  UNL1       -0.2463
     12 N           7.3695   -3.6343   23.0750 N.ar    1  UNL1       -0.2758
     13 C           7.4251   -4.7478   24.0785 C.ar    1  UNL1        0.0800
     14 C           8.0798   -6.0970   24.0455 C.ar    1  UNL1        0.0188
     15 C           7.9614   -7.0171   25.2242 C.ar    1  UNL1        0.0016
     16 C           7.1883   -6.5881   26.4359 C.ar    1  UNL1        0.0016
     17 C           6.5336   -5.2389   26.4689 C.ar    1  UNL1        0.0188
     18 C           6.6520   -4.3188   25.2902 C.ar    1  UNL1        0.0796
     19 C           8.0090   -3.6375   21.7182 C.3     1  UNL1        0.1373
     20 C           7.1798   -3.3685   20.4975 C.ar    1  UNL1        0.0014
     21 C           7.6987   -2.4587   19.4237 C.ar    1  UNL1       -0.0023
     22 C           6.8696   -2.1897   18.2031 C.ar    1  UNL1        0.0006
     23 C           5.5213   -2.8306   18.0561 C.ar    1  UNL1        0.0114
     24 C           5.0024   -3.7404   19.1299 C.ar    1  UNL1        0.0574
     25 CL          3.6541   -4.3813   18.9829 Cl      1  UNL1       -0.0823
     26 C           5.8315   -4.0094   20.3505 C.ar    1  UNL1        0.0090
     27 C           1.6373    1.1138   28.3118 C.3     1  UNL1        0.0795
     28 C           1.8494    2.5256   27.8515 C.3     1  UNL1        0.0264
     29 C           0.6920    3.3281   27.3356 C.3     1  UNL1        0.0729
     30 N          -0.6776    2.7189   27.2799 N.3     1  UNL1       -0.2689
     31 C          -0.8897    1.3070   27.7403 C.3     1  UNL1        0.0729
     32 C           0.2677    0.5045   28.2562 C.3     1  UNL1        0.0264
     33 C          -1.8351    3.5214   26.7640 C.3     1  UNL1        0.0992
     34 C          -2.1388    3.5410   25.2952 C.ar    1  UNL1       -0.0031
     35 C          -1.0199    3.4916   24.2973 C.ar    1  UNL1        0.0178
     36 C          -1.3235    3.5112   22.8285 C.ar    1  UNL1        0.0986
     37 N          -2.7460    3.5802   22.3576 N.ar    1  UNL1       -0.2423
     38 C          -3.8648    3.6296   23.3554 C.ar    1  UNL1        0.0986
     39 C          -3.5612    3.6100   24.8243 C.ar    1  UNL1        0.0178
@<TRIPOS>BOND
     1     1     2    2
     2     2    27    1
     3    27    28    1
     4    28    29    1
     5    29    30    1
     6    30    33    1
     7    33    34    1
     8    34    35   ar
     9    35    36   ar
    10    36    37   ar
    11    37    38   ar
    12    38    39   ar
    13    30    31    1
    14    31    32    1
    15     2     3   am
    16     3     4    1
    17     4     5    1
    18     5     6    1
    19     6     9    1
    20     9    10   ar
    21    10    11    2
    22    10    12   ar
    23    12    19    1
    24    19    20    1
    25    20    21   ar
    26    21    22   ar
    27    22    23   ar
    28    23    24   ar
    29    24    25    1
    30    24    26   ar
    31    12    13   ar
    32    13    14   ar
    33    14    15   ar
    34    15    16   ar
    35    16    17   ar
    36    17    18   ar
    37     6     7    1
    38     7     8    1
    39    32    27    1
    40     8     3    1
    41    39    34   ar
    42    18     9   ar
    43    26    20   ar
    44    18    13   ar
@<TRIPOS>MOLECULE
*****
 39 44 0 0 0
SMALL
GASTEIGER

@<TRIPOS>ATOM
      1 O           2.9719    3.8069   25.3820 O.2     1  UNL1       -0.2749
      2 C           2.9993    2.3074   25.3609 C.2     1  UNL1        0.2252
      3 N           3.3790    1.5468   26.5968 N.am    1  UNL1       -0.2794
      4 C           3.7312    2.2859   27.8537 C.3     1  UNL1        0.0953
      5 C           4.1108    1.5253   29.0896 C.3     1  UNL1        0.0442
      6 C           4.1383    0.0256   29.0685 C.3     1  UNL1        0.0933
      7 C           3.7861   -0.7133   27.8117 C.3     1  UNL1        0.0442
      8 C           3.4065    0.0472   26.5758 C.3     1  UNL1        0.0953
      9 N           4.5180   -0.7349   30.3044 N.ar    1  UNL1       -0.2817
     10 C           3.9476   -0.5291   31.6764 C.ar    1  UNL1        0.3317
     11 O           2.8974    0.4734   32.0534 O.2     1  UNL1       -0.2463
     12 N           4.6118   -1.5018   32.6052 N.ar    1  UNL1       -0.2758
     13 C           5.5927   -2.3088   31.8073 C.ar    1  UNL1        0.0800
     14 C           6.5312   -3.4139   32.1918 C.ar    1  UNL1        0.0188
     15 C           7.4117   -4.0451   31.1543 C.ar    1  UNL1        0.0016
     16 C           7.3537   -3.5711   29.7324 C.ar    1  UNL1        0.0016
     17 C           6.4152   -2.4660   29.3478 C.ar    1  UNL1        0.0188
     18 C           5.5347   -1.8348   30.3853 C.ar    1  UNL1        0.0796
     19 C           4.3424   -1.6429   34.0740 C.3     1  UNL1        0.1373
     20 C           5.0245   -0.7330   35.0524 C.ar    1  UNL1        0.0014
     21 C           6.4611   -0.3533   34.8477 C.ar    1  UNL1       -0.0023
     22 C           7.1432    0.5566   35.8260 C.ar    1  UNL1        0.0006
     23 C           6.3885    1.0867   37.0089 C.ar    1  UNL1        0.0114
     24 C           4.9519    0.7070   37.2136 C.ar    1  UNL1        0.0574
     25 CL          4.1972    1.2371   38.3966 Cl      1  UNL1       -0.0823
     26 C           4.2698   -0.2028   36.2354 C.ar    1  UNL1        0.0090
     27 C           2.6471    1.5683   24.1040 C.3     1  UNL1        0.0795
     28 C           3.7281    0.9386   23.2764 C.3     1  UNL1        0.0264
     29 C           3.3759    0.1996   22.0195 C.3     1  UNL1        0.0729
     30 N           1.9428    0.0903   21.5902 N.3     1  UNL1       -0.2689
     31 C           0.8618    0.7200   22.4179 C.3     1  UNL1        0.0729
     32 C           1.2140    1.4591   23.6748 C.3     1  UNL1        0.0264
     33 C           1.5906   -0.6488   20.3333 C.3     1  UNL1        0.0992
     34 C           2.6676   -1.0343   19.3631 C.ar    1  UNL1       -0.0031
     35 C           3.4003   -2.3321   19.5328 C.ar    1  UNL1        0.0178
     36 C           4.4773   -2.7177   18.5626 C.ar    1  UNL1        0.0986
     37 N           4.8217   -1.8055   17.4227 N.ar    1  UNL1       -0.2423
     38 C           4.0890   -0.5076   17.2531 C.ar    1  UNL1        0.0986
     39 C           3.0119   -0.1220   18.2233 C.ar    1  UNL1        0.0178
@<TRIPOS>BOND
     1     1     2    2
     2     2    27    1
     3    27    28    1
     4    28    29    1
     5    29    30    1
     6    30    33    1
     7    33    34    1
     8    34    35   ar
     9    35    36   ar
    10    36    37   ar
    11    37    38   ar
    12    38    39   ar
    13    30    31    1
    14    31    32    1
    15     2     3   am
    16     3     4    1
    17     4     5    1
    18     5     6    1
    19     6     9    1
    20     9    10   ar
    21    10    11    2
    22    10    12   ar
    23    12    19    1
    24    19    20    1
    25    20    21   ar
    26    21    22   ar
    27    22    23   ar
    28    23    24   ar
    29    24    25    1
    30    24    26   ar
    31    12    13   ar
    32    13    14   ar
    33    14    15   ar
    34    15    16   ar
    35    16    17   ar
    36    17    18   ar
    37     6     7    1
    38     7     8    1
    39    32    27    1
    40     8     3    1
    41    39    34   ar
    42    18     9   ar
    43    26    20   ar
    44    18    13   ar
@<TRIPOS>MOLECULE
*****
 39 44 0 0 0
SMALL
GASTEIGER

@<TRIPOS>ATOM
      1 O           4.5772   -4.8213   20.1284 O.2     1  UNL1       -0.2749
      2 C           4.8586   -3.6011   20.9541 C.2     1  UNL1        0.2252
      3 N           4.1709   -2.3062   20.6373 N.am    1  UNL1       -0.2794
      4 C           3.2018   -2.2316   19.4947 C.3     1  UNL1        0.0953
      5 C           2.5142   -0.9367   19.1779 C.3     1  UNL1        0.0442
      6 C           2.7955    0.2836   20.0036 C.3     1  UNL1        0.0933
      7 C           3.7645    0.2089   21.1461 C.3     1  UNL1        0.0442
      8 C           4.4522   -1.0859   21.4630 C.3     1  UNL1        0.0953
      9 N           2.1078    1.5785   19.6868 N.ar    1  UNL1       -0.2817
     10 C           0.7126    1.9568   20.0871 C.ar    1  UNL1        0.3317
     11 O          -0.2399    1.1067   20.8745 O.2     1  UNL1       -0.2463
     12 N           0.4372    3.3345   19.5617 N.ar    1  UNL1       -0.2758
     13 C           1.6621    3.8076   18.8367 C.ar    1  UNL1        0.0800
     14 C           1.9707    5.0865   18.1161 C.ar    1  UNL1        0.0188
     15 C           3.3119    5.2800   17.4728 C.ar    1  UNL1        0.0016
     16 C           4.3444    4.1947   17.5502 C.ar    1  UNL1        0.0016
     17 C           4.0358    2.9159   18.2707 C.ar    1  UNL1        0.0188
     18 C           2.6947    2.7223   18.9140 C.ar    1  UNL1        0.0796
     19 C          -0.8392    4.1040   19.7314 C.3     1  UNL1        0.1373
     20 C          -1.9355    3.9717   18.7161 C.ar    1  UNL1        0.0014
     21 C          -1.6045    3.9530   17.2532 C.ar    1  UNL1       -0.0023
     22 C          -2.7007    3.8207   16.2378 C.ar    1  UNL1        0.0006
     23 C          -4.1278    3.7071   16.6855 C.ar    1  UNL1        0.0114
     24 C          -4.4587    3.7258   18.1484 C.ar    1  UNL1        0.0574
     25 CL         -5.8859    3.6122   18.5960 Cl      1  UNL1       -0.0823
     26 C          -3.3626    3.8581   19.1637 C.ar    1  UNL1        0.0090
     27 C           5.8276   -3.6757   22.0967 C.3     1  UNL1        0.0795
     28 C           5.3324   -3.5666   23.5084 C.3     1  UNL1        0.0264
     29 C           6.3014   -3.6412   24.6509 C.3     1  UNL1        0.0729
     30 N           7.7656   -3.8249   24.3818 N.3     1  UNL1       -0.2689
     31 C           8.2608   -3.9340   22.9700 C.3     1  UNL1        0.0729
     32 C           7.2918   -3.8594   21.8274 C.3     1  UNL1        0.0264
     33 C           8.7346   -3.8995   25.5243 C.3     1  UNL1        0.0992
     34 C           8.3793   -4.6721   26.7599 C.ar    1  UNL1       -0.0031
     35 C           8.4301   -6.1712   26.7475 C.ar    1  UNL1        0.0178
     36 C           8.0748   -6.9439   27.9831 C.ar    1  UNL1        0.0986
     37 N           7.6687   -6.2175   29.2311 N.ar    1  UNL1       -0.2423
     38 C           7.6180   -4.7184   29.2435 C.ar    1  UNL1        0.0986
     39 C           7.9733   -3.9457   28.0079 C.ar    1  UNL1        0.0178
@<TRIPOS>BOND
     1     1     2    2
     2     2    27    1
     3    27    28    1
     4    28    29    1
     5    29    30    1
     6    30    33    1
     7    33    34    1
     8    34    35   ar
     9    35    36   ar
    10    36    37   ar
    11    37    38   ar
    12    38    39   ar
    13    30    31    1
    14    31    32    1
    15     2     3   am
    16     3     4    1
    17     4     5    1
    18     5     6    1
    19     6     9    1
    20     9    10   ar
    21    10    11    2
    22    10    12   ar
    23    12    19    1
    24    19    20    1
    25    20    21   ar
    26    21    22   ar
    27    22    23   ar
    28    23    24   ar
    29    24    25    1
    30    24    26   ar
    31    12    13   ar
    32    13    14   ar
    33    14    15   ar
    34    15    16   ar
    35    16    17   ar
    36    17    18   ar
    37     6     7    1
    38     7     8    1
    39    32    27    1
    40     8     3    1
    41    39    34   ar
    42    18     9   ar
    43    26    20   ar
    44    18    13   ar
@<TRIPOS>MOLECULE
*****
 39 44 0 0 0
SMALL
GASTEIGER

@<TRIPOS>ATOM
      1 O           5.6744   -4.6601   19.9167 O.2     1  UNL1       -0.2749
      2 C           5.5789   -3.5003   20.8632 C.2     1  UNL1        0.2252
      3 N           4.7116   -2.3246   20.5234 N.am    1  UNL1       -0.2794
      4 C           3.9398   -2.3087   19.2373 C.3     1  UNL1        0.0953
      5 C           3.0724   -1.1330   18.8976 C.3     1  UNL1        0.0442
      6 C           2.9768    0.0268   19.8441 C.3     1  UNL1        0.0933
      7 C           3.7486    0.0109   21.1301 C.3     1  UNL1        0.0442
      8 C           4.6160   -1.1648   21.4698 C.3     1  UNL1        0.0953
      9 N           2.1094    1.2025   19.5044 N.ar    1  UNL1       -0.2817
     10 C           0.6440    1.3311   19.7977 C.ar    1  UNL1        0.3317
     11 O          -0.2113    0.3065   20.4822 O.2     1  UNL1       -0.2463
     12 N           0.1842    2.6641   19.2863 N.ar    1  UNL1       -0.2758
     13 C           1.3653    3.3594   18.6769 C.ar    1  UNL1        0.0800
     14 C           1.5111    4.6984   18.0167 C.ar    1  UNL1        0.0188
     15 C           2.8468    5.1340   17.4913 C.ar    1  UNL1        0.0016
     16 C           4.0367    4.2307   17.6261 C.ar    1  UNL1        0.0016
     17 C           3.8909    2.8918   18.2863 C.ar    1  UNL1        0.0188
     18 C           2.5552    2.4561   18.8117 C.ar    1  UNL1        0.0796
     19 C          -1.2118    3.2066   19.3696 C.3     1  UNL1        0.1373
     20 C          -1.8823    3.3502   20.7038 C.ar    1  UNL1        0.0014
     21 C          -1.0558    3.4519   21.9514 C.ar    1  UNL1       -0.0023
     22 C          -1.7261    3.5955   23.2855 C.ar    1  UNL1        0.0006
     23 C          -3.2231    3.6376   23.3720 C.ar    1  UNL1        0.0114
     24 C          -4.0495    3.5359   22.1244 C.ar    1  UNL1        0.0574
     25 CL         -5.5465    3.5780   22.2109 Cl      1  UNL1       -0.0823
     26 C          -3.3792    3.3923   20.7903 C.ar    1  UNL1        0.0090
     27 C           6.3507   -3.5162   22.1493 C.3     1  UNL1        0.0795
     28 C           5.6682   -3.8993   23.4288 C.3     1  UNL1        0.0264
     29 C           6.4400   -3.9152   24.7149 C.3     1  UNL1        0.0729
     30 N           7.8943   -3.5480   24.7215 N.3     1  UNL1       -0.2689
     31 C           8.5769   -3.1648   23.4418 C.3     1  UNL1        0.0729
     32 C           7.8051   -3.1489   22.1557 C.3     1  UNL1        0.0264
     33 C           8.6661   -3.5638   26.0076 C.3     1  UNL1        0.0992
     34 C           8.1290   -4.3056   27.1955 C.ar    1  UNL1       -0.0031
     35 C           8.2729   -5.7964   27.2766 C.ar    1  UNL1        0.0178
     36 C           7.7358   -6.5383   28.4645 C.ar    1  UNL1        0.0986
     37 N           7.0548   -5.7892   29.5714 N.ar    1  UNL1       -0.2423
     38 C           6.9109   -4.2983   29.4903 C.ar    1  UNL1        0.0986
     39 C           7.4480   -3.5565   28.3024 C.ar    1  UNL1        0.0178
@<TRIPOS>BOND
     1     1     2    2
     2     2    27    1
     3    27    28    1
     4    28    29    1
     5    29    30    1
     6    30    33    1
     7    33    34    1
     8    34    35   ar
     9    35    36   ar
    10    36    37   ar
    11    37    38   ar
    12    38    39   ar
    13    30    31    1
    14    31    32    1
    15     2     3   am
    16     3     4    1
    17     4     5    1
    18     5     6    1
    19     6     9    1
    20     9    10   ar
    21    10    11    2
    22    10    12   ar
    23    12    19    1
    24    19    20    1
    25    20    21   ar
    26    21    22   ar
    27    22    23   ar
    28    23    24   ar
    29    24    25    1
    30    24    26   ar
    31    12    13   ar
    32    13    14   ar
    33    14    15   ar
    34    15    16   ar
    35    16    17   ar
    36    17    18   ar
    37     6     7    1
    38     7     8    1
    39    32    27    1
    40     8     3    1
    41    39    34   ar
    42    18     9   ar
    43    26    20   ar
    44    18    13   ar
