@<TRIPOS>MOLECULE
*****
 26 28 0 0 0
SMALL
GASTEIGER

@<TRIPOS>ATOM
      1 O          -2.0751  -20.3410   21.2104 O.2     1  UNL1       -0.2727
      2 C          -3.1238  -19.4812   21.8516 C.2     1  UNL1        0.2507
      3 N          -4.5437  -19.5473   21.3723 N.am    1  UNL1       -0.2751
      4 C          -4.9149  -20.4730   20.2520 C.3     1  UNL1        0.1108
      5 C          -6.3347  -20.5390   19.7728 C.3     1  UNL1        0.0942
      6 N          -7.3834  -19.6792   20.4139 N.3     1  UNL1       -0.2660
      7 C          -7.0123  -18.7535   21.5343 C.3     1  UNL1        0.0942
      8 C          -5.5924  -18.6875   22.0135 C.3     1  UNL1        0.1108
      9 C          -2.7527  -18.5555   22.9719 C.3     1  UNL1        0.2140
     10 N          -3.4981  -17.2672   23.1585 N.ar    1  UNL1       -0.2155
     11 C          -3.2986  -16.0103   22.3644 C.ar    1  UNL1        0.2037
     12 N          -4.2510  -14.9759   22.8870 N.ar    1  UNL1       -0.1391
     13 C          -5.0390  -15.5935   24.0040 C.ar    1  UNL1        0.4880
     14 N          -4.5736  -17.0096   24.1718 N.ar    1  UNL1       -0.0790
     15 N          -6.1051  -14.9143   24.8115 N.pl3   1  UNL1        0.1230
     16 O          -5.8033  -14.4358   26.2007 O.2     1  UNL1        0.0448
     17 O          -7.4731  -14.7136   24.2298 O.co2   1  UNL1       -0.5734
     18 C          -8.8033  -19.7453   19.9347 C.3     1  UNL1        0.0993
     19 C          -9.9114  -19.2188   20.7977 C.ar    1  UNL1       -0.0052
     20 C         -10.2423  -19.9005   22.0922 C.ar    1  UNL1       -0.0020
     21 C         -11.3505  -19.3740   22.9553 C.ar    1  UNL1        0.0120
     22 C         -12.1277  -18.1658   22.5238 C.ar    1  UNL1        0.0682
     23 CL        -13.2358  -17.6393   23.3868 Cl      1  UNL1       -0.0814
     24 C         -11.7968  -17.4841   21.2293 C.ar    1  UNL1        0.0679
     25 CL        -12.5740  -16.2759   20.7978 Cl      1  UNL1       -0.0814
     26 C         -10.6887  -18.0105   20.3663 C.ar    1  UNL1        0.0093
@<TRIPOS>UNITY_ATOM_ATTR
15 1
charge 1
17 1
charge -1
@<TRIPOS>BOND
     1     1     2    2
     2     2     9    1
     3     9    10    1
     4    10    11   ar
     5    11    12   ar
     6    12    13   ar
     7    13    15    1
     8    15    16    2
     9    15    17    1
    10    13    14   ar
    11     2     3   am
    12     3     4    1
    13     4     5    1
    14     5     6    1
    15     6    18    1
    16    18    19    1
    17    19    20   ar
    18    20    21   ar
    19    21    22   ar
    20    22    23    1
    21    22    24   ar
    22    24    25    1
    23    24    26   ar
    24     6     7    1
    25     7     8    1
    26    14    10   ar
    27     8     3    1
    28    26    19   ar
@<TRIPOS>MOLECULE
*****
 26 28 0 0 0
SMALL
GASTEIGER

@<TRIPOS>ATOM
      1 O           5.3815    0.1722   35.7217 O.2     1  UNL1       -0.2727
      2 C           4.3737    1.0296   35.0152 C.2     1  UNL1        0.2507
      3 N           3.8464    0.6161   33.6732 N.am    1  UNL1       -0.2751
      4 C           4.3268   -0.6548   33.0377 C.3     1  UNL1        0.1108
      5 C           3.7995   -1.0683   31.6958 C.3     1  UNL1        0.0942
      6 N           2.7917   -0.2109   30.9893 N.3     1  UNL1       -0.2660
      7 C           2.3112    1.0601   31.6248 C.3     1  UNL1        0.0942
      8 C           2.8386    1.4735   32.9667 C.3     1  UNL1        0.1108
      9 C           3.8933    2.3006   35.6507 C.3     1  UNL1        0.2140
     10 N           3.2909    2.2713   37.0242 N.ar    1  UNL1       -0.2155
     11 C           3.4287    3.3376   38.0702 C.ar    1  UNL1        0.2037
     12 N           2.6680    2.8960   39.2853 N.ar    1  UNL1       -0.1391
     13 C           2.0601    1.5567   38.9902 C.ar    1  UNL1        0.4880
     14 N           2.4451    1.1707   37.5928 N.ar    1  UNL1       -0.0790
     15 N           1.2156    0.7460   39.9278 N.pl3   1  UNL1        0.1230
     16 O           0.9628   -0.7053   39.6450 O.2     1  UNL1        0.0448
     17 O           0.6238    1.3863   41.1484 O.co2   1  UNL1       -0.5734
     18 C           2.2643   -0.6244   29.6473 C.3     1  UNL1        0.0993
     19 C           1.2706    0.2424   28.9323 C.ar    1  UNL1       -0.0052
     20 C          -0.1959   -0.0549   29.0366 C.ar    1  UNL1       -0.0020
     21 C          -1.1896    0.8120   28.3216 C.ar    1  UNL1        0.0120
     22 C          -0.7167    1.9761   27.5024 C.ar    1  UNL1        0.0682
     23 CL         -1.7104    2.8430   26.7874 Cl      1  UNL1       -0.0814
     24 C           0.7498    2.2734   27.3981 C.ar    1  UNL1        0.0679
     25 CL          1.2227    3.4375   26.5788 Cl      1  UNL1       -0.0814
     26 C           1.7435    1.4066   28.1130 C.ar    1  UNL1        0.0093
@<TRIPOS>UNITY_ATOM_ATTR
15 1
charge 1
17 1
charge -1
@<TRIPOS>BOND
     1     1     2    2
     2     2     9    1
     3     9    10    1
     4    10    11   ar
     5    11    12   ar
     6    12    13   ar
     7    13    15    1
     8    15    16    2
     9    15    17    1
    10    13    14   ar
    11     2     3   am
    12     3     4    1
    13     4     5    1
    14     5     6    1
    15     6    18    1
    16    18    19    1
    17    19    20   ar
    18    20    21   ar
    19    21    22   ar
    20    22    23    1
    21    22    24   ar
    22    24    25    1
    23    24    26   ar
    24     6     7    1
    25     7     8    1
    26    14    10   ar
    27     8     3    1
    28    26    19   ar
@<TRIPOS>MOLECULE
*****
 26 28 0 0 0
SMALL
GASTEIGER

@<TRIPOS>ATOM
      1 O          -4.5298  -21.1672   20.0941 O.2     1  UNL1       -0.2727
      2 C          -5.0053  -20.0939   21.0279 C.2     1  UNL1        0.2507
      3 N          -6.3892  -19.5334   20.8838 N.am    1  UNL1       -0.2751
      4 C          -7.2976  -20.0462   19.8059 C.3     1  UNL1        0.1108
      5 C          -8.6814  -19.4856   19.6619 C.3     1  UNL1        0.0942
      6 N          -9.1568  -18.4123   20.5957 N.3     1  UNL1       -0.2660
      7 C          -8.2484  -17.8996   21.6736 C.3     1  UNL1        0.0942
      8 C          -6.8646  -18.4601   21.8176 C.3     1  UNL1        0.1108
      9 C          -4.0969  -19.5812   22.1058 C.3     1  UNL1        0.2140
     10 N          -2.9569  -18.6711   21.7559 N.ar    1  UNL1       -0.2155
     11 C          -2.7694  -17.2652   22.2441 C.ar    1  UNL1        0.2037
     12 N          -1.5010  -16.7323   21.6463 N.ar    1  UNL1       -0.1391
     13 C          -0.9047  -17.8089   20.7887 C.ar    1  UNL1        0.4880
     14 N          -1.8045  -19.0071   20.8565 N.ar    1  UNL1       -0.0790
     15 N           0.3680  -17.7055   20.0017 N.pl3   1  UNL1        0.1230
     16 O           0.3233  -17.6878   18.5025 O.2     1  UNL1        0.0448
     17 O           1.6854  -17.6198   20.7137 O.co2   1  UNL1       -0.5734
     18 C         -10.5407  -17.8518   20.4516 C.3     1  UNL1        0.0993
     19 C         -11.5113  -17.9482   21.5911 C.ar    1  UNL1       -0.0052
     20 C         -12.9273  -17.4869   21.4113 C.ar    1  UNL1       -0.0020
     21 C         -13.8979  -17.5832   22.5510 C.ar    1  UNL1        0.0120
     22 C         -13.4526  -18.1409   23.8703 C.ar    1  UNL1        0.0682
     23 CL        -14.4232  -18.2372   25.0098 Cl      1  UNL1       -0.0814
     24 C         -12.0367  -18.6022   24.0501 C.ar    1  UNL1        0.0679
     25 CL        -11.5913  -19.1598   25.3694 Cl      1  UNL1       -0.0814
     26 C         -11.0660  -18.5058   22.9106 C.ar    1  UNL1        0.0093
@<TRIPOS>UNITY_ATOM_ATTR
15 1
charge 1
17 1
charge -1
@<TRIPOS>BOND
     1     1     2    2
     2     2     9    1
     3     9    10    1
     4    10    11   ar
     5    11    12   ar
     6    12    13   ar
     7    13    15    1
     8    15    16    2
     9    15    17    1
    10    13    14   ar
    11     2     3   am
    12     3     4    1
    13     4     5    1
    14     5     6    1
    15     6    18    1
    16    18    19    1
    17    19    20   ar
    18    20    21   ar
    19    21    22   ar
    20    22    23    1
    21    22    24   ar
    22    24    25    1
    23    24    26   ar
    24     6     7    1
    25     7     8    1
    26    14    10   ar
    27     8     3    1
    28    26    19   ar
@<TRIPOS>MOLECULE
*****
 26 28 0 0 0
SMALL
GASTEIGER

@<TRIPOS>ATOM
      1 O           3.5599    4.5548   34.6994 O.2     1  UNL1       -0.2727
      2 C           3.9033    3.0950   34.7302 C.2     1  UNL1        0.2507
      3 N           3.4857    2.2023   33.5994 N.am    1  UNL1       -0.2751
      4 C           2.7247    2.7694   32.4379 C.3     1  UNL1        0.1108
      5 C           2.3071    1.8766   31.3071 C.3     1  UNL1        0.0942
      6 N           2.6505    0.4168   31.3379 N.3     1  UNL1       -0.2660
      7 C           3.4116   -0.1503   32.4994 C.3     1  UNL1        0.0942
      8 C           3.8292    0.7425   33.6301 C.3     1  UNL1        0.1108
      9 C           4.6644    2.5279   35.8917 C.3     1  UNL1        0.2140
     10 N           3.9331    2.0925   37.1269 N.ar    1  UNL1       -0.2155
     11 C           4.4926    1.2433   38.2295 C.ar    1  UNL1        0.2037
     12 N           3.4192    1.0558   39.2604 N.ar    1  UNL1       -0.1391
     13 C           2.1963    1.7892   38.7949 C.ar    1  UNL1        0.4880
     14 N           2.5139    2.4299   37.4763 N.ar    1  UNL1       -0.0790
     15 N           0.8859    1.8681   39.5205 N.pl3   1  UNL1        0.1230
     16 O           0.8293    2.4387   40.9066 O.2     1  UNL1        0.0448
     17 O          -0.3679    1.3763   38.8602 O.co2   1  UNL1       -0.5734
     18 C           2.2329   -0.4759   30.2071 C.3     1  UNL1        0.0993
     19 C           1.5040    0.0979   29.0284 C.ar    1  UNL1       -0.0052
     20 C           0.0089    0.2154   29.0557 C.ar    1  UNL1       -0.0020
     21 C          -0.7200    0.7893   27.8769 C.ar    1  UNL1        0.0120
     22 C           0.0463    1.2456   26.6708 C.ar    1  UNL1        0.0682
     23 CL         -0.6826    1.8194   25.4921 Cl      1  UNL1       -0.0814
     24 C           1.5414    1.1281   26.6435 C.ar    1  UNL1        0.0679
     25 CL          2.3077    1.5844   25.4375 Cl      1  UNL1       -0.0814
     26 C           2.2703    0.5542   27.8222 C.ar    1  UNL1        0.0093
@<TRIPOS>UNITY_ATOM_ATTR
15 1
charge 1
17 1
charge -1
@<TRIPOS>BOND
     1     1     2    2
     2     2     9    1
     3     9    10    1
     4    10    11   ar
     5    11    12   ar
     6    12    13   ar
     7    13    15    1
     8    15    16    2
     9    15    17    1
    10    13    14   ar
    11     2     3   am
    12     3     4    1
    13     4     5    1
    14     5     6    1
    15     6    18    1
    16    18    19    1
    17    19    20   ar
    18    20    21   ar
    19    21    22   ar
    20    22    23    1
    21    22    24   ar
    22    24    25    1
    23    24    26   ar
    24     6     7    1
    25     7     8    1
    26    14    10   ar
    27     8     3    1
    28    26    19   ar
@<TRIPOS>MOLECULE
*****
 26 28 0 0 0
SMALL
GASTEIGER

@<TRIPOS>ATOM
      1 O           6.5950    2.0142   35.4651 O.2     1  UNL1       -0.2727
      2 C           5.5708    0.9484   35.2099 C.2     1  UNL1        0.2507
      3 N           5.1271    0.6552   33.8073 N.am    1  UNL1       -0.2751
      4 C           5.7075    1.4277   32.6600 C.3     1  UNL1        0.1108
      5 C           5.2637    1.1344   31.2575 C.3     1  UNL1        0.0942
      6 N           4.2395    0.0687   31.0023 N.3     1  UNL1       -0.2660
      7 C           3.6591   -0.7039   32.1496 C.3     1  UNL1        0.0942
      8 C           4.1029   -0.4106   33.5521 C.3     1  UNL1        0.1108
      9 C           4.9904    0.1759   36.3571 C.3     1  UNL1        0.2140
     10 N           4.2637    0.8954   37.4546 N.ar    1  UNL1       -0.2155
     11 C           4.8775    1.8348   38.4500 C.ar    1  UNL1        0.2037
     12 N           3.7889    2.3218   39.3600 N.ar    1  UNL1       -0.1391
     13 C           2.5024    1.6833   38.9268 C.ar    1  UNL1        0.4880
     14 N           2.7960    0.8018   37.7493 N.ar    1  UNL1       -0.0790
     15 N           1.1586    1.8901   39.5601 N.pl3   1  UNL1        0.1230
     16 O           1.0575    2.5288   40.9135 O.2     1  UNL1        0.0448
     17 O          -0.0844    1.4583   38.8399 O.co2   1  UNL1       -0.5734
     18 C           3.7958   -0.2246   29.5997 C.3     1  UNL1        0.0993
     19 C           2.5179    0.3635   29.0790 C.ar    1  UNL1       -0.0052
     20 C           2.5249    1.7143   28.4268 C.ar    1  UNL1       -0.0020
     21 C           1.2470    2.3023   27.9060 C.ar    1  UNL1        0.0120
     22 C          -0.0379    1.5396   28.0374 C.ar    1  UNL1        0.0682
     23 CL         -1.3157    2.1276   27.5167 Cl      1  UNL1       -0.0814
     24 C          -0.0449    0.1888   28.6896 C.ar    1  UNL1        0.0679
     25 CL         -1.3297   -0.5739   28.8211 Cl      1  UNL1       -0.0814
     26 C           1.2330   -0.3993   29.2104 C.ar    1  UNL1        0.0093
@<TRIPOS>UNITY_ATOM_ATTR
15 1
charge 1
17 1
charge -1
@<TRIPOS>BOND
     1     1     2    2
     2     2     9    1
     3     9    10    1
     4    10    11   ar
     5    11    12   ar
     6    12    13   ar
     7    13    15    1
     8    15    16    2
     9    15    17    1
    10    13    14   ar
    11     2     3   am
    12     3     4    1
    13     4     5    1
    14     5     6    1
    15     6    18    1
    16    18    19    1
    17    19    20   ar
    18    20    21   ar
    19    21    22   ar
    20    22    23    1
    21    22    24   ar
    22    24    25    1
    23    24    26   ar
    24     6     7    1
    25     7     8    1
    26    14    10   ar
    27     8     3    1
    28    26    19   ar
@<TRIPOS>MOLECULE
*****
 26 28 0 0 0
SMALL
GASTEIGER

@<TRIPOS>ATOM
      1 O           7.4965   -0.5564   33.2928 O.2     1  UNL1       -0.2727
      2 C           6.6557   -1.7698   33.0267 C.2     1  UNL1        0.2507
      3 N           7.2592   -2.9682   32.3562 N.am    1  UNL1       -0.2751
      4 C           8.7036   -2.9533   31.9518 C.3     1  UNL1        0.1108
      5 C           9.3071   -4.1517   31.2813 C.3     1  UNL1        0.0942
      6 N           8.4662   -5.3650   31.0152 N.3     1  UNL1       -0.2660
      7 C           7.0219   -5.3799   31.4196 C.3     1  UNL1        0.0942
      8 C           6.4184   -4.1815   32.0901 C.3     1  UNL1        0.1108
      9 C           5.2113   -1.7847   33.4311 C.3     1  UNL1        0.2140
     10 N           4.1995   -1.0229   32.6273 N.ar    1  UNL1       -0.2155
     11 C           3.6415    0.3279   32.9647 C.ar    1  UNL1        0.2037
     12 N           2.6651    0.7075   31.8910 N.ar    1  UNL1       -0.1391
     13 C           2.6198   -0.4089   30.8901 C.ar    1  UNL1        0.4880
     14 N           3.5680   -1.4783   31.3452 N.ar    1  UNL1       -0.0790
     15 N           1.7746   -0.4488   29.6516 N.pl3   1  UNL1        0.1230
     16 O           0.3124   -0.1238   29.7307 O.2     1  UNL1        0.0448
     17 O           2.3914   -0.8138   28.3339 O.co2   1  UNL1       -0.5734
     18 C           9.0698   -6.5634   30.3446 C.3     1  UNL1        0.0993
     19 C           8.8245   -6.8093   28.8854 C.ar    1  UNL1       -0.0052
     20 C           8.9596   -8.1941   28.3251 C.ar    1  UNL1       -0.0020
     21 C           8.7143   -8.4399   26.8658 C.ar    1  UNL1        0.0120
     22 C           8.3339   -7.3009   25.9669 C.ar    1  UNL1        0.0682
     23 CL          8.0887   -7.5467   24.5077 Cl      1  UNL1       -0.0814
     24 C           8.1988   -5.9161   26.5273 C.ar    1  UNL1        0.0679
     25 CL          7.8184   -4.7771   25.6285 Cl      1  UNL1       -0.0814
     26 C           8.4441   -5.6702   27.9865 C.ar    1  UNL1        0.0093
@<TRIPOS>UNITY_ATOM_ATTR
15 1
charge 1
17 1
charge -1
@<TRIPOS>BOND
     1     1     2    2
     2     2     9    1
     3     9    10    1
     4    10    11   ar
     5    11    12   ar
     6    12    13   ar
     7    13    15    1
     8    15    16    2
     9    15    17    1
    10    13    14   ar
    11     2     3   am
    12     3     4    1
    13     4     5    1
    14     5     6    1
    15     6    18    1
    16    18    19    1
    17    19    20   ar
    18    20    21   ar
    19    21    22   ar
    20    22    23    1
    21    22    24   ar
    22    24    25    1
    23    24    26   ar
    24     6     7    1
    25     7     8    1
    26    14    10   ar
    27     8     3    1
    28    26    19   ar
@<TRIPOS>MOLECULE
*****
 26 28 0 0 0
SMALL
GASTEIGER

@<TRIPOS>ATOM
      1 O           9.0806   -4.1053   24.7557 O.2     1  UNL1       -0.2727
      2 C           7.5915   -3.9248   24.7630 C.2     1  UNL1        0.2507
      3 N           6.8458   -3.7921   23.4682 N.am    1  UNL1       -0.2751
      4 C           7.5892   -3.8398   22.1663 C.3     1  UNL1        0.1108
      5 C           6.8435   -3.7070   20.8716 C.3     1  UNL1        0.0942
      6 N           5.3544   -3.5266   20.8789 N.3     1  UNL1       -0.2660
      7 C           4.6110   -3.4789   22.1808 C.3     1  UNL1        0.0942
      8 C           5.3567   -3.6117   23.4755 C.3     1  UNL1        0.1108
      9 C           6.8482   -3.8772   26.0649 C.3     1  UNL1        0.2140
     10 N           7.1932   -4.8410   27.1613 N.ar    1  UNL1       -0.2155
     11 C           7.4850   -6.3025   26.9909 C.ar    1  UNL1        0.2037
     12 N           7.7791   -6.8774   28.3449 N.ar    1  UNL1       -0.1391
     13 C           7.6691   -5.7711   29.3520 C.ar    1  UNL1        0.4880
     14 N           7.3069   -4.5126   28.6205 N.ar    1  UNL1       -0.0790
     15 N           7.8835   -5.9007   30.8308 N.pl3   1  UNL1        0.1230
     16 O           6.7239   -6.2024   31.7332 O.2     1  UNL1        0.0448
     17 O           9.2575   -5.7285   31.4075 O.co2   1  UNL1       -0.5734
     18 C           4.6086   -3.3938   19.5841 C.3     1  UNL1        0.0993
     19 C           3.8714   -2.1259   19.2698 C.ar    1  UNL1       -0.0052
     20 C           4.3925   -1.1976   18.2131 C.ar    1  UNL1       -0.0020
     21 C           3.6551    0.0704   17.8988 C.ar    1  UNL1        0.0120
     22 C           2.3968    0.4099   18.6413 C.ar    1  UNL1        0.0682
     23 CL          1.6596    1.6779   18.3270 Cl      1  UNL1       -0.0814
     24 C           1.8758   -0.5184   19.6980 C.ar    1  UNL1        0.0679
     25 CL          0.6175   -0.1788   20.4405 Cl      1  UNL1       -0.0814
     26 C           2.6130   -1.7863   20.0123 C.ar    1  UNL1        0.0093
@<TRIPOS>UNITY_ATOM_ATTR
15 1
charge 1
17 1
charge -1
@<TRIPOS>BOND
     1     1     2    2
     2     2     9    1
     3     9    10    1
     4    10    11   ar
     5    11    12   ar
     6    12    13   ar
     7    13    15    1
     8    15    16    2
     9    15    17    1
    10    13    14   ar
    11     2     3   am
    12     3     4    1
    13     4     5    1
    14     5     6    1
    15     6    18    1
    16    18    19    1
    17    19    20   ar
    18    20    21   ar
    19    21    22   ar
    20    22    23    1
    21    22    24   ar
    22    24    25    1
    23    24    26   ar
    24     6     7    1
    25     7     8    1
    26    14    10   ar
    27     8     3    1
    28    26    19   ar
@<TRIPOS>MOLECULE
*****
 26 28 0 0 0
SMALL
GASTEIGER

@<TRIPOS>ATOM
      1 O           3.8840   -0.4061   18.0904 O.2     1  UNL1       -0.2727
      2 C           2.8235   -0.5211   19.1450 C.2     1  UNL1        0.2507
      3 N           1.8718    0.6147   19.3786 N.am    1  UNL1       -0.2751
      4 C           1.9806    1.8653   18.5576 C.3     1  UNL1        0.1108
      5 C           1.0290    3.0009   18.7912 C.3     1  UNL1        0.0942
      6 N          -0.0315    2.8860   19.8458 N.3     1  UNL1       -0.2660
      7 C          -0.1403    1.6354   20.6668 C.3     1  UNL1        0.0942
      8 C           0.8113    0.4997   20.4332 C.3     1  UNL1        0.1108
      9 C           2.7147   -1.7717   19.9660 C.3     1  UNL1        0.2140
     10 N           3.8271   -2.7779   19.9511 N.ar    1  UNL1       -0.2155
     11 C           3.7770   -4.1383   19.3212 C.ar    1  UNL1        0.2037
     12 N           5.1039   -4.8015   19.5442 N.ar    1  UNL1       -0.1391
     13 C           5.9739   -3.8509   20.3120 C.ar    1  UNL1        0.4880
     14 N           5.1848   -2.6003   20.5635 N.ar    1  UNL1       -0.0790
     15 N           7.3852   -4.1062   20.7512 N.pl3   1  UNL1        0.1230
     16 O           7.6621   -5.0837   21.8547 O.2     1  UNL1        0.0448
     17 O           8.5198   -3.3839   20.0870 O.co2   1  UNL1       -0.5734
     18 C          -0.9831    4.0217   20.0794 C.3     1  UNL1        0.0993
     19 C          -2.4378    3.8609   19.7509 C.ar    1  UNL1       -0.0052
     20 C          -3.3983    3.3983   20.8061 C.ar    1  UNL1       -0.0020
     21 C          -4.8531    3.2375   20.4775 C.ar    1  UNL1        0.0120
     22 C          -5.3473    3.5393   19.0938 C.ar    1  UNL1        0.0682
     23 CL         -6.8020    3.3785   18.7653 Cl      1  UNL1       -0.0814
     24 C          -4.3868    4.0020   18.0386 C.ar    1  UNL1        0.0679
     25 CL         -4.8810    4.3038   16.6549 Cl      1  UNL1       -0.0814
     26 C          -2.9321    4.1628   18.3671 C.ar    1  UNL1        0.0093
@<TRIPOS>UNITY_ATOM_ATTR
15 1
charge 1
17 1
charge -1
@<TRIPOS>BOND
     1     1     2    2
     2     2     9    1
     3     9    10    1
     4    10    11   ar
     5    11    12   ar
     6    12    13   ar
     7    13    15    1
     8    15    16    2
     9    15    17    1
    10    13    14   ar
    11     2     3   am
    12     3     4    1
    13     4     5    1
    14     5     6    1
    15     6    18    1
    16    18    19    1
    17    19    20   ar
    18    20    21   ar
    19    21    22   ar
    20    22    23    1
    21    22    24   ar
    22    24    25    1
    23    24    26   ar
    24     6     7    1
    25     7     8    1
    26    14    10   ar
    27     8     3    1
    28    26    19   ar
@<TRIPOS>MOLECULE
*****
 26 28 0 0 0
SMALL
GASTEIGER

@<TRIPOS>ATOM
      1 O           3.2222   -1.3635   22.1175 O.2     1  UNL1       -0.2727
      2 C           2.8027   -1.0504   20.7118 C.2     1  UNL1        0.2507
      3 N           1.9943    0.1806   20.4269 N.am    1  UNL1       -0.2751
      4 C           1.6055    1.0985   21.5477 C.3     1  UNL1        0.1108
      5 C           0.7971    2.3295   21.2627 C.3     1  UNL1        0.0942
      6 N           0.3777    2.6426   19.8570 N.3     1  UNL1       -0.2660
      7 C           0.7665    1.7247   18.7362 C.3     1  UNL1        0.0942
      8 C           1.5749    0.4937   19.0212 C.3     1  UNL1        0.1108
      9 C           3.1916   -1.9683   19.5911 C.3     1  UNL1        0.2140
     10 N           4.4725   -1.7399   18.8446 N.ar    1  UNL1       -0.2155
     11 C           5.3215   -2.7988   18.2059 C.ar    1  UNL1        0.2037
     12 N           6.5031   -2.1258   17.5723 N.ar    1  UNL1       -0.1391
     13 C           6.3841   -0.6510   17.8196 C.ar    1  UNL1        0.4880
     14 N           5.1292   -0.4126   18.6059 N.ar    1  UNL1       -0.0790
     15 N           7.3504    0.4005   17.3610 N.pl3   1  UNL1        0.1230
     16 O           7.2291    0.9810   15.9832 O.2     1  UNL1        0.0448
     17 O           8.4382    0.8717   18.2802 O.co2   1  UNL1       -0.5734
     18 C          -0.4307    3.8736   19.5721 C.3     1  UNL1        0.0993
     19 C          -1.9145    3.7685   19.3790 C.ar    1  UNL1       -0.0052
     20 C          -2.7950    3.3811   20.5300 C.ar    1  UNL1       -0.0020
     21 C          -4.2789    3.2760   20.3369 C.ar    1  UNL1        0.0120
     22 C          -4.8821    3.5582   18.9929 C.ar    1  UNL1        0.0682
     23 CL         -6.3659    3.4530   18.7998 Cl      1  UNL1       -0.0814
     24 C          -4.0016    3.9455   17.8419 C.ar    1  UNL1        0.0679
     25 CL         -4.6049    4.2277   16.4979 Cl      1  UNL1       -0.0814
     26 C          -2.5179    4.0507   18.0350 C.ar    1  UNL1        0.0093
@<TRIPOS>UNITY_ATOM_ATTR
15 1
charge 1
17 1
charge -1
@<TRIPOS>BOND
     1     1     2    2
     2     2     9    1
     3     9    10    1
     4    10    11   ar
     5    11    12   ar
     6    12    13   ar
     7    13    15    1
     8    15    16    2
     9    15    17    1
    10    13    14   ar
    11     2     3   am
    12     3     4    1
    13     4     5    1
    14     5     6    1
    15     6    18    1
    16    18    19    1
    17    19    20   ar
    18    20    21   ar
    19    21    22   ar
    20    22    23    1
    21    22    24   ar
    22    24    25    1
    23    24    26   ar
    24     6     7    1
    25     7     8    1
    26    14    10   ar
    27     8     3    1
    28    26    19   ar
