@<TRIPOS>MOLECULE
*****
 32 36 0 0 0
SMALL
GASTEIGER

@<TRIPOS>ATOM
      1 C          -7.9217  -18.8186   20.1497 C.3     1  UNL1        0.0749
      2 C          -8.2670  -18.0067   21.3628 C.3     1  UNL1        0.0444
      3 C          -9.7029  -17.8055   21.7468 C.ar    1  UNL1       -0.0101
      4 C         -10.7937  -18.4162   20.9176 C.ar    1  UNL1       -0.0091
      5 C         -12.2297  -18.2149   21.3017 C.ar    1  UNL1       -0.0032
      6 C         -12.5749  -17.4031   22.5148 C.ar    1  UNL1        0.0010
      7 C         -11.4842  -16.7925   23.3439 C.ar    1  UNL1        0.0142
      8 C         -10.0482  -16.9937   22.9599 C.ar    1  UNL1        0.0436
      9 C         -10.4484  -19.2280   19.7045 C.3     1  UNL1        0.0954
     10 N          -9.0125  -19.4292   19.3206 N.3     1  UNL1       -0.2934
     11 H          -8.9058  -19.0601   18.3757 H       1  UNL1        0.1236
     12 N          -8.9575  -16.3830   23.7891 N.pl3   1  UNL1       -0.3049
     13 C          -7.8621  -15.5998   23.1281 C.3     1  UNL1        0.1079
     14 C          -6.7714  -14.9892   23.9572 C.3     1  UNL1        0.0903
     15 N          -6.7761  -15.1617   25.4473 N.3     1  UNL1       -0.2946
     16 C          -7.8714  -15.9449   26.1082 C.3     1  UNL1        0.0903
     17 C          -8.9621  -16.5555   25.2791 C.3     1  UNL1        0.1079
     18 H          -6.7979  -14.2257   25.8520 H       1  UNL1        0.1233
     19 C          -6.4857  -19.0198   19.7656 C.3     1  UNL1        0.0886
     20 N          -5.5378  -19.6765   20.7248 N.3     1  UNL1       -0.2679
     21 C          -4.5352  -18.8491   21.4734 C.3     1  UNL1        0.0978
     22 C          -4.7796  -18.4927   22.9098 C.3     1  UNL1        0.0224
     23 C          -3.7771  -17.6653   23.6583 C.3     1  UNL1        0.0065
     24 C          -2.5302  -17.1942   22.9704 C.3     1  UNL1        0.0277
     25 C          -2.2857  -17.5505   21.5339 C.ar    1  UNL1       -0.0073
     26 C          -1.0388  -17.0794   20.8461 C.ar    1  UNL1       -0.0015
     27 C          -0.7944  -17.4357   19.4097 C.ar    1  UNL1        0.0203
     28 C          -1.7970  -18.2631   18.6612 C.ar    1  UNL1        0.0985
     29 N          -3.0439  -18.7342   19.3490 N.ar    1  UNL1       -0.2471
     30 C          -3.2883  -18.3779   20.7854 C.ar    1  UNL1        0.0695
     31 C          -6.2487  -22.0398   19.9127 C.3     1  UNL1        0.0188
     32 C          -5.5923  -21.1607   20.9356 C.3     1  UNL1        0.0725
@<TRIPOS>BOND
     1    31    32    1
     2    32    20    1
     3    20    19    1
     4     1    19    1
     5     1     2    1
     6     2     3    1
     7     3     4   ar
     8     4     5   ar
     9     5     6   ar
    10     6     7   ar
    11     7     8   ar
    12     8    12    1
    13    12    13    1
    14    13    14    1
    15    14    15    1
    16    15    16    1
    17    16    17    1
    18     4     9    1
    19     9    10    1
    20    21    20    1
    21    21    22    1
    22    22    23    1
    23    23    24    1
    24    24    25    1
    25    25    26   ar
    26    26    27   ar
    27    27    28   ar
    28    28    29   ar
    29    29    30   ar
    30    10     1    1
    31    30    21    1
    32     8     3   ar
    33    17    12    1
    34    30    25   ar
    35    15    18    1
    36    10    11    1
@<TRIPOS>MOLECULE
*****
 32 36 0 0 0
SMALL
GASTEIGER

@<TRIPOS>ATOM
      1 C          -7.0001  -19.7364   21.4100 C.3     1  UNL1        0.0749
      2 C          -6.3453  -18.6799   22.2495 C.3     1  UNL1        0.0444
      3 C          -4.8503  -18.5600   22.2725 C.ar    1  UNL1       -0.0101
      4 C          -4.0101  -19.4966   21.4559 C.ar    1  UNL1       -0.0091
      5 C          -2.5151  -19.3767   21.4789 C.ar    1  UNL1       -0.0032
      6 C          -1.8603  -18.3201   22.3185 C.ar    1  UNL1        0.0010
      7 C          -2.7005  -17.3835   23.1351 C.ar    1  UNL1        0.0142
      8 C          -4.1954  -17.5034   23.1121 C.ar    1  UNL1        0.0436
      9 C          -4.6649  -20.5532   20.6164 C.3     1  UNL1        0.0954
     10 N          -6.1599  -20.6731   20.5934 N.3     1  UNL1       -0.2934
     11 H          -6.3844  -21.6179   20.9053 H       1  UNL1        0.1236
     12 N          -5.0356  -16.5668   23.9286 N.pl3   1  UNL1       -0.3049
     13 C          -6.2074  -15.8705   23.3021 C.3     1  UNL1        0.1079
     14 C          -7.0476  -14.9339   24.1187 C.3     1  UNL1        0.0903
     15 N          -6.7160  -14.6935   25.5618 N.3     1  UNL1       -0.2946
     16 C          -5.5444  -15.3897   26.1882 C.3     1  UNL1        0.0903
     17 C          -4.7042  -16.3263   25.3716 C.3     1  UNL1        0.1079
     18 H          -7.5396  -14.9596   26.1014 H       1  UNL1        0.1233
     19 C          -8.4952  -19.8564   21.3869 C.3     1  UNL1        0.0886
     20 N          -9.2826  -19.2104   20.2858 N.3     1  UNL1       -0.2679
     21 C         -10.4321  -18.3055   20.6170 C.3     1  UNL1        0.0978
     22 C         -10.8865  -17.2763   19.6249 C.3     1  UNL1        0.0224
     23 C         -12.0361  -16.3714   19.9562 C.3     1  UNL1        0.0065
     24 C         -12.7313  -16.4957   21.2795 C.3     1  UNL1        0.0277
     25 C         -12.2769  -17.5250   22.2716 C.ar    1  UNL1       -0.0073
     26 C         -12.9721  -17.6493   23.5949 C.ar    1  UNL1       -0.0015
     27 C         -12.5177  -18.6785   24.5870 C.ar    1  UNL1        0.0203
     28 C         -11.3682  -19.5834   24.2558 C.ar    1  UNL1        0.0985
     29 N         -10.6730  -19.4590   22.9325 N.ar    1  UNL1       -0.2471
     30 C         -11.1273  -18.4298   21.9404 C.ar    1  UNL1        0.0695
     31 C          -9.0812  -20.8441   18.2757 C.3     1  UNL1        0.0188
     32 C          -8.9204  -19.4692   18.8533 C.3     1  UNL1        0.0725
@<TRIPOS>BOND
     1    31    32    1
     2    32    20    1
     3    20    19    1
     4     1    19    1
     5     1     2    1
     6     2     3    1
     7     3     4   ar
     8     4     5   ar
     9     5     6   ar
    10     6     7   ar
    11     7     8   ar
    12     8    12    1
    13    12    13    1
    14    13    14    1
    15    14    15    1
    16    15    16    1
    17    16    17    1
    18     4     9    1
    19     9    10    1
    20    21    20    1
    21    21    22    1
    22    22    23    1
    23    23    24    1
    24    24    25    1
    25    25    26   ar
    26    26    27   ar
    27    27    28   ar
    28    28    29   ar
    29    29    30   ar
    30    10     1    1
    31    30    21    1
    32     8     3   ar
    33    17    12    1
    34    30    25   ar
    35    15    18    1
    36    10    11    1
@<TRIPOS>MOLECULE
*****
 32 36 0 0 0
SMALL
GASTEIGER

@<TRIPOS>ATOM
      1 C          -6.5212  -16.6203   23.3794 C.3     1  UNL1        0.0749
      2 C          -6.8110  -17.6434   22.3215 C.3     1  UNL1        0.0444
      3 C          -5.7199  -18.5521   21.8381 C.ar    1  UNL1       -0.0101
      4 C          -4.3390  -18.4377   22.4125 C.ar    1  UNL1       -0.0091
      5 C          -3.2479  -19.3464   21.9291 C.ar    1  UNL1       -0.0032
      6 C          -3.5377  -20.3696   20.8712 C.ar    1  UNL1        0.0010
      7 C          -4.9186  -20.4840   20.2967 C.ar    1  UNL1        0.0142
      8 C          -6.0097  -19.5753   20.7801 C.ar    1  UNL1        0.0436
      9 C          -4.0492  -17.4145   23.4704 C.3     1  UNL1        0.0954
     10 N          -5.1403  -16.5058   23.9538 N.3     1  UNL1       -0.2934
     11 H          -4.8270  -15.5509   23.7795 H       1  UNL1        0.1236
     12 N          -7.3906  -19.6898   20.2057 N.pl3   1  UNL1       -0.3049
     13 C          -7.6171  -20.4762   18.9486 C.3     1  UNL1        0.1079
     14 C          -8.9980  -20.5907   18.3741 C.3     1  UNL1        0.0903
     15 N         -10.1524  -19.9187   19.0567 N.3     1  UNL1       -0.2946
     16 C          -9.9258  -19.1323   20.3138 C.3     1  UNL1        0.0903
     17 C          -8.5449  -19.0178   20.8883 C.3     1  UNL1        0.1079
     18 H         -10.8261  -20.6499   19.2843 H       1  UNL1        0.1233
     19 C          -7.6123  -15.7115   23.8628 C.3     1  UNL1        0.0886
     20 N          -8.5425  -16.1675   24.9476 N.3     1  UNL1       -0.2679
     21 C          -9.4747  -17.3168   24.7022 C.3     1  UNL1        0.0978
     22 C          -9.3402  -18.5763   25.5056 C.3     1  UNL1        0.0224
     23 C         -10.2723  -19.7256   25.2603 C.3     1  UNL1        0.0065
     24 C         -11.3390  -19.6154   24.2114 C.3     1  UNL1        0.0277
     25 C         -11.4735  -18.3559   23.4079 C.ar    1  UNL1       -0.0073
     26 C         -12.5401  -18.2457   22.3590 C.ar    1  UNL1       -0.0015
     27 C         -12.6746  -16.9862   21.5555 C.ar    1  UNL1        0.0203
     28 C         -11.7424  -15.8369   21.8009 C.ar    1  UNL1        0.0985
     29 N         -10.6758  -15.9471   22.8498 N.ar    1  UNL1       -0.2471
     30 C         -10.5413  -17.2066   23.6533 C.ar    1  UNL1        0.0695
     31 C          -7.4573  -15.7651   27.2736 C.3     1  UNL1        0.0188
     32 C          -8.5406  -15.4742   26.2778 C.3     1  UNL1        0.0725
@<TRIPOS>BOND
     1    31    32    1
     2    32    20    1
     3    20    19    1
     4     1    19    1
     5     1     2    1
     6     2     3    1
     7     3     4   ar
     8     4     5   ar
     9     5     6   ar
    10     6     7   ar
    11     7     8   ar
    12     8    12    1
    13    12    13    1
    14    13    14    1
    15    14    15    1
    16    15    16    1
    17    16    17    1
    18     4     9    1
    19     9    10    1
    20    21    20    1
    21    21    22    1
    22    22    23    1
    23    23    24    1
    24    24    25    1
    25    25    26   ar
    26    26    27   ar
    27    27    28   ar
    28    28    29   ar
    29    29    30   ar
    30    10     1    1
    31    30    21    1
    32     8     3   ar
    33    17    12    1
    34    30    25   ar
    35    15    18    1
    36    10    11    1
@<TRIPOS>MOLECULE
*****
 32 36 0 0 0
SMALL
GASTEIGER

@<TRIPOS>ATOM
      1 C          -7.2174  -19.5871   21.3377 C.3     1  UNL1        0.0749
      2 C          -6.4990  -18.5886   22.1962 C.3     1  UNL1        0.0444
      3 C          -4.9998  -18.5412   22.1968 C.ar    1  UNL1       -0.0101
      4 C          -4.2189  -19.4922   21.3389 C.ar    1  UNL1       -0.0091
      5 C          -2.7196  -19.4447   21.3395 C.ar    1  UNL1       -0.0032
      6 C          -2.0013  -18.4462   22.1980 C.ar    1  UNL1        0.0010
      7 C          -2.7821  -17.4952   23.0558 C.ar    1  UNL1        0.0142
      8 C          -4.2813  -17.5427   23.0552 C.ar    1  UNL1        0.0436
      9 C          -4.9373  -20.4906   20.4805 C.3     1  UNL1        0.0954
     10 N          -6.4365  -20.5381   20.4799 N.3     1  UNL1       -0.2934
     11 H          -6.7014  -21.4800   20.7681 H       1  UNL1        0.1236
     12 N          -5.0621  -16.5917   23.9131 N.pl3   1  UNL1       -0.3049
     13 C          -4.6613  -16.3677   25.3411 C.3     1  UNL1        0.1079
     14 C          -5.4421  -15.4167   26.1990 C.3     1  UNL1        0.0903
     15 N          -6.6238  -14.6896   25.6287 N.3     1  UNL1       -0.2946
     16 C          -7.0246  -14.9136   24.2008 C.3     1  UNL1        0.0903
     17 C          -6.2437  -15.8646   23.3429 C.3     1  UNL1        0.1079
     18 H          -6.4320  -13.6928   25.7279 H       1  UNL1        0.1233
     19 C          -8.7167  -19.6346   21.3371 C.3     1  UNL1        0.0886
     20 N          -9.4661  -19.6825   22.6356 N.3     1  UNL1       -0.2679
     21 C         -10.7301  -18.8922   22.8017 C.3     1  UNL1        0.0978
     22 C         -11.5858  -19.0929   24.0171 C.3     1  UNL1        0.0224
     23 C         -12.8499  -18.3025   24.1832 C.3     1  UNL1        0.0065
     24 C         -13.2582  -17.3116   23.1338 C.3     1  UNL1        0.0277
     25 C         -12.4025  -17.1109   21.9183 C.ar    1  UNL1       -0.0073
     26 C         -12.8108  -16.1200   20.8689 C.ar    1  UNL1       -0.0015
     27 C         -11.9551  -15.9194   19.6534 C.ar    1  UNL1        0.0203
     28 C         -10.6910  -16.7097   19.4873 C.ar    1  UNL1        0.0985
     29 N         -10.2827  -17.7006   20.5367 N.ar    1  UNL1       -0.2471
     30 C         -11.1384  -17.9013   21.7522 C.ar    1  UNL1        0.0695
     31 C          -9.8883  -20.9854   24.8434 C.3     1  UNL1        0.0188
     32 C          -8.9514  -20.5209   23.7681 C.3     1  UNL1        0.0725
@<TRIPOS>BOND
     1    31    32    1
     2    32    20    1
     3    20    19    1
     4     1    19    1
     5     1     2    1
     6     2     3    1
     7     3     4   ar
     8     4     5   ar
     9     5     6   ar
    10     6     7   ar
    11     7     8   ar
    12     8    12    1
    13    12    13    1
    14    13    14    1
    15    14    15    1
    16    15    16    1
    17    16    17    1
    18     4     9    1
    19     9    10    1
    20    21    20    1
    21    21    22    1
    22    22    23    1
    23    23    24    1
    24    24    25    1
    25    25    26   ar
    26    26    27   ar
    27    27    28   ar
    28    28    29   ar
    29    29    30   ar
    30    10     1    1
    31    30    21    1
    32     8     3   ar
    33    17    12    1
    34    30    25   ar
    35    15    18    1
    36    10    11    1
@<TRIPOS>MOLECULE
*****
 32 36 0 0 0
SMALL
GASTEIGER

@<TRIPOS>ATOM
      1 C          -5.6011  -16.8239   23.5060 C.3     1  UNL1        0.0749
      2 C          -6.2592  -17.8183   22.5961 C.3     1  UNL1        0.0444
      3 C          -5.4232  -18.7903   21.8173 C.ar    1  UNL1       -0.0101
      4 C          -3.9292  -18.7678   21.9485 C.ar    1  UNL1       -0.0091
      5 C          -3.0932  -19.7398   21.1697 C.ar    1  UNL1       -0.0032
      6 C          -3.7513  -20.7342   20.2598 C.ar    1  UNL1        0.0010
      7 C          -5.2454  -20.7567   20.1286 C.ar    1  UNL1        0.0142
      8 C          -6.0814  -19.7848   20.9074 C.ar    1  UNL1        0.0436
      9 C          -3.2710  -17.7733   22.8584 C.3     1  UNL1        0.0954
     10 N          -4.1070  -16.8014   23.6371 N.3     1  UNL1       -0.2934
     11 H          -3.8016  -15.8668   23.3656 H       1  UNL1        0.1236
     12 N          -7.5755  -19.8072   20.7763 N.pl3   1  UNL1       -0.3049
     13 C          -8.2131  -19.6234   19.4310 C.3     1  UNL1        0.1079
     14 C          -9.7072  -19.6459   19.2999 C.3     1  UNL1        0.0903
     15 N         -10.5636  -19.8522   20.5140 N.3     1  UNL1       -0.2946
     16 C          -9.9260  -20.0361   21.8592 C.3     1  UNL1        0.0903
     17 C          -8.4319  -20.0136   21.9903 C.3     1  UNL1        0.1079
     18 H         -11.1270  -20.6843   20.3390 H       1  UNL1        0.1233
     19 C          -6.4370  -15.8519   24.2848 C.3     1  UNL1        0.0886
     20 N          -7.9085  -16.0919   24.4494 N.3     1  UNL1       -0.2679
     21 C          -8.8254  -15.9670   23.2688 C.3     1  UNL1        0.0978
     22 C          -8.4378  -15.1021   22.1063 C.3     1  UNL1        0.0224
     23 C          -9.3547  -14.9773   20.9257 C.3     1  UNL1        0.0065
     24 C         -10.6592  -15.7174   20.9077 C.3     1  UNL1        0.0277
     25 C         -11.0469  -16.5825   22.0703 C.ar    1  UNL1       -0.0073
     26 C         -12.3514  -17.3226   22.0523 C.ar    1  UNL1       -0.0015
     27 C         -12.7390  -18.1876   23.2149 C.ar    1  UNL1        0.0203
     28 C         -11.8221  -18.3124   24.3954 C.ar    1  UNL1        0.0985
     29 N         -10.5176  -17.5722   24.4134 N.ar    1  UNL1       -0.2471
     30 C         -10.1300  -16.7073   23.2509 C.ar    1  UNL1        0.0695
     31 C          -8.0547  -15.6787   27.0102 C.3     1  UNL1        0.0188
     32 C          -8.4631  -16.4566   25.7945 C.3     1  UNL1        0.0725
@<TRIPOS>BOND
     1    31    32    1
     2    32    20    1
     3    20    19    1
     4     1    19    1
     5     1     2    1
     6     2     3    1
     7     3     4   ar
     8     4     5   ar
     9     5     6   ar
    10     6     7   ar
    11     7     8   ar
    12     8    12    1
    13    12    13    1
    14    13    14    1
    15    14    15    1
    16    15    16    1
    17    16    17    1
    18     4     9    1
    19     9    10    1
    20    21    20    1
    21    21    22    1
    22    22    23    1
    23    23    24    1
    24    24    25    1
    25    25    26   ar
    26    26    27   ar
    27    27    28   ar
    28    28    29   ar
    29    29    30   ar
    30    10     1    1
    31    30    21    1
    32     8     3   ar
    33    17    12    1
    34    30    25   ar
    35    15    18    1
    36    10    11    1
@<TRIPOS>MOLECULE
*****
 32 36 0 0 0
SMALL
GASTEIGER

@<TRIPOS>ATOM
      1 C          -5.9937  -19.9342   21.6693 C.3     1  UNL1        0.0749
      2 C          -5.6521  -18.6627   22.3879 C.3     1  UNL1        0.0444
      3 C          -4.3477  -17.9742   22.1151 C.ar    1  UNL1       -0.0101
      4 C          -3.3849  -18.5572   21.1236 C.ar    1  UNL1       -0.0091
      5 C          -2.0804  -17.8687   20.8507 C.ar    1  UNL1       -0.0032
      6 C          -1.7388  -16.5972   21.5694 C.ar    1  UNL1        0.0010
      7 C          -2.7016  -16.0142   22.5609 C.ar    1  UNL1        0.0142
      8 C          -4.0060  -16.7026   22.8337 C.ar    1  UNL1        0.0436
      9 C          -3.7265  -19.8288   20.4049 C.3     1  UNL1        0.0954
     10 N          -5.0309  -20.5172   20.6778 N.3     1  UNL1       -0.2934
     11 H          -4.8052  -21.4570   21.0040 H       1  UNL1        0.1236
     12 N          -4.9688  -16.1196   23.8253 N.pl3   1  UNL1       -0.3049
     13 C          -6.2344  -15.4703   23.3491 C.3     1  UNL1        0.1079
     14 C          -7.1972  -14.8872   24.3406 C.3     1  UNL1        0.0903
     15 N          -6.8944  -14.9536   25.8083 N.3     1  UNL1       -0.2946
     16 C          -5.6289  -15.6029   26.2844 C.3     1  UNL1        0.0903
     17 C          -4.6661  -16.1859   25.2929 C.3     1  UNL1        0.1079
     18 H          -7.6662  -15.4569   26.2457 H       1  UNL1        0.1233
     19 C          -7.2981  -20.6228   21.9421 C.3     1  UNL1        0.0886
     20 N          -8.5802  -20.0261   21.4419 N.3     1  UNL1       -0.2679
     21 C          -9.6031  -19.5219   22.4163 C.3     1  UNL1        0.0978
     22 C          -9.7159  -20.1461   23.7755 C.3     1  UNL1        0.0224
     23 C         -10.7388  -19.6419   24.7499 C.3     1  UNL1        0.0065
     24 C         -11.6491  -18.5135   24.3650 C.3     1  UNL1        0.0277
     25 C         -11.5363  -17.8892   23.0057 C.ar    1  UNL1       -0.0073
     26 C         -12.4465  -16.7608   22.6208 C.ar    1  UNL1       -0.0015
     27 C         -12.3338  -16.1366   21.2616 C.ar    1  UNL1        0.0203
     28 C         -11.3108  -16.6408   20.2872 C.ar    1  UNL1        0.0985
     29 N         -10.4006  -17.7692   20.6721 N.ar    1  UNL1       -0.2471
     30 C         -10.5134  -18.3934   22.0313 C.ar    1  UNL1        0.0695
     31 C          -7.7720  -19.4159   19.0493 C.3     1  UNL1        0.0188
     32 C          -8.8393  -19.9335   19.9673 C.3     1  UNL1        0.0725
@<TRIPOS>BOND
     1    31    32    1
     2    32    20    1
     3    20    19    1
     4     1    19    1
     5     1     2    1
     6     2     3    1
     7     3     4   ar
     8     4     5   ar
     9     5     6   ar
    10     6     7   ar
    11     7     8   ar
    12     8    12    1
    13    12    13    1
    14    13    14    1
    15    14    15    1
    16    15    16    1
    17    16    17    1
    18     4     9    1
    19     9    10    1
    20    21    20    1
    21    21    22    1
    22    22    23    1
    23    23    24    1
    24    24    25    1
    25    25    26   ar
    26    26    27   ar
    27    27    28   ar
    28    28    29   ar
    29    29    30   ar
    30    10     1    1
    31    30    21    1
    32     8     3   ar
    33    17    12    1
    34    30    25   ar
    35    15    18    1
    36    10    11    1
@<TRIPOS>MOLECULE
*****
 32 36 0 0 0
SMALL
GASTEIGER

@<TRIPOS>ATOM
      1 C         -14.3157   -5.7956   17.0946 C.3     1  UNL1        0.0749
      2 C         -13.2584   -4.7708   17.3808 C.3     1  UNL1        0.0444
      3 C         -11.9516   -5.1904   17.9859 C.ar    1  UNL1       -0.0101
      4 C         -11.7021   -6.6347   18.3048 C.ar    1  UNL1       -0.0091
      5 C         -10.3952   -7.0542   18.9099 C.ar    1  UNL1       -0.0032
      6 C          -9.3379   -6.0294   19.1961 C.ar    1  UNL1        0.0010
      7 C          -9.5874   -4.5851   18.8772 C.ar    1  UNL1        0.0142
      8 C         -10.8942   -4.1656   18.2722 C.ar    1  UNL1        0.0436
      9 C         -12.7593   -7.6595   18.0186 C.3     1  UNL1        0.0954
     10 N         -14.0661   -7.2399   17.4135 N.3     1  UNL1       -0.2934
     11 H         -14.7976   -7.5287   18.0631 H       1  UNL1        0.1236
     12 N         -11.1438   -2.7213   17.9533 N.pl3   1  UNL1       -0.3049
     13 C         -10.5296   -2.1061   16.7307 C.3     1  UNL1        0.1079
     14 C         -10.7791   -0.6618   16.4119 C.3     1  UNL1        0.0903
     15 N         -11.6428    0.1674   17.3155 N.3     1  UNL1       -0.2946
     16 C         -12.2570   -0.4477   18.5379 C.3     1  UNL1        0.0903
     17 C         -12.0074   -1.8921   18.8568 C.3     1  UNL1        0.1079
     18 H         -12.4116    0.5203   16.7456 H       1  UNL1        0.1233
     19 C         -15.6226   -5.3761   16.4895 C.3     1  UNL1        0.0886
     20 N         -16.8795   -5.4318   17.3063 N.3     1  UNL1       -0.2679
     21 C         -17.8482   -6.5611   17.1159 C.3     1  UNL1        0.0978
     22 C         -19.0084   -6.4040   16.1783 C.3     1  UNL1        0.0224
     23 C         -19.9771   -7.5333   15.9880 C.3     1  UNL1        0.0065
     24 C         -19.7856   -8.8197   16.7353 C.3     1  UNL1        0.0277
     25 C         -18.6253   -8.9768   17.6730 C.ar    1  UNL1       -0.0073
     26 C         -18.4338  -10.2632   18.4203 C.ar    1  UNL1       -0.0015
     27 C         -17.2736  -10.4203   19.3579 C.ar    1  UNL1        0.0203
     28 C         -16.3049   -9.2910   19.5482 C.ar    1  UNL1        0.0985
     29 N         -16.4964   -8.0046   18.8009 N.ar    1  UNL1       -0.2471
     30 C         -17.6566   -7.8475   17.8633 C.ar    1  UNL1        0.0695
     31 C         -16.7107   -4.5191   19.7329 C.3     1  UNL1        0.0188
     32 C         -17.1677   -4.3581   18.3134 C.3     1  UNL1        0.0725
@<TRIPOS>BOND
     1    31    32    1
     2    32    20    1
     3    20    19    1
     4     1    19    1
     5     1     2    1
     6     2     3    1
     7     3     4   ar
     8     4     5   ar
     9     5     6   ar
    10     6     7   ar
    11     7     8   ar
    12     8    12    1
    13    12    13    1
    14    13    14    1
    15    14    15    1
    16    15    16    1
    17    16    17    1
    18     4     9    1
    19     9    10    1
    20    21    20    1
    21    21    22    1
    22    22    23    1
    23    23    24    1
    24    24    25    1
    25    25    26   ar
    26    26    27   ar
    27    27    28   ar
    28    28    29   ar
    29    29    30   ar
    30    10     1    1
    31    30    21    1
    32     8     3   ar
    33    17    12    1
    34    30    25   ar
    35    15    18    1
    36    10    11    1
@<TRIPOS>MOLECULE
*****
 32 36 0 0 0
SMALL
GASTEIGER

@<TRIPOS>ATOM
      1 C          -6.0804  -19.9606   21.8704 C.3     1  UNL1        0.0749
      2 C          -5.7585  -18.6608   22.5462 C.3     1  UNL1        0.0444
      3 C          -4.4828  -17.9420   22.2209 C.ar    1  UNL1       -0.0101
      4 C          -3.5289  -18.5231   21.2196 C.ar    1  UNL1       -0.0091
      5 C          -2.2532  -17.8043   20.8942 C.ar    1  UNL1       -0.0032
      6 C          -1.9313  -16.5045   21.5701 C.ar    1  UNL1        0.0010
      7 C          -2.8851  -15.9234   22.5714 C.ar    1  UNL1        0.0142
      8 C          -4.1609  -16.6422   22.8968 C.ar    1  UNL1        0.0436
      9 C          -3.8508  -19.8229   20.5437 C.3     1  UNL1        0.0954
     10 N          -5.1265  -20.5416   20.8691 N.3     1  UNL1       -0.2934
     11 H          -4.8645  -21.4652   21.2136 H       1  UNL1        0.1236
     12 N          -5.1147  -16.0611   23.8981 N.pl3   1  UNL1       -0.3049
     13 C          -4.7786  -16.0918   25.3596 C.3     1  UNL1        0.1079
     14 C          -5.7324  -15.5108   26.3609 C.3     1  UNL1        0.0903
     15 N          -7.0224  -14.8990   25.9006 N.3     1  UNL1       -0.2946
     16 C          -7.3584  -14.8683   24.4391 C.3     1  UNL1        0.0903
     17 C          -6.4046  -15.4494   23.4378 C.3     1  UNL1        0.1079
     18 H          -7.0208  -13.9312   26.2228 H       1  UNL1        0.1233
     19 C          -7.3561  -20.6794   22.1957 C.3     1  UNL1        0.0886
     20 N          -8.5858  -19.8993   22.5555 N.3     1  UNL1       -0.2679
     21 C          -9.4474  -19.3169   21.4746 C.3     1  UNL1        0.0978
     22 C          -9.4224  -19.9071   20.0958 C.3     1  UNL1        0.0224
     23 C         -10.2840  -19.3246   19.0149 C.3     1  UNL1        0.0065
     24 C         -11.1706  -18.1519   19.3128 C.3     1  UNL1        0.0277
     25 C         -11.1956  -17.5616   20.6916 C.ar    1  UNL1       -0.0073
     26 C         -12.0822  -16.3890   20.9894 C.ar    1  UNL1       -0.0015
     27 C         -12.1071  -15.7988   22.3682 C.ar    1  UNL1        0.0203
     28 C         -11.2455  -16.3812   23.4491 C.ar    1  UNL1        0.0985
     29 N         -10.3589  -17.5539   23.1512 N.ar    1  UNL1       -0.2471
     30 C         -10.3340  -18.1441   21.7725 C.ar    1  UNL1        0.0695
     31 C          -9.8543  -20.6859   24.6820 C.3     1  UNL1        0.0188
     32 C          -8.9538  -19.7017   23.9962 C.3     1  UNL1        0.0725
@<TRIPOS>BOND
     1    31    32    1
     2    32    20    1
     3    20    19    1
     4     1    19    1
     5     1     2    1
     6     2     3    1
     7     3     4   ar
     8     4     5   ar
     9     5     6   ar
    10     6     7   ar
    11     7     8   ar
    12     8    12    1
    13    12    13    1
    14    13    14    1
    15    14    15    1
    16    15    16    1
    17    16    17    1
    18     4     9    1
    19     9    10    1
    20    21    20    1
    21    21    22    1
    22    22    23    1
    23    23    24    1
    24    24    25    1
    25    25    26   ar
    26    26    27   ar
    27    27    28   ar
    28    28    29   ar
    29    29    30   ar
    30    10     1    1
    31    30    21    1
    32     8     3   ar
    33    17    12    1
    34    30    25   ar
    35    15    18    1
    36    10    11    1
@<TRIPOS>MOLECULE
*****
 32 36 0 0 0
SMALL
GASTEIGER

@<TRIPOS>ATOM
      1 C           4.1885   -1.7679   24.1957 C.3     1  UNL1        0.0749
      2 C           3.6233   -1.2651   22.9004 C.3     1  UNL1        0.0444
      3 C           3.9180   -1.9912   21.6214 C.ar    1  UNL1       -0.0101
      4 C           4.7779   -3.2201   21.6377 C.ar    1  UNL1       -0.0091
      5 C           5.0726   -3.9463   20.3586 C.ar    1  UNL1       -0.0032
      6 C           4.5075   -3.4434   19.0634 C.ar    1  UNL1        0.0010
      7 C           3.6475   -2.2145   19.0471 C.ar    1  UNL1        0.0142
      8 C           3.3528   -1.4884   20.3261 C.ar    1  UNL1        0.0436
      9 C           5.3431   -3.7229   22.9329 C.3     1  UNL1        0.0954
     10 N           5.0484   -2.9968   24.2119 N.3     1  UNL1       -0.2934
     11 H           5.9471   -2.7221   24.6084 H       1  UNL1        0.1236
     12 N           2.4929   -0.2594   20.3099 N.pl3   1  UNL1       -0.3049
     13 C           3.1209    1.0933   20.1492 C.3     1  UNL1        0.1079
     14 C           2.2610    2.3222   20.1329 C.3     1  UNL1        0.0903
     15 N           0.7731    2.1984   20.2773 N.3     1  UNL1       -0.2946
     16 C           0.1451    0.8457   20.4380 C.3     1  UNL1        0.0903
     17 C           1.0050   -0.3832   20.4543 C.3     1  UNL1        0.1079
     18 H           0.3605    2.6175   19.4439 H       1  UNL1        0.1233
     19 C           3.8937   -1.0418   25.4747 C.3     1  UNL1        0.0886
     20 N           3.6296    0.4346   25.4553 N.3     1  UNL1       -0.2679
     21 C           2.2191    0.9439   25.4207 C.3     1  UNL1        0.0978
     22 C           1.6641    1.5299   24.1564 C.3     1  UNL1        0.0224
     23 C           0.2537    2.0391   24.1218 C.3     1  UNL1        0.0065
     24 C          -0.6018    1.9623   25.3515 C.3     1  UNL1        0.0277
     25 C          -0.0469    1.3762   26.6159 C.ar    1  UNL1       -0.0073
     26 C          -0.9024    1.2994   27.8455 C.ar    1  UNL1       -0.0015
     27 C          -0.3474    0.7133   29.1098 C.ar    1  UNL1        0.0203
     28 C           1.0631    0.2041   29.1444 C.ar    1  UNL1        0.0985
     29 N           1.9186    0.2809   27.9148 N.ar    1  UNL1       -0.2471
     30 C           1.3636    0.8670   26.6505 C.ar    1  UNL1        0.0695
     31 C           5.4453    1.7920   24.1860 C.3     1  UNL1        0.0188
     32 C           4.7761    1.4019   25.4705 C.3     1  UNL1        0.0725
@<TRIPOS>BOND
     1    31    32    1
     2    32    20    1
     3    20    19    1
     4     1    19    1
     5     1     2    1
     6     2     3    1
     7     3     4   ar
     8     4     5   ar
     9     5     6   ar
    10     6     7   ar
    11     7     8   ar
    12     8    12    1
    13    12    13    1
    14    13    14    1
    15    14    15    1
    16    15    16    1
    17    16    17    1
    18     4     9    1
    19     9    10    1
    20    21    20    1
    21    21    22    1
    22    22    23    1
    23    23    24    1
    24    24    25    1
    25    25    26   ar
    26    26    27   ar
    27    27    28   ar
    28    28    29   ar
    29    29    30   ar
    30    10     1    1
    31    30    21    1
    32     8     3   ar
    33    17    12    1
    34    30    25   ar
    35    15    18    1
    36    10    11    1
