@<TRIPOS>MOLECULE
*****
 33 36 0 0 0
SMALL
GASTEIGER

@<TRIPOS>ATOM
      1 N          -0.6253    3.6172   20.6843 N.am    1  UNL1       -0.2533
      2 C           0.0551    2.2891   20.5327 C.2     1  UNL1        0.3092
      3 O          -0.7572    1.0282   20.5121 O.2     1  UNL1       -0.2521
      4 N           1.5478    2.2217   20.4017 N.am    1  UNL1       -0.2680
      5 H          -0.0922    4.4447   20.6978 H       1  UNL1        0.1578
      6 H           2.0810    3.0493   20.4152 H       1  UNL1        0.1564
      7 C           2.2282    0.8936   20.2500 C.ar    1  UNL1        0.0517
      8 C           2.4960    0.0458   21.4582 C.ar    1  UNL1        0.0162
      9 C           3.1764   -1.2824   21.3066 C.ar    1  UNL1        0.0189
     10 C           3.5890   -1.7629   19.9469 C.ar    1  UNL1        0.0671
     11 C           3.3212   -0.9151   18.7387 C.ar    1  UNL1        0.0189
     12 C           2.6409    0.4131   18.8904 C.ar    1  UNL1        0.0162
     13 N           4.2694   -3.0910   19.7953 N.ar    1  UNL1       -0.2689
     14 C           5.6504   -3.4336   20.2702 C.ar    1  UNL1        0.2069
     15 N           5.9228   -4.8641   19.9105 N.ar    1  UNL1       -0.1251
     16 N           4.7101   -5.4057   19.2134 N.ar    1  UNL1       -0.1251
     17 C           3.6882   -4.3099   19.1421 C.ar    1  UNL1        0.2069
     18 N          -2.8932    3.6448   22.0990 N.ar    1  UNL1       -0.2162
     19 N          -4.3519    3.7392   21.7627 N.ar    1  UNL1       -0.1683
     20 C          -4.4784    3.8374   20.2713 C.ar    1  UNL1        0.0810
     21 C          -3.0978    3.8036   19.6858 C.ar    1  UNL1        0.0509
     22 C          -2.1181    3.6846   20.8154 C.ar    1  UNL1        0.1380
     23 C          -0.5669    3.1881   27.6108 C.3     1  UNL1        0.0310
     24 C          -1.1485    3.3023   26.2328 C.ar    1  UNL1       -0.0218
     25 C          -2.6048    3.6152   26.0570 C.ar    1  UNL1       -0.0027
     26 C          -3.1864    3.7294   24.6791 C.ar    1  UNL1        0.0189
     27 C          -2.3116    3.5306   23.4769 C.ar    1  UNL1        0.0842
     28 C          -0.8552    3.2177   23.6528 C.ar    1  UNL1        0.0189
     29 C          -0.2736    3.1036   25.0307 C.ar    1  UNL1       -0.0027
     30 C          -5.7604    3.9496   19.5006 C.3     1  UNL1        0.0372
     31 C          -6.4846    4.3235   20.7599 C.3     1  UNL1        0.0060
     32 C          -5.0362    3.5757   18.2414 C.3     1  UNL1        0.0060
     33 C          -7.0424    4.0618   18.7300 C.3     1  UNL1        0.0060
@<TRIPOS>BOND
     1    23    24    1
     2    24    25   ar
     3    25    26   ar
     4    26    27   ar
     5    27    18    1
     6    18    19   ar
     7    19    20   ar
     8    20    30    1
     9    30    31    1
    10    30    32    1
    11    30    33    1
    12    20    21   ar
    13    21    22   ar
    14    22     1    1
    15     1     2   am
    16     2     3    2
    17     2     4   am
    18     4     7    1
    19     7     8   ar
    20     8     9   ar
    21     9    10   ar
    22    10    13    1
    23    13    14   ar
    24    14    15   ar
    25    15    16   ar
    26    16    17   ar
    27    10    11   ar
    28    11    12   ar
    29    27    28   ar
    30    28    29   ar
    31    29    24   ar
    32    22    18   ar
    33    12     7   ar
    34    17    13   ar
    35     1     5    1
    36     4     6    1
@<TRIPOS>MOLECULE
*****
 33 36 0 0 0
SMALL
GASTEIGER

@<TRIPOS>ATOM
      1 N           0.4794    3.3396   24.8024 N.am    1  UNL1       -0.2533
      2 C           0.9354    2.1092   24.0759 C.2     1  UNL1        0.3092
      3 O           0.0242    0.9228   23.9646 O.2     1  UNL1       -0.2521
      4 N           2.3027    2.0650   23.4605 N.am    1  UNL1       -0.2680
      5 H           1.0774    4.1182   24.8754 H       1  UNL1        0.1578
      6 H           2.9007    2.8436   23.5335 H       1  UNL1        0.1564
      7 C           2.7587    0.8345   22.7339 C.ar    1  UNL1        0.0517
      8 C           3.3308   -0.3206   23.5009 C.ar    1  UNL1        0.0162
      9 C           3.7869   -1.5511   22.7743 C.ar    1  UNL1        0.0189
     10 C           3.6708   -1.6265   21.2807 C.ar    1  UNL1        0.0671
     11 C           3.0986   -0.4714   20.5137 C.ar    1  UNL1        0.0189
     12 C           2.6426    0.7591   21.2403 C.ar    1  UNL1        0.0162
     13 N           4.1268   -2.8570   20.5541 N.ar    1  UNL1       -0.2689
     14 C           5.3147   -3.7013   20.9093 C.ar    1  UNL1        0.2069
     15 N           5.3970   -4.8253   19.9195 N.ar    1  UNL1       -0.1251
     16 N           4.2601   -4.6757   18.9526 N.ar    1  UNL1       -0.1251
     17 C           3.4750   -3.4592   19.3448 C.ar    1  UNL1        0.2069
     18 N          -1.2793    2.7925   26.7396 N.ar    1  UNL1       -0.2162
     19 N          -2.7371    3.0703   26.9581 N.ar    1  UNL1       -0.1683
     20 C          -3.2465    3.8334   25.7714 C.ar    1  UNL1        0.0810
     21 C          -2.1036    4.0271   24.8195 C.ar    1  UNL1        0.0509
     22 C          -0.8879    3.3838   25.4178 C.ar    1  UNL1        0.1380
     23 C           2.3487   -0.1650   30.4934 C.3     1  UNL1        0.0310
     24 C           1.4417    0.5744   29.5549 C.ar    1  UNL1       -0.0218
     25 C           0.3418   -0.1564   28.8435 C.ar    1  UNL1       -0.0027
     26 C          -0.5652    0.5830   27.9050 C.ar    1  UNL1        0.0189
     27 C          -0.3723    2.0531   27.6780 C.ar    1  UNL1        0.0842
     28 C           0.7276    2.7838   28.3895 C.ar    1  UNL1        0.0189
     29 C           1.6346    2.0444   29.3279 C.ar    1  UNL1       -0.0027
     30 C          -4.6521    4.3176   25.5718 C.3     1  UNL1        0.0372
     31 C          -4.6113    4.9888   26.9126 C.3     1  UNL1        0.0060
     32 C          -4.6929    3.6465   24.2310 C.3     1  UNL1        0.0060
     33 C          -6.0577    4.8019   25.3721 C.3     1  UNL1        0.0060
@<TRIPOS>BOND
     1    23    24    1
     2    24    25   ar
     3    25    26   ar
     4    26    27   ar
     5    27    18    1
     6    18    19   ar
     7    19    20   ar
     8    20    30    1
     9    30    31    1
    10    30    32    1
    11    30    33    1
    12    20    21   ar
    13    21    22   ar
    14    22     1    1
    15     1     2   am
    16     2     3    2
    17     2     4   am
    18     4     7    1
    19     7     8   ar
    20     8     9   ar
    21     9    10   ar
    22    10    13    1
    23    13    14   ar
    24    14    15   ar
    25    15    16   ar
    26    16    17   ar
    27    10    11   ar
    28    11    12   ar
    29    27    28   ar
    30    28    29   ar
    31    29    24   ar
    32    22    18   ar
    33    12     7   ar
    34    17    13   ar
    35     1     5    1
    36     4     6    1
@<TRIPOS>MOLECULE
*****
 33 36 0 0 0
SMALL
GASTEIGER

@<TRIPOS>ATOM
      1 N           2.3109    1.5337   21.1048 N.am    1  UNL1       -0.2533
      2 C           0.9088    1.7889   20.6370 C.2     1  UNL1        0.3092
      3 O           0.0097    0.6369   20.2983 O.2     1  UNL1       -0.2521
      4 N           0.4057    3.1961   20.5077 N.am    1  UNL1       -0.2680
      5 H           2.9010    2.2898   21.3270 H       1  UNL1        0.1578
      6 H           0.9957    3.9522   20.7300 H       1  UNL1        0.1564
      7 C          -0.9965    3.4512   20.0399 C.ar    1  UNL1        0.0517
      8 C          -1.2482    3.8851   18.6263 C.ar    1  UNL1        0.0162
      9 C          -2.6504    4.1403   18.1584 C.ar    1  UNL1        0.0189
     10 C          -3.8008    3.9615   19.1041 C.ar    1  UNL1        0.0671
     11 C          -3.5491    3.5276   20.5178 C.ar    1  UNL1        0.0189
     12 C          -2.1470    3.2725   20.9856 C.ar    1  UNL1        0.0162
     13 N          -5.2030    4.2167   18.6363 N.ar    1  UNL1       -0.2689
     14 C          -6.4309    3.4844   19.0903 C.ar    1  UNL1        0.2069
     15 N          -7.6102    4.0641   18.3669 N.ar    1  UNL1       -0.1251
     16 N          -7.1111    5.1545   17.4659 N.ar    1  UNL1       -0.1251
     17 C          -5.6233    5.2488   17.6324 C.ar    1  UNL1        0.2069
     18 N           2.9779   -0.6371   22.5147 N.ar    1  UNL1       -0.2162
     19 N           3.5068   -1.9996   22.1774 N.ar    1  UNL1       -0.1683
     20 C           3.6699   -2.0780   20.6883 C.ar    1  UNL1        0.0810
     21 C           3.2418   -0.7640   20.1053 C.ar    1  UNL1        0.0509
     22 C           2.8141    0.1266   21.2340 C.ar    1  UNL1        0.1380
     23 C           1.7354    1.4006   28.0196 C.3     1  UNL1        0.0310
     24 C           2.0461    0.8912   26.6434 C.ar    1  UNL1       -0.0218
     25 C           3.2426    0.0145   26.4205 C.ar    1  UNL1       -0.0027
     26 C           3.5532   -0.4949   25.0442 C.ar    1  UNL1        0.0189
     27 C           2.6673   -0.1277   23.8909 C.ar    1  UNL1        0.0842
     28 C           1.4707    0.7490   24.1138 C.ar    1  UNL1        0.0189
     29 C           1.1601    1.2584   25.4900 C.ar    1  UNL1       -0.0027
     30 C           4.1729   -3.2626   19.9177 C.3     1  UNL1        0.0372
     31 C           4.3800   -4.0100   21.2016 C.3     1  UNL1        0.0060
     32 C           3.9658   -2.5151   18.6337 C.3     1  UNL1        0.0060
     33 C           4.6758   -4.4471   19.1470 C.3     1  UNL1        0.0060
@<TRIPOS>BOND
     1    23    24    1
     2    24    25   ar
     3    25    26   ar
     4    26    27   ar
     5    27    18    1
     6    18    19   ar
     7    19    20   ar
     8    20    30    1
     9    30    31    1
    10    30    32    1
    11    30    33    1
    12    20    21   ar
    13    21    22   ar
    14    22     1    1
    15     1     2   am
    16     2     3    2
    17     2     4   am
    18     4     7    1
    19     7     8   ar
    20     8     9   ar
    21     9    10   ar
    22    10    13    1
    23    13    14   ar
    24    14    15   ar
    25    15    16   ar
    26    16    17   ar
    27    10    11   ar
    28    11    12   ar
    29    27    28   ar
    30    28    29   ar
    31    29    24   ar
    32    22    18   ar
    33    12     7   ar
    34    17    13   ar
    35     1     5    1
    36     4     6    1
@<TRIPOS>MOLECULE
*****
 33 36 0 0 0
SMALL
GASTEIGER

@<TRIPOS>ATOM
      1 N           3.5527    0.3819   22.1516 N.am    1  UNL1       -0.2533
      2 C           2.2252    0.8811   22.6401 C.2     1  UNL1        0.3092
      3 O           0.9619    0.4368   21.9642 O.2     1  UNL1       -0.2521
      4 N           2.1609    1.8245   23.8045 N.am    1  UNL1       -0.2680
      5 H           4.3817    0.6735   22.5952 H       1  UNL1        0.1578
      6 H           2.9900    2.1162   24.2481 H       1  UNL1        0.1564
      7 C           0.8334    2.3237   24.2929 C.ar    1  UNL1        0.0517
      8 C           0.2243    1.7427   25.5344 C.ar    1  UNL1        0.0162
      9 C          -1.1032    2.2418   26.0229 C.ar    1  UNL1        0.0189
     10 C          -1.8216    3.3219   25.2698 C.ar    1  UNL1        0.0671
     11 C          -1.2125    3.9030   24.0283 C.ar    1  UNL1        0.0189
     12 C           0.1150    3.4038   23.5399 C.ar    1  UNL1        0.0162
     13 N          -3.1491    3.8211   25.7583 N.ar    1  UNL1       -0.2689
     14 C          -4.4621    3.6736   25.0481 C.ar    1  UNL1        0.2069
     15 N          -5.5212    4.3167   25.8935 N.ar    1  UNL1       -0.1251
     16 N          -4.8628    4.8616   27.1262 N.ar    1  UNL1       -0.1251
     17 C          -3.3967    4.5553   27.0426 C.ar    1  UNL1        0.2069
     18 N           3.1690   -0.2653   19.5867 N.ar    1  UNL1       -0.2162
     19 N           3.4158   -1.4876   18.7529 N.ar    1  UNL1       -0.1683
     20 C           4.0162   -2.5392   19.6382 C.ar    1  UNL1        0.0810
     21 C           4.1405   -1.9669   21.0191 C.ar    1  UNL1        0.0509
     22 C           3.6170   -0.5615   20.9873 C.ar    1  UNL1        0.1380
     23 C           0.8055    4.9013   17.6581 C.3     1  UNL1        0.0310
     24 C           1.3964    3.6097   18.1403 C.ar    1  UNL1       -0.0218
     25 C           2.8387    3.5507   18.5480 C.ar    1  UNL1       -0.0027
     26 C           3.4296    2.2590   19.0302 C.ar    1  UNL1        0.0189
     27 C           2.5782    1.0263   19.1045 C.ar    1  UNL1        0.0842
     28 C           1.1359    1.0853   18.6968 C.ar    1  UNL1        0.0189
     29 C           0.5450    2.3770   18.2146 C.ar    1  UNL1       -0.0027
     30 C           4.4211   -3.9206   19.2165 C.3     1  UNL1        0.0372
     31 C           2.9795   -4.2801   19.0100 C.3     1  UNL1        0.0060
     32 C           5.8626   -3.5611   19.4230 C.3     1  UNL1        0.0060
     33 C           4.8260   -5.3020   18.7949 C.3     1  UNL1        0.0060
@<TRIPOS>BOND
     1    23    24    1
     2    24    25   ar
     3    25    26   ar
     4    26    27   ar
     5    27    18    1
     6    18    19   ar
     7    19    20   ar
     8    20    30    1
     9    30    31    1
    10    30    32    1
    11    30    33    1
    12    20    21   ar
    13    21    22   ar
    14    22     1    1
    15     1     2   am
    16     2     3    2
    17     2     4   am
    18     4     7    1
    19     7     8   ar
    20     8     9   ar
    21     9    10   ar
    22    10    13    1
    23    13    14   ar
    24    14    15   ar
    25    15    16   ar
    26    16    17   ar
    27    10    11   ar
    28    11    12   ar
    29    27    28   ar
    30    28    29   ar
    31    29    24   ar
    32    22    18   ar
    33    12     7   ar
    34    17    13   ar
    35     1     5    1
    36     4     6    1
@<TRIPOS>MOLECULE
*****
 33 36 0 0 0
SMALL
GASTEIGER

@<TRIPOS>ATOM
      1 N           4.2874    0.6362   23.7457 N.am    1  UNL1       -0.2533
      2 C           4.6627   -0.6993   24.3162 C.2     1  UNL1        0.3092
      3 O           3.5944   -1.6386   24.7921 O.2     1  UNL1       -0.2521
      4 N           6.1063   -1.0956   24.4110 N.am    1  UNL1       -0.2680
      5 H           4.9886    1.2526   23.4334 H       1  UNL1        0.1578
      6 H           6.8075   -0.4791   24.0987 H       1  UNL1        0.1564
      7 C           6.4815   -2.4311   24.9816 C.ar    1  UNL1        0.0517
      8 C           6.7105   -3.5992   24.0688 C.ar    1  UNL1        0.0162
      9 C           7.0857   -4.9347   24.6394 C.ar    1  UNL1        0.0189
     10 C           7.2320   -5.1022   26.1227 C.ar    1  UNL1        0.0671
     11 C           7.0030   -3.9342   27.0356 C.ar    1  UNL1        0.0189
     12 C           6.6278   -2.5987   26.4650 C.ar    1  UNL1        0.0162
     13 N           7.6072   -6.4377   26.6933 N.ar    1  UNL1       -0.2689
     14 C           7.3410   -7.7724   26.0625 C.ar    1  UNL1        0.2069
     15 N           7.8838   -8.8326   26.9742 N.ar    1  UNL1       -0.1251
     16 N           8.4855   -8.1532   28.1686 N.ar    1  UNL1       -0.1251
     17 C           8.3146   -6.6731   27.9950 C.ar    1  UNL1        0.2069
     18 N           1.9937    0.9777   22.4163 N.ar    1  UNL1       -0.2162
     19 N           0.6214    1.4645   22.7765 N.ar    1  UNL1       -0.1683
     20 C           0.6234    1.8201   24.2337 C.ar    1  UNL1        0.0810
     21 C           1.9969    1.5531   24.7742 C.ar    1  UNL1        0.0509
     22 C           2.8438    1.0325   23.6509 C.ar    1  UNL1        0.1380
     23 C           3.7705   -0.8651   16.9898 C.3     1  UNL1        0.0310
     24 C           3.3263   -0.4044   18.3464 C.ar    1  UNL1       -0.0218
     25 C           3.1177   -1.4027   19.4463 C.ar    1  UNL1       -0.0027
     26 C           2.6735   -0.9420   20.8030 C.ar    1  UNL1        0.0189
     27 C           2.4379    0.5170   21.0596 C.ar    1  UNL1        0.0842
     28 C           2.6465    1.5152   19.9597 C.ar    1  UNL1        0.0189
     29 C           3.0907    1.0545   18.6031 C.ar    1  UNL1       -0.0027
     30 C          -0.5433    2.3498   25.0136 C.3     1  UNL1        0.0372
     31 C          -0.8757    3.2798   23.8846 C.3     1  UNL1        0.0060
     32 C          -0.2109    1.4198   26.1426 C.3     1  UNL1        0.0060
     33 C          -1.7101    2.8794   25.7935 C.3     1  UNL1        0.0060
@<TRIPOS>BOND
     1    23    24    1
     2    24    25   ar
     3    25    26   ar
     4    26    27   ar
     5    27    18    1
     6    18    19   ar
     7    19    20   ar
     8    20    30    1
     9    30    31    1
    10    30    32    1
    11    30    33    1
    12    20    21   ar
    13    21    22   ar
    14    22     1    1
    15     1     2   am
    16     2     3    2
    17     2     4   am
    18     4     7    1
    19     7     8   ar
    20     8     9   ar
    21     9    10   ar
    22    10    13    1
    23    13    14   ar
    24    14    15   ar
    25    15    16   ar
    26    16    17   ar
    27    10    11   ar
    28    11    12   ar
    29    27    28   ar
    30    28    29   ar
    31    29    24   ar
    32    22    18   ar
    33    12     7   ar
    34    17    13   ar
    35     1     5    1
    36     4     6    1
@<TRIPOS>MOLECULE
*****
 33 36 0 0 0
SMALL
GASTEIGER

@<TRIPOS>ATOM
      1 N          -0.5337    4.4372   22.7570 N.am    1  UNL1       -0.2533
      2 C           0.2446    3.3717   22.0439 C.2     1  UNL1        0.3092
      3 O          -0.3522    2.0091   21.8508 O.2     1  UNL1       -0.2521
      4 N           1.6199    3.6686   21.5237 N.am    1  UNL1       -0.2680
      5 H          -0.1420    5.3315   22.8837 H       1  UNL1        0.1578
      6 H           2.0117    4.5628   21.6504 H       1  UNL1        0.1564
      7 C           2.3983    2.6029   20.8106 C.ar    1  UNL1        0.0517
      8 C           3.2120    1.6167   21.5949 C.ar    1  UNL1        0.0162
      9 C           3.9904    0.5511   20.8817 C.ar    1  UNL1        0.0189
     10 C           3.9550    0.4716   19.3843 C.ar    1  UNL1        0.0671
     11 C           3.1412    1.4579   18.6000 C.ar    1  UNL1        0.0189
     12 C           2.3629    2.5235   19.3131 C.ar    1  UNL1        0.0162
     13 N           4.7334   -0.5940   18.6711 N.ar    1  UNL1       -0.2689
     14 C           6.0187   -0.3960   17.9236 C.ar    1  UNL1        0.2069
     15 N           6.4428   -1.7243   17.3708 N.ar    1  UNL1       -0.1251
     16 N           5.4195   -2.7433   17.7765 N.ar    1  UNL1       -0.1251
     17 C           4.3630   -2.0447   18.5802 C.ar    1  UNL1        0.2069
     18 N          -2.2340    3.4901   24.5892 N.ar    1  UNL1       -0.2162
     19 N          -3.7266    3.3895   24.6994 N.ar    1  UNL1       -0.1683
     20 C          -4.3240    3.9776   23.4555 C.ar    1  UNL1        0.0810
     21 C          -3.2006    4.4417   22.5765 C.ar    1  UNL1        0.0509
     22 C          -1.9090    4.1403   23.2771 C.ar    1  UNL1        0.1380
     23 C           1.7384    1.6197   28.6784 C.3     1  UNL1        0.0310
     24 C           0.7453    2.0873   27.6561 C.ar    1  UNL1       -0.0218
     25 C          -0.0358    3.3462   27.8902 C.ar    1  UNL1       -0.0027
     26 C          -1.0289    3.8138   26.8679 C.ar    1  UNL1        0.0189
     27 C          -1.2409    3.0225   25.6115 C.ar    1  UNL1        0.0842
     28 C          -0.4598    1.7635   25.3773 C.ar    1  UNL1        0.0189
     29 C           0.5333    1.2959   26.3996 C.ar    1  UNL1       -0.0027
     30 C          -5.7877    4.0831   23.1452 C.3     1  UNL1        0.0372
     31 C          -5.4963    3.8515   21.6921 C.3     1  UNL1        0.0060
     32 C          -6.0791    4.3147   24.5983 C.3     1  UNL1        0.0060
     33 C          -7.2515    4.1886   22.8349 C.3     1  UNL1        0.0060
@<TRIPOS>BOND
     1    23    24    1
     2    24    25   ar
     3    25    26   ar
     4    26    27   ar
     5    27    18    1
     6    18    19   ar
     7    19    20   ar
     8    20    30    1
     9    30    31    1
    10    30    32    1
    11    30    33    1
    12    20    21   ar
    13    21    22   ar
    14    22     1    1
    15     1     2   am
    16     2     3    2
    17     2     4   am
    18     4     7    1
    19     7     8   ar
    20     8     9   ar
    21     9    10   ar
    22    10    13    1
    23    13    14   ar
    24    14    15   ar
    25    15    16   ar
    26    16    17   ar
    27    10    11   ar
    28    11    12   ar
    29    27    28   ar
    30    28    29   ar
    31    29    24   ar
    32    22    18   ar
    33    12     7   ar
    34    17    13   ar
    35     1     5    1
    36     4     6    1
@<TRIPOS>MOLECULE
*****
 33 36 0 0 0
SMALL
GASTEIGER

@<TRIPOS>ATOM
      1 N           0.3683    3.6746   23.1139 N.am    1  UNL1       -0.2533
      2 C           0.7486    2.8587   24.3138 C.2     1  UNL1        0.3092
      3 O          -0.1982    1.8256   24.8489 O.2     1  UNL1       -0.2521
      4 N           2.0755    3.0759   24.9786 N.am    1  UNL1       -0.2680
      5 H           0.9897    4.3527   22.7627 H       1  UNL1        0.1578
      6 H           2.6969    3.7540   24.6274 H       1  UNL1        0.1564
      7 C           2.4557    2.2600   26.1784 C.ar    1  UNL1        0.0517
      8 C           3.1076    0.9210   25.9990 C.ar    1  UNL1        0.0162
      9 C           3.4878    0.1051   27.1988 C.ar    1  UNL1        0.0189
     10 C           3.2162    0.6281   28.5782 C.ar    1  UNL1        0.0671
     11 C           2.5644    1.9671   28.7577 C.ar    1  UNL1        0.0189
     12 C           2.1842    2.7830   27.5578 C.ar    1  UNL1        0.0162
     13 N           3.5964   -0.1878   29.7781 N.ar    1  UNL1       -0.2689
     14 C           2.7145   -0.4926   30.9526 C.ar    1  UNL1        0.2069
     15 N           3.4983   -1.3353   31.9145 N.ar    1  UNL1       -0.1251
     16 N           4.8647   -1.5515   31.3345 N.ar    1  UNL1       -0.1251
     17 C           4.9253   -0.8423   30.0141 C.ar    1  UNL1        0.2069
     18 N          -1.1931    2.7023   21.1744 N.ar    1  UNL1       -0.2162
     19 N          -2.6635    2.7355   20.8798 N.ar    1  UNL1       -0.1683
     20 C          -3.3379    3.5110   21.9725 C.ar    1  UNL1        0.0810
     21 C          -2.2842    3.9572   22.9424 C.ar    1  UNL1        0.0509
     22 C          -0.9587    3.4574   22.4491 C.ar    1  UNL1        0.1380
     23 C           3.0124    0.0205   17.8395 C.3     1  UNL1        0.0310
     24 C           1.9610    0.6909   18.6732 C.ar    1  UNL1       -0.0218
     25 C           1.1610   -0.1096   19.6576 C.ar    1  UNL1       -0.0027
     26 C           0.1096    0.5608   20.4913 C.ar    1  UNL1        0.0189
     27 C          -0.1417    2.0319   20.3407 C.ar    1  UNL1        0.0842
     28 C           0.6582    2.8325   19.3563 C.ar    1  UNL1        0.0189
     29 C           1.7096    2.1620   18.5226 C.ar    1  UNL1       -0.0027
     30 C          -4.8078    3.7911   22.0769 C.3     1  UNL1        0.0372
     31 C          -4.7910    4.3912   20.7022 C.3     1  UNL1        0.0060
     32 C          -4.8245    3.1911   23.4515 C.3     1  UNL1        0.0060
     33 C          -6.2777    4.0713   22.1812 C.3     1  UNL1        0.0060
@<TRIPOS>BOND
     1    23    24    1
     2    24    25   ar
     3    25    26   ar
     4    26    27   ar
     5    27    18    1
     6    18    19   ar
     7    19    20   ar
     8    20    30    1
     9    30    31    1
    10    30    32    1
    11    30    33    1
    12    20    21   ar
    13    21    22   ar
    14    22     1    1
    15     1     2   am
    16     2     3    2
    17     2     4   am
    18     4     7    1
    19     7     8   ar
    20     8     9   ar
    21     9    10   ar
    22    10    13    1
    23    13    14   ar
    24    14    15   ar
    25    15    16   ar
    26    16    17   ar
    27    10    11   ar
    28    11    12   ar
    29    27    28   ar
    30    28    29   ar
    31    29    24   ar
    32    22    18   ar
    33    12     7   ar
    34    17    13   ar
    35     1     5    1
    36     4     6    1
@<TRIPOS>MOLECULE
*****
 33 36 0 0 0
SMALL
GASTEIGER

@<TRIPOS>ATOM
      1 N           4.6031    0.9939   28.3568 N.am    1  UNL1       -0.2533
      2 C           4.3891    0.1062   27.1669 C.2     1  UNL1        0.3092
      3 O           3.5961   -1.1593   27.3080 O.2     1  UNL1       -0.2521
      4 N           4.9681    0.4838   25.8356 N.am    1  UNL1       -0.2680
      5 H           5.1235    1.8244   28.2642 H       1  UNL1        0.1578
      6 H           5.4886    1.3144   25.7429 H       1  UNL1        0.1564
      7 C           4.7541   -0.4039   24.6456 C.ar    1  UNL1        0.0517
      8 C           3.4748   -0.3191   23.8670 C.ar    1  UNL1        0.0162
      9 C           3.2608   -1.2068   22.6770 C.ar    1  UNL1        0.0189
     10 C           4.3260   -2.1794   22.2656 C.ar    1  UNL1        0.0671
     11 C           5.6053   -2.2642   23.0442 C.ar    1  UNL1        0.0189
     12 C           5.8193   -1.3765   24.2342 C.ar    1  UNL1        0.0162
     13 N           4.1119   -3.0672   21.0756 N.ar    1  UNL1       -0.2689
     14 C           3.6099   -2.6328   19.7304 C.ar    1  UNL1        0.2069
     15 N           3.5501   -3.8423   18.8453 N.ar    1  UNL1       -0.1251
     16 N           4.0151   -5.0242   19.6434 N.ar    1  UNL1       -0.1251
     17 C           4.3624   -4.5451   21.0218 C.ar    1  UNL1        0.2069
     18 N           2.5839    0.7374   30.0896 N.ar    1  UNL1       -0.2162
     19 N           2.4535    0.2472   31.5012 N.ar    1  UNL1       -0.1683
     20 C           3.8130   -0.1770   31.9721 C.ar    1  UNL1        0.0810
     21 C           4.7837    0.0511   30.8515 C.ar    1  UNL1        0.0509
     22 C           4.0241    0.6162   29.6881 C.ar    1  UNL1        0.1380
     23 C          -1.8724    2.8180   26.6526 C.3     1  UNL1        0.0310
     24 C          -0.7583    2.2978   27.5119 C.ar    1  UNL1       -0.0218
     25 C           0.3244    3.2251   27.9787 C.ar    1  UNL1       -0.0027
     26 C           1.4384    2.7050   28.8379 C.ar    1  UNL1        0.0189
     27 C           1.4699    1.2576   29.2303 C.ar    1  UNL1        0.0842
     28 C           0.3872    0.3303   28.7635 C.ar    1  UNL1        0.0189
     29 C          -0.7269    0.8504   27.9043 C.ar    1  UNL1       -0.0027
     30 C           4.1437   -0.7319   33.3259 C.3     1  UNL1        0.0372
     31 C           3.9105    0.6183   33.9362 C.3     1  UNL1        0.0060
     32 C           4.3769   -2.0821   32.7155 C.3     1  UNL1        0.0060
     33 C           4.4744   -1.2867   34.6797 C.3     1  UNL1        0.0060
@<TRIPOS>BOND
     1    23    24    1
     2    24    25   ar
     3    25    26   ar
     4    26    27   ar
     5    27    18    1
     6    18    19   ar
     7    19    20   ar
     8    20    30    1
     9    30    31    1
    10    30    32    1
    11    30    33    1
    12    20    21   ar
    13    21    22   ar
    14    22     1    1
    15     1     2   am
    16     2     3    2
    17     2     4   am
    18     4     7    1
    19     7     8   ar
    20     8     9   ar
    21     9    10   ar
    22    10    13    1
    23    13    14   ar
    24    14    15   ar
    25    15    16   ar
    26    16    17   ar
    27    10    11   ar
    28    11    12   ar
    29    27    28   ar
    30    28    29   ar
    31    29    24   ar
    32    22    18   ar
    33    12     7   ar
    34    17    13   ar
    35     1     5    1
    36     4     6    1
@<TRIPOS>MOLECULE
*****
 33 36 0 0 0
SMALL
GASTEIGER

@<TRIPOS>ATOM
      1 N          -1.2553    3.9154   24.4027 N.am    1  UNL1       -0.2533
      2 C          -0.5219    3.1359   25.4535 C.2     1  UNL1        0.3092
      3 O           0.1690    1.8546   25.0914 O.2     1  UNL1       -0.2521
      4 N          -0.4791    3.6375   26.8665 N.am    1  UNL1       -0.2680
      5 H          -1.7087    4.7563   24.6404 H       1  UNL1        0.1578
      6 H          -0.9325    4.4784   27.1042 H       1  UNL1        0.1564
      7 C           0.2544    2.8579   27.9173 C.ar    1  UNL1        0.0517
      8 C          -0.2993    1.5522   28.4057 C.ar    1  UNL1        0.0162
      9 C           0.4342    0.7726   29.4564 C.ar    1  UNL1        0.0189
     10 C           1.7214    1.2986   30.0189 C.ar    1  UNL1        0.0671
     11 C           2.2751    2.6043   29.5305 C.ar    1  UNL1        0.0189
     12 C           1.5416    3.3839   28.4797 C.ar    1  UNL1        0.0162
     13 N           2.4550    0.5190   31.0697 N.ar    1  UNL1       -0.2689
     14 C           2.8219    1.0121   32.4380 C.ar    1  UNL1        0.2069
     15 N           3.5440   -0.0927   33.1506 N.ar    1  UNL1       -0.1251
     16 N           3.6234   -1.2686   32.2227 N.ar    1  UNL1       -0.1251
     17 C           2.9503   -0.8905   30.9366 C.ar    1  UNL1        0.2069
     18 N          -2.5256    3.2810   22.1380 N.ar    1  UNL1       -0.2162
     19 N          -2.1069    2.7420   20.8023 N.ar    1  UNL1       -0.1683
     20 C          -0.6206    2.5417   20.8285 C.ar    1  UNL1        0.0810
     21 C          -0.1206    2.9569   22.1804 C.ar    1  UNL1        0.0509
     22 C          -1.2980    3.4138   22.9897 C.ar    1  UNL1        0.1380
     23 C          -8.1272    4.6631   23.7849 C.3     1  UNL1        0.0310
     24 C          -6.7268    4.3176   23.3731 C.ar    1  UNL1       -0.0218
     25 C          -5.7132    3.9341   24.4102 C.ar    1  UNL1       -0.0027
     26 C          -4.3128    3.5886   23.9985 C.ar    1  UNL1        0.0189
     27 C          -3.9260    3.6265   22.5497 C.ar    1  UNL1        0.0842
     28 C          -4.9396    4.0100   21.5127 C.ar    1  UNL1        0.0189
     29 C          -6.3400    4.3555   21.9244 C.ar    1  UNL1       -0.0027
     30 C           0.2185    2.0181   19.7007 C.3     1  UNL1        0.0372
     31 C           0.1841    3.3683   19.0482 C.3     1  UNL1        0.0060
     32 C           0.2530    0.6679   20.3532 C.3     1  UNL1        0.0060
     33 C           1.0576    1.4945   18.5730 C.3     1  UNL1        0.0060
@<TRIPOS>BOND
     1    23    24    1
     2    24    25   ar
     3    25    26   ar
     4    26    27   ar
     5    27    18    1
     6    18    19   ar
     7    19    20   ar
     8    20    30    1
     9    30    31    1
    10    30    32    1
    11    30    33    1
    12    20    21   ar
    13    21    22   ar
    14    22     1    1
    15     1     2   am
    16     2     3    2
    17     2     4   am
    18     4     7    1
    19     7     8   ar
    20     8     9   ar
    21     9    10   ar
    22    10    13    1
    23    13    14   ar
    24    14    15   ar
    25    15    16   ar
    26    16    17   ar
    27    10    11   ar
    28    11    12   ar
    29    27    28   ar
    30    28    29   ar
    31    29    24   ar
    32    22    18   ar
    33    12     7   ar
    34    17    13   ar
    35     1     5    1
    36     4     6    1
