@<TRIPOS>MOLECULE
*****
 38 41 0 0 0
SMALL
GASTEIGER

@<TRIPOS>ATOM
      1 N           6.5461   -2.5249   30.1209 N.3     1  UNL1       -0.2711
      2 C           7.3337   -2.1109   28.9132 C.3     1  UNL1        0.0933
      3 C           7.3462   -3.5323   28.4342 C.3     1  UNL1        0.1035
      4 C           6.5587   -3.9463   29.6418 C.3     1  UNL1        0.0933
      5 C           4.8487   -0.3880   33.6989 C.3     1  UNL1        0.0255
      6 C           4.6782   -1.8718   33.5610 C.3     1  UNL1        0.0058
      7 C           5.2440   -2.5841   32.3683 C.3     1  UNL1        0.0163
      8 C           5.9803   -1.8126   31.3135 C.3     1  UNL1        0.0576
      9 C           6.1508   -0.3287   31.4515 C.3     1  UNL1        0.0163
     10 C           5.5850    0.3836   32.6441 C.3     1  UNL1        0.0058
     11 C           3.1513    1.7490   37.2769 C.ar    1  UNL1        0.2203
     12 N           2.7490    2.1664   35.8935 N.ar    1  UNL1       -0.2124
     13 C           3.3148    1.4541   34.7008 C.ar    1  UNL1        0.0991
     14 C           4.2829    0.3244   34.8916 C.ar    1  UNL1        0.0159
     15 C           4.6852   -0.0931   36.2750 C.ar    1  UNL1        0.0991
     16 N           4.1194    0.6193   37.4677 N.ar    1  UNL1       -0.2124
     17 C           1.3612    1.9264   39.1515 C.3     1  UNL1        0.1151
     18 N           2.5855    2.4613   38.4696 N.pl3   1  UNL1       -0.2747
     19 C           3.2440    3.7085   38.9804 C.3     1  UNL1        0.1151
     20 N           7.9120   -4.2446   27.2415 N.am    1  UNL1       -0.3018
     21 C           7.3316   -4.0044   25.8794 C.2     1  UNL1        0.2426
     22 O           6.1853   -3.0518   25.7099 O.2     1  UNL1       -0.2733
     23 H           8.6644   -4.8698   27.3527 H       1  UNL1        0.1495
     24 C           7.8974   -4.7167   24.6867 C.3     1  UNL1        0.1759
     25 N           7.2850   -4.5147   23.3323 N.am    1  UNL1       -0.2931
     26 C           7.7652   -3.4000   22.4509 C.2     1  UNL1        0.2462
     27 O           8.8577   -2.4874   22.9238 O.2     1  UNL1       -0.2701
     28 H           6.5680   -5.1137   23.0220 H       1  UNL1        0.1502
     29 C           7.1529   -3.1980   21.0965 C.ar    1  UNL1        0.0533
     30 C           7.8886   -2.4145   20.0501 C.ar    1  UNL1        0.0045
     31 C           7.2763   -2.2125   18.6958 C.ar    1  UNL1        0.0001
     32 C           5.9283   -2.7939   18.3878 C.ar    1  UNL1        0.0039
     33 C           5.1926   -3.5773   19.4341 C.ar    1  UNL1        0.0716
     34 C           5.8049   -3.7794   20.7886 C.ar    1  UNL1        0.0084
     35 C           3.8446   -4.1588   19.1262 C.3     1  UNL1        0.4186
     36 F           2.4966   -4.7402   18.8182 F       1  UNL1       -0.1659
     37 F           4.5017   -5.3843   18.5637 F       1  UNL1       -0.1659
     38 F           3.1875   -2.9332   19.6887 F       1  UNL1       -0.1659
@<TRIPOS>BOND
     1    17    18    1
     2    18    19    1
     3    18    11    1
     4    11    12   ar
     5    12    13   ar
     6    13    14   ar
     7     5    14    1
     8     5     6    1
     9     6     7    1
    10     7     8    1
    11     8     1    1
    12     1     2    1
    13     2     3    1
    14     3    20    1
    15    20    21   am
    16    21    22    2
    17    21    24    1
    18    24    25    1
    19    25    26   am
    20    26    27    2
    21    26    29    1
    22    29    30   ar
    23    30    31   ar
    24    31    32   ar
    25    32    33   ar
    26    33    35    1
    27    35    36    1
    28    35    37    1
    29    35    38    1
    30    33    34   ar
    31     3     4    1
    32     8     9    1
    33     9    10    1
    34    14    15   ar
    35    15    16   ar
    36    16    11   ar
    37    10     5    1
    38     4     1    1
    39    34    29   ar
    40    20    23    1
    41    25    28    1
@<TRIPOS>MOLECULE
*****
 38 41 0 0 0
SMALL
GASTEIGER

@<TRIPOS>ATOM
      1 N           1.2698    1.5657   29.0721 N.3     1  UNL1       -0.2711
      2 C           0.3654    2.2645   28.1006 C.3     1  UNL1        0.0933
      3 C           0.6783    1.2273   27.0632 C.3     1  UNL1        0.1035
      4 C           1.5827    0.5284   28.0346 C.3     1  UNL1        0.0933
      5 C           2.5246    2.2835   33.3336 C.3     1  UNL1        0.0255
      6 C           3.2285    1.2470   32.5089 C.3     1  UNL1        0.0058
      7 C           2.8103    1.0078   31.0884 C.3     1  UNL1        0.0163
      8 C           1.6881    1.8049   30.4926 C.3     1  UNL1        0.0576
      9 C           0.9841    2.8414   31.3173 C.3     1  UNL1        0.0163
     10 C           1.4023    3.0806   32.7378 C.3     1  UNL1        0.0058
     11 C           3.7793    3.0012   37.5951 C.ar    1  UNL1        0.2203
     12 N           4.5433    2.0332   36.7412 N.ar    1  UNL1       -0.2124
     13 C           4.1251    1.7939   35.3207 C.ar    1  UNL1        0.0991
     14 C           2.9428    2.5227   34.7541 C.ar    1  UNL1        0.0159
     15 C           2.1788    3.4908   35.6080 C.ar    1  UNL1        0.0991
     16 N           2.5971    3.7300   37.0285 N.ar    1  UNL1       -0.2124
     17 C           5.3723    2.5025   39.5860 C.3     1  UNL1        0.1151
     18 N           4.1976    3.2405   39.0156 N.pl3   1  UNL1       -0.2747
     19 C           3.4411    4.2177   39.8657 C.3     1  UNL1        0.1151
     20 N           0.2600    0.9880   25.6427 N.am    1  UNL1       -0.3018
     21 C           1.2068    1.2944   24.5204 C.2     1  UNL1        0.2426
     22 O           2.5719    1.8401   24.8185 O.2     1  UNL1       -0.2733
     23 H          -0.6359    0.6299   25.4471 H       1  UNL1        0.1495
     24 C           0.7885    1.0552   23.0999 C.3     1  UNL1        0.1759
     25 N           1.7928    0.5793   22.0923 N.am    1  UNL1       -0.2931
     26 C           1.3306    0.0124   20.7828 C.2     1  UNL1        0.2462
     27 O          -0.1359   -0.0787   20.4808 O.2     1  UNL1       -0.2701
     28 H           2.7553    0.6391   22.2906 H       1  UNL1        0.1502
     29 C           2.3348   -0.4635   19.7753 C.ar    1  UNL1        0.0533
     30 C           2.8680    0.4846   18.7423 C.ar    1  UNL1        0.0045
     31 C           3.8722    0.0088   17.7348 C.ar    1  UNL1        0.0001
     32 C           4.3433   -1.4151   17.7602 C.ar    1  UNL1        0.0039
     33 C           3.8101   -2.3632   18.7931 C.ar    1  UNL1        0.0716
     34 C           2.8059   -1.8874   19.8007 C.ar    1  UNL1        0.0084
     35 C           4.2812   -3.7871   18.8184 C.3     1  UNL1        0.4186
     36 F           4.7522   -5.2110   18.8438 F       1  UNL1       -0.1659
     37 F           5.6353   -3.3475   18.3461 F       1  UNL1       -0.1659
     38 F           2.9270   -4.2266   19.2907 F       1  UNL1       -0.1659
@<TRIPOS>BOND
     1    17    18    1
     2    18    19    1
     3    18    11    1
     4    11    12   ar
     5    12    13   ar
     6    13    14   ar
     7     5    14    1
     8     5     6    1
     9     6     7    1
    10     7     8    1
    11     8     1    1
    12     1     2    1
    13     2     3    1
    14     3    20    1
    15    20    21   am
    16    21    22    2
    17    21    24    1
    18    24    25    1
    19    25    26   am
    20    26    27    2
    21    26    29    1
    22    29    30   ar
    23    30    31   ar
    24    31    32   ar
    25    32    33   ar
    26    33    35    1
    27    35    36    1
    28    35    37    1
    29    35    38    1
    30    33    34   ar
    31     3     4    1
    32     8     9    1
    33     9    10    1
    34    14    15   ar
    35    15    16   ar
    36    16    11   ar
    37    10     5    1
    38     4     1    1
    39    34    29   ar
    40    20    23    1
    41    25    28    1
@<TRIPOS>MOLECULE
*****
 38 41 0 0 0
SMALL
GASTEIGER

@<TRIPOS>ATOM
      1 N           4.9961   -1.1650   28.2631 N.3     1  UNL1       -0.2711
      2 C           4.1186   -1.6638   27.1535 C.3     1  UNL1        0.0933
      3 C           5.3005   -1.6889   26.2302 C.3     1  UNL1        0.1035
      4 C           6.1780   -1.1901   27.3397 C.3     1  UNL1        0.0933
      5 C           4.3505   -0.0535   32.5756 C.3     1  UNL1        0.0255
      6 C           3.1815   -0.1366   31.6394 C.3     1  UNL1        0.0058
      7 C           3.3967   -0.5071   30.2019 C.3     1  UNL1        0.0163
      8 C           4.7809   -0.7945   29.7006 C.3     1  UNL1        0.0576
      9 C           5.9499   -0.7114   30.6368 C.3     1  UNL1        0.0163
     10 C           5.7347   -0.3409   32.0743 C.3     1  UNL1        0.0058
     11 C           3.7049    1.0579   36.8882 C.ar    1  UNL1        0.2203
     12 N           3.1038    1.8965   35.7994 N.ar    1  UNL1       -0.2124
     13 C           3.3190    1.5260   34.3619 C.ar    1  UNL1        0.0991
     14 C           4.1353    0.3169   34.0132 C.ar    1  UNL1        0.0159
     15 C           4.7365   -0.5216   35.1019 C.ar    1  UNL1        0.0991
     16 N           4.5213   -0.1511   36.5394 N.ar    1  UNL1       -0.2124
     17 C           2.1744    1.1387   38.9860 C.3     1  UNL1        0.1151
     18 N           3.4897    1.4284   38.3257 N.pl3   1  UNL1       -0.2747
     19 C           4.5898    2.0886   39.1028 C.3     1  UNL1        0.1151
     20 N           5.5157   -2.0594   24.7927 N.am    1  UNL1       -0.3018
     21 C           6.1480   -3.3740   24.4436 C.2     1  UNL1        0.2426
     22 O           6.5652   -4.3182   25.5320 O.2     1  UNL1       -0.2733
     23 H           5.2419   -1.4397   24.0783 H       1  UNL1        0.1495
     24 C           6.3632   -3.7445   23.0060 C.3     1  UNL1        0.1759
     25 N           5.8957   -2.8255   21.9166 N.am    1  UNL1       -0.2931
     26 C           4.8489   -3.2851   20.9455 C.2     1  UNL1        0.2462
     27 O           4.2697   -4.6637   21.0638 O.2     1  UNL1       -0.2701
     28 H           6.2758   -1.9206   21.8389 H       1  UNL1        0.1502
     29 C           4.3814   -2.3661   19.8561 C.ar    1  UNL1        0.0533
     30 C           5.1474   -2.2775   18.5694 C.ar    1  UNL1        0.0045
     31 C           4.6798   -1.3585   17.4800 C.ar    1  UNL1        0.0001
     32 C           3.4463   -0.5282   17.6771 C.ar    1  UNL1        0.0039
     33 C           2.6803   -0.6168   18.9637 C.ar    1  UNL1        0.0716
     34 C           3.1478   -1.5358   20.0532 C.ar    1  UNL1        0.0084
     35 C           1.4467    0.2136   19.1609 C.3     1  UNL1        0.4186
     36 F           0.2132    1.0439   19.3581 F       1  UNL1       -0.1659
     37 F           0.8926   -0.8292   20.0858 F       1  UNL1       -0.1659
     38 F           2.0009    1.2564   18.2360 F       1  UNL1       -0.1659
@<TRIPOS>BOND
     1    17    18    1
     2    18    19    1
     3    18    11    1
     4    11    12   ar
     5    12    13   ar
     6    13    14   ar
     7     5    14    1
     8     5     6    1
     9     6     7    1
    10     7     8    1
    11     8     1    1
    12     1     2    1
    13     2     3    1
    14     3    20    1
    15    20    21   am
    16    21    22    2
    17    21    24    1
    18    24    25    1
    19    25    26   am
    20    26    27    2
    21    26    29    1
    22    29    30   ar
    23    30    31   ar
    24    31    32   ar
    25    32    33   ar
    26    33    35    1
    27    35    36    1
    28    35    37    1
    29    35    38    1
    30    33    34   ar
    31     3     4    1
    32     8     9    1
    33     9    10    1
    34    14    15   ar
    35    15    16   ar
    36    16    11   ar
    37    10     5    1
    38     4     1    1
    39    34    29   ar
    40    20    23    1
    41    25    28    1
@<TRIPOS>MOLECULE
*****
 38 41 0 0 0
SMALL
GASTEIGER

@<TRIPOS>ATOM
      1 N           6.2765   -1.5333   32.6914 N.3     1  UNL1       -0.2711
      2 C           5.2667   -2.0249   31.6970 C.3     1  UNL1        0.0933
      3 C           6.3681   -2.6297   30.8777 C.3     1  UNL1        0.1035
      4 C           7.3779   -2.1382   31.8720 C.3     1  UNL1        0.0933
      5 C           6.0824    0.7924   36.5389 C.3     1  UNL1        0.0255
      6 C           4.9394   -0.0929   36.1391 C.3     1  UNL1        0.0058
      7 C           5.0041   -0.8681   34.8566 C.3     1  UNL1        0.0163
      8 C           6.2118   -0.7581   33.9739 C.3     1  UNL1        0.0576
      9 C           7.3548    0.1271   34.3736 C.3     1  UNL1        0.0163
     10 C           7.2901    0.9024   35.6561 C.3     1  UNL1        0.0058
     11 C           5.8883    3.1181   40.3864 C.ar    1  UNL1        0.2203
     12 N           7.2172    2.8073   39.7641 N.ar    1  UNL1       -0.2124
     13 C           7.2819    2.0321   38.4816 C.ar    1  UNL1        0.0991
     14 C           6.0177    1.5676   37.8214 C.ar    1  UNL1        0.0159
     15 C           4.6888    1.8784   38.4437 C.ar    1  UNL1        0.0991
     16 N           4.6241    2.6536   39.7262 N.ar    1  UNL1       -0.2124
     17 C           6.8217    3.6282   42.7567 C.3     1  UNL1        0.1151
     18 N           5.8236    3.8934   41.6689 N.pl3   1  UNL1       -0.2747
     19 C           4.7607    4.9337   41.8636 C.3     1  UNL1        0.1151
     20 N           6.4328   -3.4049   29.5952 N.am    1  UNL1       -0.3018
     21 C           6.4831   -2.6806   28.2827 C.2     1  UNL1        0.2426
     22 O           6.4687   -1.1809   28.2526 O.2     1  UNL1       -0.2733
     23 H           6.4422   -4.3892   29.6149 H       1  UNL1        0.1495
     24 C           6.5478   -3.4558   27.0002 C.3     1  UNL1        0.1759
     25 N           5.7376   -3.0166   25.8166 N.am    1  UNL1       -0.2931
     26 C           6.0295   -3.5797   24.4573 C.2     1  UNL1        0.2462
     27 O           7.1316   -4.5821   24.2816 O.2     1  UNL1       -0.2701
     28 H           5.0143   -2.3587   25.9319 H       1  UNL1        0.1502
     29 C           5.2194   -3.1405   23.2737 C.ar    1  UNL1        0.0533
     30 C           4.3448   -1.9259   23.3726 C.ar    1  UNL1        0.0045
     31 C           3.5347   -1.4867   22.1890 C.ar    1  UNL1        0.0001
     32 C           3.5991   -2.2621   20.9066 C.ar    1  UNL1        0.0039
     33 C           4.4737   -3.4767   20.8078 C.ar    1  UNL1        0.0716
     34 C           5.2839   -3.9160   21.9913 C.ar    1  UNL1        0.0084
     35 C           4.5382   -4.2521   19.5253 C.3     1  UNL1        0.4186
     36 F           4.6027   -5.0275   18.2429 F       1  UNL1       -0.1659
     37 F           3.0533   -4.4583   19.5753 F       1  UNL1       -0.1659
     38 F           6.0232   -4.0460   19.4754 F       1  UNL1       -0.1659
@<TRIPOS>BOND
     1    17    18    1
     2    18    19    1
     3    18    11    1
     4    11    12   ar
     5    12    13   ar
     6    13    14   ar
     7     5    14    1
     8     5     6    1
     9     6     7    1
    10     7     8    1
    11     8     1    1
    12     1     2    1
    13     2     3    1
    14     3    20    1
    15    20    21   am
    16    21    22    2
    17    21    24    1
    18    24    25    1
    19    25    26   am
    20    26    27    2
    21    26    29    1
    22    29    30   ar
    23    30    31   ar
    24    31    32   ar
    25    32    33   ar
    26    33    35    1
    27    35    36    1
    28    35    37    1
    29    35    38    1
    30    33    34   ar
    31     3     4    1
    32     8     9    1
    33     9    10    1
    34    14    15   ar
    35    15    16   ar
    36    16    11   ar
    37    10     5    1
    38     4     1    1
    39    34    29   ar
    40    20    23    1
    41    25    28    1
@<TRIPOS>MOLECULE
*****
 38 41 0 0 0
SMALL
GASTEIGER

@<TRIPOS>ATOM
      1 N           1.3548    1.5349   27.2650 N.3     1  UNL1       -0.2711
      2 C           2.1839    1.5480   26.0150 C.3     1  UNL1        0.0933
      3 C           0.9398    1.4102   25.1885 C.3     1  UNL1        0.1035
      4 C           0.1107    1.3971   26.4384 C.3     1  UNL1        0.0933
      5 C           2.2351    1.7994   31.6702 C.3     1  UNL1        0.0255
      6 C           3.3290    1.4459   30.7066 C.3     1  UNL1        0.0058
      7 C           3.0355    1.3577   29.2383 C.3     1  UNL1        0.0163
      8 C           1.6482    1.6231   28.7334 C.3     1  UNL1        0.0576
      9 C           0.5544    1.9766   29.6969 C.3     1  UNL1        0.0163
     10 C           0.8478    2.0648   31.1653 C.3     1  UNL1        0.0058
     11 C           3.1155    2.0640   36.0753 C.ar    1  UNL1        0.2203
     12 N           3.8445    1.0678   35.2232 N.ar    1  UNL1       -0.2124
     13 C           3.5511    0.9796   33.7549 C.ar    1  UNL1        0.0991
     14 C           2.5286    1.8876   33.1385 C.ar    1  UNL1        0.0159
     15 C           1.7995    2.8838   33.9906 C.ar    1  UNL1        0.0991
     16 N           2.0930    2.9720   35.4589 N.ar    1  UNL1       -0.2124
     17 C           4.6020    2.9233   38.0251 C.3     1  UNL1        0.1151
     18 N           3.4089    2.1522   37.5436 N.pl3   1  UNL1       -0.2747
     19 C           2.5093    1.4692   38.5306 C.3     1  UNL1        0.1151
     20 N           0.6464    1.3220   23.7201 N.am    1  UNL1       -0.3018
     21 C           0.6675    2.5613   22.8753 C.2     1  UNL1        0.2426
     22 O           0.9822    3.8888   23.4989 O.2     1  UNL1       -0.2733
     23 H           0.4398    0.4508   23.3108 H       1  UNL1        0.1495
     24 C           0.3741    2.4731   21.4069 C.3     1  UNL1        0.1759
     25 N           1.3548    1.8117   20.4845 N.am    1  UNL1       -0.2931
     26 C           1.3194    0.3243   20.2937 C.2     1  UNL1        0.2462
     27 O           0.3033   -0.5017   21.0254 O.2     1  UNL1       -0.2701
     28 H           2.0217    2.3538   20.0043 H       1  UNL1        0.1502
     29 C           2.3001   -0.3371   19.3714 C.ar    1  UNL1        0.0533
     30 C           2.7977    0.3915   18.1582 C.ar    1  UNL1        0.0045
     31 C           3.7783   -0.2699   17.2359 C.ar    1  UNL1        0.0001
     32 C           4.2614   -1.6599   17.5266 C.ar    1  UNL1        0.0039
     33 C           3.7639   -2.3885   18.7396 C.ar    1  UNL1        0.0716
     34 C           2.7832   -1.7271   19.6621 C.ar    1  UNL1        0.0084
     35 C           4.2470   -3.7785   19.0303 C.3     1  UNL1        0.4186
     36 F           4.7301   -5.1685   19.3210 F       1  UNL1       -0.1659
     37 F           2.8278   -4.2621   19.0764 F       1  UNL1       -0.1659
     38 F           5.6661   -3.2949   18.9842 F       1  UNL1       -0.1659
@<TRIPOS>BOND
     1    17    18    1
     2    18    19    1
     3    18    11    1
     4    11    12   ar
     5    12    13   ar
     6    13    14   ar
     7     5    14    1
     8     5     6    1
     9     6     7    1
    10     7     8    1
    11     8     1    1
    12     1     2    1
    13     2     3    1
    14     3    20    1
    15    20    21   am
    16    21    22    2
    17    21    24    1
    18    24    25    1
    19    25    26   am
    20    26    27    2
    21    26    29    1
    22    29    30   ar
    23    30    31   ar
    24    31    32   ar
    25    32    33   ar
    26    33    35    1
    27    35    36    1
    28    35    37    1
    29    35    38    1
    30    33    34   ar
    31     3     4    1
    32     8     9    1
    33     9    10    1
    34    14    15   ar
    35    15    16   ar
    36    16    11   ar
    37    10     5    1
    38     4     1    1
    39    34    29   ar
    40    20    23    1
    41    25    28    1
@<TRIPOS>MOLECULE
*****
 38 41 0 0 0
SMALL
GASTEIGER

@<TRIPOS>ATOM
      1 N           2.1878    1.2342   28.4811 N.3     1  UNL1       -0.2711
      2 C           2.9742    1.9262   29.5549 C.3     1  UNL1        0.0933
      3 C           1.7137    2.1417   30.3390 C.3     1  UNL1        0.1035
      4 C           0.9273    1.4498   29.2653 C.3     1  UNL1        0.0933
      5 C           3.1935   -0.6907   24.5399 C.3     1  UNL1        0.0255
      6 C           2.2272    0.4554   24.5898 C.3     1  UNL1        0.0058
      7 C           1.8920    1.0971   25.9036 C.3     1  UNL1        0.0163
      8 C           2.5230    0.5926   27.1674 C.3     1  UNL1        0.0576
      9 C           3.4894   -0.5535   27.1174 C.3     1  UNL1        0.0163
     10 C           3.8246   -1.1952   25.8037 C.3     1  UNL1        0.0058
     11 C           4.1992   -2.6157   20.5987 C.ar    1  UNL1        0.2203
     12 N           4.8192   -3.1295   21.8642 N.ar    1  UNL1       -0.2124
     13 C           4.4840   -2.4878   23.1779 C.ar    1  UNL1        0.0991
     14 C           3.5288   -1.3324   23.2262 C.ar    1  UNL1        0.0159
     15 C           2.9087   -0.8186   21.9607 C.ar    1  UNL1        0.0991
     16 N           3.2440   -1.4602   20.6469 N.ar    1  UNL1       -0.2124
     17 C           4.0229   -4.6316   18.9693 C.3     1  UNL1        0.1151
     18 N           4.5345   -3.2574   19.2850 N.pl3   1  UNL1       -0.2747
     19 C           5.3813   -2.5248   18.2869 C.3     1  UNL1        0.1151
     20 N           1.3785    2.7833   31.6527 N.am    1  UNL1       -0.3018
     21 C           1.0940    4.2546   31.7178 C.2     1  UNL1        0.2426
     22 O           1.1448    5.0844   30.4692 O.2     1  UNL1       -0.2733
     23 H           1.3452    2.2388   32.4722 H       1  UNL1        0.1495
     24 C           0.7588    4.8963   33.0316 C.3     1  UNL1        0.1759
     25 N           1.3106    4.3289   34.3058 N.am    1  UNL1       -0.2931
     26 C           1.5679    5.2289   35.4780 C.2     1  UNL1        0.2462
     27 O           1.2734    6.6962   35.3758 O.2     1  UNL1       -0.2701
     28 H           1.5038    3.3659   34.3728 H       1  UNL1        0.1502
     29 C           2.1197    4.6616   36.7522 C.ar    1  UNL1        0.0533
     30 C           3.2702    5.3373   37.4377 C.ar    1  UNL1        0.0045
     31 C           3.8219    4.7700   38.7119 C.ar    1  UNL1        0.0001
     32 C           3.2233    3.5270   39.3007 C.ar    1  UNL1        0.0039
     33 C           2.0729    2.8513   38.6152 C.ar    1  UNL1        0.0716
     34 C           1.5210    3.4186   37.3409 C.ar    1  UNL1        0.0084
     35 C           1.4742    1.6083   39.2039 C.3     1  UNL1        0.4186
     36 F           0.8756    0.3653   39.7927 F       1  UNL1       -0.1659
     37 F           2.8226    0.9512   39.1876 F       1  UNL1       -0.1659
     38 F           0.1259    2.2654   39.2203 F       1  UNL1       -0.1659
@<TRIPOS>BOND
     1    17    18    1
     2    18    19    1
     3    18    11    1
     4    11    12   ar
     5    12    13   ar
     6    13    14   ar
     7     5    14    1
     8     5     6    1
     9     6     7    1
    10     7     8    1
    11     8     1    1
    12     1     2    1
    13     2     3    1
    14     3    20    1
    15    20    21   am
    16    21    22    2
    17    21    24    1
    18    24    25    1
    19    25    26   am
    20    26    27    2
    21    26    29    1
    22    29    30   ar
    23    30    31   ar
    24    31    32   ar
    25    32    33   ar
    26    33    35    1
    27    35    36    1
    28    35    37    1
    29    35    38    1
    30    33    34   ar
    31     3     4    1
    32     8     9    1
    33     9    10    1
    34    14    15   ar
    35    15    16   ar
    36    16    11   ar
    37    10     5    1
    38     4     1    1
    39    34    29   ar
    40    20    23    1
    41    25    28    1
@<TRIPOS>MOLECULE
*****
 38 41 0 0 0
SMALL
GASTEIGER

@<TRIPOS>ATOM
      1 N           5.6219   -2.2672   28.9116 N.3     1  UNL1       -0.2711
      2 C           5.1933   -1.9605   27.5071 C.3     1  UNL1        0.0933
      3 C           6.0069   -3.1169   27.0064 C.3     1  UNL1        0.1035
      4 C           6.4355   -3.4236   28.4107 C.3     1  UNL1        0.0933
      5 C           4.8052   -0.4646   32.9531 C.3     1  UNL1        0.0255
      6 C           5.8486   -1.5320   32.8049 C.3     1  UNL1        0.0058
      7 C           6.1208   -2.1328   31.4577 C.3     1  UNL1        0.0163
      8 C           5.3497   -1.6663   30.2587 C.3     1  UNL1        0.0576
      9 C           4.3063   -0.5989   30.4069 C.3     1  UNL1        0.0163
     10 C           4.0340    0.0020   31.7541 C.3     1  UNL1        0.0058
     11 C           3.9885    1.3380   36.9946 C.ar    1  UNL1        0.2203
     12 N           3.4071    1.9652   35.7623 N.ar    1  UNL1       -0.2124
     13 C           3.6793    1.3643   34.4151 C.ar    1  UNL1        0.0991
     14 C           4.5330    0.1363   34.3002 C.ar    1  UNL1        0.0159
     15 C           5.1143   -0.4909   35.5325 C.ar    1  UNL1        0.0991
     16 N           4.8421    0.1100   36.8797 N.ar    1  UNL1       -0.2124
     17 C           2.3078    2.0378   38.8481 C.3     1  UNL1        0.1151
     18 N           3.7163    1.9389   38.3417 N.pl3   1  UNL1       -0.2747
     19 C           4.8525    2.4408   39.1825 C.3     1  UNL1        0.1151
     20 N           6.2791   -3.7178   25.6592 N.am    1  UNL1       -0.3018
     21 C           7.1850   -3.0136   24.6932 C.2     1  UNL1        0.2426
     22 O           7.8188   -1.7085   25.0742 O.2     1  UNL1       -0.2733
     23 H           5.8632   -4.5743   25.4091 H       1  UNL1        0.1495
     24 C           7.4573   -3.6145   23.3460 C.3     1  UNL1        0.1759
     25 N           6.8873   -2.9793   22.1124 N.am    1  UNL1       -0.2931
     26 C           5.4132   -3.0515   21.8444 C.2     1  UNL1        0.2462
     27 O           4.5091   -3.7590   22.8099 O.2     1  UNL1       -0.2701
     28 H           7.4806   -2.5150   21.4787 H       1  UNL1        0.1502
     29 C           4.8431   -2.4164   20.6109 C.ar    1  UNL1        0.0533
     30 C           5.5907   -2.4952   19.3127 C.ar    1  UNL1        0.0045
     31 C           5.0206   -1.8601   18.0792 C.ar    1  UNL1        0.0001
     32 C           3.7031   -1.1460   18.1438 C.ar    1  UNL1        0.0039
     33 C           2.9556   -1.0671   19.4418 C.ar    1  UNL1        0.0716
     34 C           3.5256   -1.7023   20.6754 C.ar    1  UNL1        0.0084
     35 C           1.6380   -0.3531   19.5063 C.3     1  UNL1        0.4186
     36 F           0.3204    0.3610   19.5708 F       1  UNL1       -0.1659
     37 F           1.3650   -0.9776   20.8425 F       1  UNL1       -0.1659
     38 F           1.9110    0.2714   18.1701 F       1  UNL1       -0.1659
@<TRIPOS>BOND
     1    17    18    1
     2    18    19    1
     3    18    11    1
     4    11    12   ar
     5    12    13   ar
     6    13    14   ar
     7     5    14    1
     8     5     6    1
     9     6     7    1
    10     7     8    1
    11     8     1    1
    12     1     2    1
    13     2     3    1
    14     3    20    1
    15    20    21   am
    16    21    22    2
    17    21    24    1
    18    24    25    1
    19    25    26   am
    20    26    27    2
    21    26    29    1
    22    29    30   ar
    23    30    31   ar
    24    31    32   ar
    25    32    33   ar
    26    33    35    1
    27    35    36    1
    28    35    37    1
    29    35    38    1
    30    33    34   ar
    31     3     4    1
    32     8     9    1
    33     9    10    1
    34    14    15   ar
    35    15    16   ar
    36    16    11   ar
    37    10     5    1
    38     4     1    1
    39    34    29   ar
    40    20    23    1
    41    25    28    1
@<TRIPOS>MOLECULE
*****
 38 41 0 0 0
SMALL
GASTEIGER

@<TRIPOS>ATOM
      1 N           1.9388    1.3175   27.9218 N.3     1  UNL1       -0.2711
      2 C           2.6276    1.7058   29.1966 C.3     1  UNL1        0.0933
      3 C           1.3460    2.2917   29.7106 C.3     1  UNL1        0.1035
      4 C           0.6572    1.9036   28.4359 C.3     1  UNL1        0.0933
      5 C           3.1962   -0.7491   24.1274 C.3     1  UNL1        0.0255
      6 C           3.8193   -1.1381   25.4352 C.3     1  UNL1        0.0058
      7 C           3.4002   -0.4492   26.7000 C.3     1  UNL1        0.0163
      8 C           2.3579    0.6287   26.6570 C.3     1  UNL1        0.0576
      9 C           1.7348    1.0177   25.3492 C.3     1  UNL1        0.0163
     10 C           2.1540    0.3288   24.0844 C.3     1  UNL1        0.0058
     11 C           4.4537   -2.8157   20.3329 C.ar    1  UNL1        0.2203
     12 N           4.8059   -3.4115   21.6636 N.ar    1  UNL1       -0.2124
     13 C           4.3867   -2.7227   22.9284 C.ar    1  UNL1        0.0991
     14 C           3.6154   -1.4379   22.8626 C.ar    1  UNL1        0.0159
     15 C           3.2632   -0.8420   21.5319 C.ar    1  UNL1        0.0991
     16 N           3.6823   -1.5309   20.2670 N.ar    1  UNL1       -0.2124
     17 C           4.5304   -4.9488   18.8517 C.3     1  UNL1        0.1151
     18 N           4.8728   -3.5045   19.0681 N.pl3   1  UNL1       -0.2747
     19 C           5.6344   -2.7491   18.0196 C.3     1  UNL1        0.1151
     20 N           0.9269    2.9806   30.9754 N.am    1  UNL1       -0.3018
     21 C           0.7162    4.4657   30.9862 C.2     1  UNL1        0.2426
     22 O           0.9247    5.2620   29.7322 O.2     1  UNL1       -0.2733
     23 H           0.7900    2.4580   31.7984 H       1  UNL1        0.1495
     24 C           0.2971    5.1545   32.2510 C.3     1  UNL1        0.1759
     25 N           0.5400    4.4988   33.5781 N.am    1  UNL1       -0.2931
     26 C           1.9392    4.3577   34.1000 C.2     1  UNL1        0.2462
     27 O           3.0955    4.8723   33.2948 O.2     1  UNL1       -0.2701
     28 H          -0.2189    4.1611   34.1066 H       1  UNL1        0.1502
     29 C           2.1822    3.7020   35.4270 C.ar    1  UNL1        0.0533
     30 C           1.4782    4.2052   36.6523 C.ar    1  UNL1        0.0045
     31 C           1.7211    3.5495   37.9793 C.ar    1  UNL1        0.0001
     32 C           2.6681    2.3907   38.0811 C.ar    1  UNL1        0.0039
     33 C           3.3721    1.8875   36.8559 C.ar    1  UNL1        0.0716
     34 C           3.1291    2.5432   35.5288 C.ar    1  UNL1        0.0084
     35 C           4.3190    0.7287   36.9577 C.3     1  UNL1        0.4186
     36 F           5.2660   -0.4302   37.0595 F       1  UNL1       -0.1659
     37 F           4.1404    0.4541   35.4939 F       1  UNL1       -0.1659
     38 F           4.4977    1.0033   38.4215 F       1  UNL1       -0.1659
@<TRIPOS>BOND
     1    17    18    1
     2    18    19    1
     3    18    11    1
     4    11    12   ar
     5    12    13   ar
     6    13    14   ar
     7     5    14    1
     8     5     6    1
     9     6     7    1
    10     7     8    1
    11     8     1    1
    12     1     2    1
    13     2     3    1
    14     3    20    1
    15    20    21   am
    16    21    22    2
    17    21    24    1
    18    24    25    1
    19    25    26   am
    20    26    27    2
    21    26    29    1
    22    29    30   ar
    23    30    31   ar
    24    31    32   ar
    25    32    33   ar
    26    33    35    1
    27    35    36    1
    28    35    37    1
    29    35    38    1
    30    33    34   ar
    31     3     4    1
    32     8     9    1
    33     9    10    1
    34    14    15   ar
    35    15    16   ar
    36    16    11   ar
    37    10     5    1
    38     4     1    1
    39    34    29   ar
    40    20    23    1
    41    25    28    1
@<TRIPOS>MOLECULE
*****
 38 41 0 0 0
SMALL
GASTEIGER

@<TRIPOS>ATOM
      1 N           0.6952    0.8179   27.9019 N.3     1  UNL1       -0.2711
      2 C           0.3217    0.3749   29.2855 C.3     1  UNL1        0.0933
      3 C           1.7066   -0.1650   29.4865 C.3     1  UNL1        0.1035
      4 C           2.0802    0.2779   28.1029 C.3     1  UNL1        0.0933
      5 C          -1.4503    2.9029   24.5404 C.3     1  UNL1        0.0255
      6 C          -0.2654    2.0310   24.2474 C.3     1  UNL1        0.0058
      7 C           0.4497    1.3360   25.3679 C.3     1  UNL1        0.0163
      8 C          -0.0199    1.5129   26.7814 C.3     1  UNL1        0.0576
      9 C          -1.2048    2.3848   27.0744 C.3     1  UNL1        0.0163
     10 C          -1.9200    3.0798   25.9539 C.3     1  UNL1        0.0058
     11 C          -3.5958    4.9879   21.1789 C.ar    1  UNL1        0.2203
     12 N          -4.2600    4.8410   22.5157 N.ar    1  UNL1       -0.2124
     13 C          -3.5448    4.1460   23.6362 C.ar    1  UNL1        0.0991
     14 C          -2.1654    3.5979   23.4199 C.ar    1  UNL1        0.0159
     15 C          -1.5012    3.7448   22.0831 C.ar    1  UNL1        0.0991
     16 N          -2.2164    4.4399   20.9626 N.ar    1  UNL1       -0.2124
     17 C          -5.0890    6.9365   20.3286 C.3     1  UNL1        0.1151
     18 N          -4.3109    5.6829   20.0584 N.pl3   1  UNL1       -0.2747
     19 C          -4.2480    5.1243   18.6678 C.3     1  UNL1        0.1151
     20 N           2.4218   -0.8600   30.6070 N.am    1  UNL1       -0.3018
     21 C           3.1959   -0.0606   31.6128 C.2     1  UNL1        0.2426
     22 O           3.2549    1.4339   31.4981 O.2     1  UNL1       -0.2733
     23 H           2.3830   -1.8409   30.6823 H       1  UNL1        0.1495
     24 C           3.9110   -0.7556   32.7333 C.3     1  UNL1        0.1759
     25 N           3.7463   -0.2707   34.1432 N.am    1  UNL1       -0.2931
     26 C           4.7789    0.6313   34.7515 C.2     1  UNL1        0.2462
     27 O           5.9763    1.0484   33.9500 O.2     1  UNL1       -0.2701
     28 H           2.9605   -0.5445   34.6693 H       1  UNL1        0.1502
     29 C           4.6142    1.1162   36.1614 C.ar    1  UNL1        0.0533
     30 C           5.8053    1.6077   36.9294 C.ar    1  UNL1        0.0045
     31 C           5.6406    2.0926   38.3393 C.ar    1  UNL1        0.0001
     32 C           4.2849    2.0860   38.9812 C.ar    1  UNL1        0.0039
     33 C           3.0939    1.5945   38.2132 C.ar    1  UNL1        0.0716
     34 C           3.2585    1.1096   36.8033 C.ar    1  UNL1        0.0084
     35 C           1.7382    1.5879   38.8551 C.3     1  UNL1        0.4186
     36 F           0.3825    1.5813   39.4969 F       1  UNL1       -0.1659
     37 F           1.4782    2.9650   38.3202 F       1  UNL1       -0.1659
     38 F           1.9981    0.2109   39.3900 F       1  UNL1       -0.1659
@<TRIPOS>BOND
     1    17    18    1
     2    18    19    1
     3    18    11    1
     4    11    12   ar
     5    12    13   ar
     6    13    14   ar
     7     5    14    1
     8     5     6    1
     9     6     7    1
    10     7     8    1
    11     8     1    1
    12     1     2    1
    13     2     3    1
    14     3    20    1
    15    20    21   am
    16    21    22    2
    17    21    24    1
    18    24    25    1
    19    25    26   am
    20    26    27    2
    21    26    29    1
    22    29    30   ar
    23    30    31   ar
    24    31    32   ar
    25    32    33   ar
    26    33    35    1
    27    35    36    1
    28    35    37    1
    29    35    38    1
    30    33    34   ar
    31     3     4    1
    32     8     9    1
    33     9    10    1
    34    14    15   ar
    35    15    16   ar
    36    16    11   ar
    37    10     5    1
    38     4     1    1
    39    34    29   ar
    40    20    23    1
    41    25    28    1
