@<TRIPOS>MOLECULE
*****
 29 32 0 0 0
SMALL
GASTEIGER

@<TRIPOS>ATOM
      1 O           6.4536   -4.8103   20.5395 O.2     1  UNL1       -0.1683
      2 S           7.3096   -3.6517   20.9576 S.O2    1  UNL1        0.0129
      3 O           8.1656   -2.4930   21.3757 O.2     1  UNL1       -0.1683
      4 C           6.1736   -2.7122   20.6798 C.ar    1  UNL1        0.1060
      5 C           6.4079   -1.2306   20.6826 C.ar    1  UNL1        0.0184
      6 C           5.2719   -0.2913   20.4048 C.ar    1  UNL1        0.0013
      7 C           3.9018   -0.8334   20.1243 C.ar    1  UNL1        0.0001
      8 C           3.6675   -2.3150   20.1216 C.ar    1  UNL1        0.0013
      9 C           4.8034   -3.2544   20.3993 C.ar    1  UNL1        0.0184
     10 C           2.7658    0.1060   19.8465 C.ar    1  UNL1        0.0001
     11 C           2.9795    1.3016   18.9662 C.ar    1  UNL1        0.0009
     12 C           1.8436    2.2410   18.6884 C.ar    1  UNL1        0.0114
     13 C           0.4939    1.9848   19.2908 C.ar    1  UNL1        0.0577
     14 CL         -0.6420    2.9242   19.0130 Cl      1  UNL1       -0.0822
     15 C           0.2803    0.7891   20.1711 C.ar    1  UNL1        0.0114
     16 C           1.4162   -0.1502   20.4489 C.ar    1  UNL1        0.0009
     17 C           8.4455   -4.5911   21.2354 C.3     1  UNL1        0.1822
     18 C           8.4426   -5.4230   22.4835 C.ar    1  UNL1        0.0014
     19 C           9.1733   -6.7327   22.5136 C.ar    1  UNL1       -0.0029
     20 C           9.1704   -7.5646   23.7618 C.ar    1  UNL1       -0.0048
     21 C           8.4368   -7.0869   24.9799 C.ar    1  UNL1       -0.0247
     22 C           7.7062   -5.7773   24.9497 C.ar    1  UNL1       -0.0250
     23 C           7.7090   -4.9453   23.7016 C.ar    1  UNL1       -0.0071
     24 C           6.9181   -5.1206   26.0442 C.3     1  UNL1        0.0431
     25 C           6.6662   -5.6115   27.4391 C.3     1  UNL1        0.0733
     26 N           7.1400   -6.8801   28.0839 N.3     1  UNL1       -0.2969
     27 C           7.9828   -7.9714   27.4933 C.3     1  UNL1        0.0733
     28 C           8.5600   -8.0634   26.1118 C.3     1  UNL1        0.0431
     29 H           6.2851   -7.3502   28.3815 H       1  UNL1        0.1233
@<TRIPOS>BOND
     1     1     2    2
     2     2     3    2
     3     2    17    1
     4    17    18    1
     5    18    19   ar
     6    19    20   ar
     7    20    21   ar
     8    21    22   ar
     9    22    23   ar
    10    22    24    1
    11    24    25    1
    12    25    26    1
    13    26    27    1
    14    27    28    1
    15     2     4    1
    16     4     5   ar
    17     5     6   ar
    18     6     7   ar
    19     7    10    1
    20    10    11   ar
    21    11    12   ar
    22    12    13   ar
    23    13    14    1
    24    13    15   ar
    25    15    16   ar
    26     7     8   ar
    27     8     9   ar
    28    23    18   ar
    29     9     4   ar
    30    28    21    1
    31    16    10   ar
    32    26    29    1
@<TRIPOS>MOLECULE
*****
 29 32 0 0 0
SMALL
GASTEIGER

@<TRIPOS>ATOM
      1 O           0.6743    3.7969   20.9603 O.2     1  UNL1       -0.1683
      2 S           0.0430    2.4535   20.7444 S.O2    1  UNL1        0.0129
      3 O          -0.5883    1.1100   20.5286 O.2     1  UNL1       -0.1683
      4 C          -1.2280    2.9508   21.3667 C.ar    1  UNL1        0.1060
      5 C          -1.2745    3.2580   22.8342 C.ar    1  UNL1        0.0184
      6 C          -2.5456    3.7553   23.4563 C.ar    1  UNL1        0.0013
      7 C          -3.7701    3.9454   22.6112 C.ar    1  UNL1        0.0001
      8 C          -3.7236    3.6382   21.1437 C.ar    1  UNL1        0.0013
      9 C          -2.4526    3.1409   20.5214 C.ar    1  UNL1        0.0184
     10 C          -5.0412    4.4427   23.2333 C.ar    1  UNL1        0.0001
     11 C          -4.9868    5.3786   24.4043 C.ar    1  UNL1        0.0009
     12 C          -6.2578    5.8760   25.0265 C.ar    1  UNL1        0.0114
     13 C          -7.5832    5.4375   24.4777 C.ar    1  UNL1        0.0577
     14 CL         -8.8542    5.9348   25.0999 Cl      1  UNL1       -0.0822
     15 C          -7.6375    4.5016   23.3067 C.ar    1  UNL1        0.0114
     16 C          -6.3665    4.0043   22.6846 C.ar    1  UNL1        0.0009
     17 C           1.3140    1.9561   20.1222 C.3     1  UNL1        0.1822
     18 C           2.0528    0.8071   20.7418 C.ar    1  UNL1        0.0014
     19 C           2.4651    0.8702   22.1827 C.ar    1  UNL1       -0.0029
     20 C           3.2040   -0.2788   22.8024 C.ar    1  UNL1       -0.0048
     21 C           3.5304   -1.4909   21.9812 C.ar    1  UNL1       -0.0247
     22 C           3.1181   -1.5539   20.5404 C.ar    1  UNL1       -0.0250
     23 C           2.3793   -0.4050   19.9207 C.ar    1  UNL1       -0.0071
     24 C           3.3419   -2.6590   19.5511 C.3     1  UNL1        0.0431
     25 C           4.0333   -3.9740   19.7583 C.3     1  UNL1        0.0733
     26 N           4.6716   -4.5085   21.0060 N.3     1  UNL1       -0.2969
     27 C           4.7763   -3.8603   22.3546 C.3     1  UNL1        0.0733
     28 C           4.2684   -2.5173   22.7886 C.3     1  UNL1        0.0431
     29 H           5.6374   -4.6979   20.7379 H       1  UNL1        0.1233
@<TRIPOS>BOND
     1     1     2    2
     2     2     3    2
     3     2    17    1
     4    17    18    1
     5    18    19   ar
     6    19    20   ar
     7    20    21   ar
     8    21    22   ar
     9    22    23   ar
    10    22    24    1
    11    24    25    1
    12    25    26    1
    13    26    27    1
    14    27    28    1
    15     2     4    1
    16     4     5   ar
    17     5     6   ar
    18     6     7   ar
    19     7    10    1
    20    10    11   ar
    21    11    12   ar
    22    12    13   ar
    23    13    14    1
    24    13    15   ar
    25    15    16   ar
    26     7     8   ar
    27     8     9   ar
    28    23    18   ar
    29     9     4   ar
    30    28    21    1
    31    16    10   ar
    32    26    29    1
@<TRIPOS>MOLECULE
*****
 29 32 0 0 0
SMALL
GASTEIGER

@<TRIPOS>ATOM
      1 O           0.3228    3.7217   24.1725 O.2     1  UNL1       -0.1683
      2 S          -0.1329    2.5245   24.9529 S.O2    1  UNL1        0.0129
      3 O          -0.5887    1.3273   25.7332 O.2     1  UNL1       -0.1683
      4 C           0.6518    1.6303   24.0393 C.ar    1  UNL1        0.1060
      5 C           1.7090    0.7263   24.6008 C.ar    1  UNL1        0.0184
      6 C           2.4936   -0.1678   23.6871 C.ar    1  UNL1        0.0013
      7 C           2.2213   -0.1581   22.2121 C.ar    1  UNL1        0.0001
      8 C           1.1642    0.7460   21.6506 C.ar    1  UNL1        0.0013
      9 C           0.3794    1.6402   22.5642 C.ar    1  UNL1        0.0184
     10 C           3.0060   -1.0522   21.2985 C.ar    1  UNL1        0.0001
     11 C           2.8157   -0.9598   19.8135 C.ar    1  UNL1        0.0009
     12 C           3.6003   -1.8540   18.8997 C.ar    1  UNL1        0.0114
     13 C           4.5753   -2.8404   19.4710 C.ar    1  UNL1        0.0577
     14 CL          5.3600   -3.7345   18.5573 Cl      1  UNL1       -0.0822
     15 C           4.7656   -2.9327   20.9561 C.ar    1  UNL1        0.0114
     16 C           3.9810   -2.0386   21.8697 C.ar    1  UNL1        0.0009
     17 C          -0.9177    3.4187   25.8665 C.3     1  UNL1        0.1822
     18 C          -2.3564    3.7197   25.5673 C.ar    1  UNL1        0.0014
     19 C          -3.2727    4.1695   26.6665 C.ar    1  UNL1       -0.0029
     20 C          -4.7114    4.4706   26.3674 C.ar    1  UNL1       -0.0048
     21 C          -5.2338    4.3217   24.9691 C.ar    1  UNL1       -0.0247
     22 C          -4.3176    3.8719   23.8701 C.ar    1  UNL1       -0.0250
     23 C          -2.8789    3.5709   24.1691 C.ar    1  UNL1       -0.0071
     24 C          -4.6315    3.6602   22.4186 C.3     1  UNL1        0.0431
     25 C          -5.9393    3.8460   21.7079 C.3     1  UNL1        0.0733
     26 N          -7.2561    4.2893   22.2730 N.3     1  UNL1       -0.2969
     27 C          -7.5904    4.6565   23.6884 C.3     1  UNL1        0.0733
     28 C          -6.6904    4.6709   24.8883 C.3     1  UNL1        0.0431
     29 H          -7.8995    3.5309   22.0470 H       1  UNL1        0.1233
@<TRIPOS>BOND
     1     1     2    2
     2     2     3    2
     3     2    17    1
     4    17    18    1
     5    18    19   ar
     6    19    20   ar
     7    20    21   ar
     8    21    22   ar
     9    22    23   ar
    10    22    24    1
    11    24    25    1
    12    25    26    1
    13    26    27    1
    14    27    28    1
    15     2     4    1
    16     4     5   ar
    17     5     6   ar
    18     6     7   ar
    19     7    10    1
    20    10    11   ar
    21    11    12   ar
    22    12    13   ar
    23    13    14    1
    24    13    15   ar
    25    15    16   ar
    26     7     8   ar
    27     8     9   ar
    28    23    18   ar
    29     9     4   ar
    30    28    21    1
    31    16    10   ar
    32    26    29    1
@<TRIPOS>MOLECULE
*****
 29 32 0 0 0
SMALL
GASTEIGER

@<TRIPOS>ATOM
      1 O           1.0437    3.5275   23.2791 O.2     1  UNL1       -0.1683
      2 S           0.6169    2.2732   23.9825 S.O2    1  UNL1        0.0129
      3 O           0.1902    1.0190   24.6859 O.2     1  UNL1       -0.1683
      4 C          -0.7811    2.8069   24.0859 C.ar    1  UNL1        0.1060
      5 C          -1.4837    3.3116   22.8605 C.ar    1  UNL1        0.0184
      6 C          -2.8818    3.8453   22.9639 C.ar    1  UNL1        0.0013
      7 C          -3.5772    3.8742   24.2926 C.ar    1  UNL1        0.0001
      8 C          -2.8746    3.3695   25.5180 C.ar    1  UNL1        0.0013
      9 C          -1.4765    2.8358   25.4147 C.ar    1  UNL1        0.0184
     10 C          -4.9752    4.4079   24.3961 C.ar    1  UNL1        0.0001
     11 C          -5.9904    4.0594   23.3483 C.ar    1  UNL1        0.0009
     12 C          -7.3885    4.5930   23.4517 C.ar    1  UNL1        0.0114
     13 C          -7.7714    5.4751   24.6029 C.ar    1  UNL1        0.0577
     14 CL         -9.1695    6.0087   24.7063 Cl      1  UNL1       -0.0822
     15 C          -6.7561    5.8235   25.6508 C.ar    1  UNL1        0.0114
     16 C          -5.3582    5.2900   25.5473 C.ar    1  UNL1        0.0009
     17 C           2.0150    1.7396   23.8791 C.3     1  UNL1        0.1822
     18 C           2.3378    0.6715   22.8766 C.ar    1  UNL1        0.0014
     19 C           1.8143    0.7758   21.4748 C.ar    1  UNL1       -0.0029
     20 C           2.1371   -0.2923   20.4722 C.ar    1  UNL1       -0.0048
     21 C           2.9833   -1.4647   20.8716 C.ar    1  UNL1       -0.0247
     22 C           3.5066   -1.5690   22.2733 C.ar    1  UNL1       -0.0250
     23 C           3.1840   -0.5010   23.2759 C.ar    1  UNL1       -0.0071
     24 C           4.3607   -2.6454   22.8751 C.3     1  UNL1        0.0431
     25 C           4.9022   -3.8833   22.2236 C.3     1  UNL1        0.0733
     26 N           4.7234   -4.3505   20.8096 N.3     1  UNL1       -0.2969
     27 C           3.9590   -3.6953   19.6976 C.3     1  UNL1        0.0733
     28 C           3.1845   -2.4110   19.7252 C.3     1  UNL1        0.0431
     29 H           4.3037   -5.2760   20.8974 H       1  UNL1        0.1233
@<TRIPOS>BOND
     1     1     2    2
     2     2     3    2
     3     2    17    1
     4    17    18    1
     5    18    19   ar
     6    19    20   ar
     7    20    21   ar
     8    21    22   ar
     9    22    23   ar
    10    22    24    1
    11    24    25    1
    12    25    26    1
    13    26    27    1
    14    27    28    1
    15     2     4    1
    16     4     5   ar
    17     5     6   ar
    18     6     7   ar
    19     7    10    1
    20    10    11   ar
    21    11    12   ar
    22    12    13   ar
    23    13    14    1
    24    13    15   ar
    25    15    16   ar
    26     7     8   ar
    27     8     9   ar
    28    23    18   ar
    29     9     4   ar
    30    28    21    1
    31    16    10   ar
    32    26    29    1
@<TRIPOS>MOLECULE
*****
 29 32 0 0 0
SMALL
GASTEIGER

@<TRIPOS>ATOM
      1 O           7.3674   -2.1954   20.3615 O.2     1  UNL1       -0.1683
      2 S           6.4411   -3.3429   20.0877 S.O2    1  UNL1        0.0129
      3 O           5.5147   -4.4905   19.8140 O.2     1  UNL1       -0.1683
      4 C           6.8627   -3.9901   21.3736 C.ar    1  UNL1        0.1060
      5 C           8.1098   -4.8224   21.4206 C.ar    1  UNL1        0.0184
      6 C           8.5313   -5.4695   22.7065 C.ar    1  UNL1        0.0013
      7 C           7.7060   -5.2844   23.9453 C.ar    1  UNL1        0.0001
      8 C           6.4590   -4.4521   23.8982 C.ar    1  UNL1        0.0013
      9 C           6.0373   -3.8049   22.6124 C.ar    1  UNL1        0.0184
     10 C           8.1276   -5.9316   25.2312 C.ar    1  UNL1        0.0001
     11 C           8.5877   -5.0852   26.3810 C.ar    1  UNL1        0.0009
     12 C           9.0093   -5.7323   27.6670 C.ar    1  UNL1        0.0114
     13 C           8.9708   -7.2256   27.8030 C.ar    1  UNL1        0.0577
     14 CL          9.3924   -7.8727   29.0890 Cl      1  UNL1       -0.0822
     15 C           8.5108   -8.0719   26.6531 C.ar    1  UNL1        0.0114
     16 C           8.0892   -7.4248   25.3673 C.ar    1  UNL1        0.0009
     17 C           6.0194   -2.6958   18.8019 C.3     1  UNL1        0.1822
     18 C           4.8445   -1.7635   18.7816 C.ar    1  UNL1        0.0014
     19 C           4.3890   -1.1592   17.4864 C.ar    1  UNL1       -0.0029
     20 C           3.2140   -0.2269   17.4660 C.ar    1  UNL1       -0.0048
     21 C           2.4946    0.1010   18.7408 C.ar    1  UNL1       -0.0247
     22 C           2.9501   -0.5033   20.0358 C.ar    1  UNL1       -0.0250
     23 C           4.1250   -1.4356   20.0563 C.ar    1  UNL1       -0.0071
     24 C           2.3790   -0.3113   21.4095 C.3     1  UNL1        0.0431
     25 C           1.2113    0.5326   21.8273 C.3     1  UNL1        0.0733
     26 N           0.3265    1.3927   20.9747 N.3     1  UNL1       -0.2969
     27 C           0.3906    1.6216   19.4937 C.3     1  UNL1        0.0733
     28 C           1.3555    1.0467   18.4994 C.3     1  UNL1        0.0431
     29 H           0.4079    2.3247   21.3810 H       1  UNL1        0.1233
@<TRIPOS>BOND
     1     1     2    2
     2     2     3    2
     3     2    17    1
     4    17    18    1
     5    18    19   ar
     6    19    20   ar
     7    20    21   ar
     8    21    22   ar
     9    22    23   ar
    10    22    24    1
    11    24    25    1
    12    25    26    1
    13    26    27    1
    14    27    28    1
    15     2     4    1
    16     4     5   ar
    17     5     6   ar
    18     6     7   ar
    19     7    10    1
    20    10    11   ar
    21    11    12   ar
    22    12    13   ar
    23    13    14    1
    24    13    15   ar
    25    15    16   ar
    26     7     8   ar
    27     8     9   ar
    28    23    18   ar
    29     9     4   ar
    30    28    21    1
    31    16    10   ar
    32    26    29    1
@<TRIPOS>MOLECULE
*****
 29 32 0 0 0
SMALL
GASTEIGER

@<TRIPOS>ATOM
      1 O           6.0525   -6.1400   27.5262 O.2     1  UNL1       -0.1683
      2 S           7.4642   -6.2293   28.0253 S.O2    1  UNL1        0.0129
      3 O           8.8759   -6.3186   28.5244 O.2     1  UNL1       -0.1683
      4 C           7.1308   -5.2803   29.1381 C.ar    1  UNL1        0.1060
      5 C           6.7045   -3.8767   28.8244 C.ar    1  UNL1        0.0184
      6 C           6.3712   -2.9278   29.9373 C.ar    1  UNL1        0.0013
      7 C           6.4641   -3.3823   31.3637 C.ar    1  UNL1        0.0001
      8 C           6.8903   -4.7859   31.6774 C.ar    1  UNL1        0.0013
      9 C           7.2237   -5.7349   30.5646 C.ar    1  UNL1        0.0184
     10 C           6.1307   -2.4334   32.4766 C.ar    1  UNL1        0.0001
     11 C           4.7714   -2.4682   33.1098 C.ar    1  UNL1        0.0009
     12 C           4.4379   -1.5193   34.2227 C.ar    1  UNL1        0.0114
     13 C           5.4638   -0.5356   34.7023 C.ar    1  UNL1        0.0577
     14 CL          5.1304    0.4133   35.8152 Cl      1  UNL1       -0.0822
     15 C           6.8232   -0.5009   34.0690 C.ar    1  UNL1        0.0114
     16 C           7.1565   -1.4497   32.9562 C.ar    1  UNL1        0.0009
     17 C           7.7975   -7.1783   26.9125 C.3     1  UNL1        0.1822
     18 C           8.0661   -6.6524   25.5337 C.ar    1  UNL1        0.0014
     19 C           8.6078   -7.5664   24.4748 C.ar    1  UNL1       -0.0029
     20 C           8.8763   -7.0406   23.0958 C.ar    1  UNL1       -0.0048
     21 C           8.6032   -5.6008   22.7758 C.ar    1  UNL1       -0.0247
     22 C           8.0615   -4.6869   23.8347 C.ar    1  UNL1       -0.0250
     23 C           7.7930   -5.2126   25.2136 C.ar    1  UNL1       -0.0071
     24 C           7.7217   -3.2297   23.7280 C.3     1  UNL1        0.0431
     25 C           7.8397   -2.3267   22.5360 C.3     1  UNL1        0.0733
     26 N           8.3266   -2.6578   21.1565 N.3     1  UNL1       -0.2969
     27 C           8.8158   -3.9737   20.6280 C.3     1  UNL1        0.0733
     28 C           8.9389   -5.2834   21.3487 C.3     1  UNL1        0.0431
     29 H           9.1022   -2.0146   20.9981 H       1  UNL1        0.1233
@<TRIPOS>BOND
     1     1     2    2
     2     2     3    2
     3     2    17    1
     4    17    18    1
     5    18    19   ar
     6    19    20   ar
     7    20    21   ar
     8    21    22   ar
     9    22    23   ar
    10    22    24    1
    11    24    25    1
    12    25    26    1
    13    26    27    1
    14    27    28    1
    15     2     4    1
    16     4     5   ar
    17     5     6   ar
    18     6     7   ar
    19     7    10    1
    20    10    11   ar
    21    11    12   ar
    22    12    13   ar
    23    13    14    1
    24    13    15   ar
    25    15    16   ar
    26     7     8   ar
    27     8     9   ar
    28    23    18   ar
    29     9     4   ar
    30    28    21    1
    31    16    10   ar
    32    26    29    1
@<TRIPOS>MOLECULE
*****
 29 32 0 0 0
SMALL
GASTEIGER

@<TRIPOS>ATOM
      1 O           8.5221   -3.8471   26.7524 O.2     1  UNL1       -0.1683
      2 S           7.4513   -4.8717   26.9842 S.O2    1  UNL1        0.0129
      3 O           6.3806   -5.8963   27.2161 O.2     1  UNL1       -0.1683
      4 C           7.0836   -4.1960   28.2720 C.ar    1  UNL1        0.1060
      5 C           6.6712   -2.7538   28.2711 C.ar    1  UNL1        0.0184
      6 C           6.3035   -2.0782   29.5589 C.ar    1  UNL1        0.0013
      7 C           6.3483   -2.8447   30.8475 C.ar    1  UNL1        0.0001
      8 C           6.7607   -4.2869   30.8484 C.ar    1  UNL1        0.0013
      9 C           7.1284   -4.9626   29.5606 C.ar    1  UNL1        0.0184
     10 C           5.9806   -2.1691   32.1353 C.ar    1  UNL1        0.0001
     11 C           6.9773   -1.2917   32.8330 C.ar    1  UNL1        0.0009
     12 C           6.6097   -0.6160   34.1208 C.ar    1  UNL1        0.0114
     13 C           5.2454   -0.8179   34.7109 C.ar    1  UNL1        0.0577
     14 CL          4.8778   -0.1423   35.9987 Cl      1  UNL1       -0.0822
     15 C           4.2488   -1.6954   34.0131 C.ar    1  UNL1        0.0114
     16 C           4.6164   -2.3709   32.7254 C.ar    1  UNL1        0.0009
     17 C           7.8190   -5.5473   25.6965 C.3     1  UNL1        0.1822
     18 C           7.4292   -4.9284   24.3869 C.ar    1  UNL1        0.0014
     19 C           8.2749   -5.1552   23.1690 C.ar    1  UNL1       -0.0029
     20 C           7.8852   -4.5363   21.8594 C.ar    1  UNL1       -0.0048
     21 C           6.6497   -3.6906   21.7677 C.ar    1  UNL1       -0.0247
     22 C           5.8041   -3.4638   22.9856 C.ar    1  UNL1       -0.0250
     23 C           6.1937   -4.0827   24.2952 C.ar    1  UNL1       -0.0071
     24 C           4.5431   -2.6613   23.1125 C.3     1  UNL1        0.0431
     25 C           3.8165   -1.8873   22.0526 C.3     1  UNL1        0.0733
     26 N           4.1714   -1.7248   20.6044 N.3     1  UNL1       -0.2969
     27 C           5.3404   -2.2961   19.8581 C.3     1  UNL1        0.0733
     28 C           6.4434   -3.1709   20.3758 C.3     1  UNL1        0.0431
     29 H           4.2521   -0.7166   20.4727 H       1  UNL1        0.1233
@<TRIPOS>BOND
     1     1     2    2
     2     2     3    2
     3     2    17    1
     4    17    18    1
     5    18    19   ar
     6    19    20   ar
     7    20    21   ar
     8    21    22   ar
     9    22    23   ar
    10    22    24    1
    11    24    25    1
    12    25    26    1
    13    26    27    1
    14    27    28    1
    15     2     4    1
    16     4     5   ar
    17     5     6   ar
    18     6     7   ar
    19     7    10    1
    20    10    11   ar
    21    11    12   ar
    22    12    13   ar
    23    13    14    1
    24    13    15   ar
    25    15    16   ar
    26     7     8   ar
    27     8     9   ar
    28    23    18   ar
    29     9     4   ar
    30    28    21    1
    31    16    10   ar
    32    26    29    1
@<TRIPOS>MOLECULE
*****
 29 32 0 0 0
SMALL
GASTEIGER

@<TRIPOS>ATOM
      1 O          -2.7050    2.6874   20.7488 O.2     1  UNL1       -0.1683
      2 S          -1.8456    3.7700   20.1662 S.O2    1  UNL1        0.0129
      3 O          -0.9862    4.8527   19.5837 O.2     1  UNL1       -0.1683
      4 C          -0.7640    2.7663   19.8966 C.ar    1  UNL1        0.1060
      5 C          -0.3500    1.8033   20.9696 C.ar    1  UNL1        0.0184
      6 C           0.7316    0.7997   20.6999 C.ar    1  UNL1        0.0013
      7 C           1.3993    0.7590   19.3573 C.ar    1  UNL1        0.0001
      8 C           0.9853    1.7220   18.2843 C.ar    1  UNL1        0.0013
      9 C          -0.0963    2.7256   18.5540 C.ar    1  UNL1        0.0184
     10 C           2.4809   -0.2447   19.0876 C.ar    1  UNL1        0.0001
     11 C           3.4023   -0.0583   17.9186 C.ar    1  UNL1        0.0009
     12 C           4.4840   -1.0619   17.6488 C.ar    1  UNL1        0.0114
     13 C           4.6443   -2.2519   18.5480 C.ar    1  UNL1        0.0577
     14 CL          5.7259   -3.2555   18.2782 Cl      1  UNL1       -0.0822
     15 C           3.7228   -2.4382   19.7169 C.ar    1  UNL1        0.0114
     16 C           2.6413   -1.4346   19.9866 C.ar    1  UNL1        0.0009
     17 C          -2.9273    4.7737   20.4359 C.3     1  UNL1        0.1822
     18 C          -3.5746    4.8337   21.7877 C.ar    1  UNL1        0.0014
     19 C          -5.0384    4.5398   21.9319 C.ar    1  UNL1       -0.0029
     20 C          -5.6859    4.5998   23.2837 C.ar    1  UNL1       -0.0048
     21 C          -4.8694    4.9537   24.4912 C.ar    1  UNL1       -0.0247
     22 C          -3.4056    5.2476   24.3470 C.ar    1  UNL1       -0.0250
     23 C          -2.7582    5.1876   22.9953 C.ar    1  UNL1       -0.0071
     24 C          -2.4166    5.6177   25.4123 C.3     1  UNL1        0.0431
     25 C          -2.6472    5.7852   26.8851 C.3     1  UNL1        0.0733
     26 N          -3.9237    5.6241   27.6560 N.3     1  UNL1       -0.2969
     27 C          -5.2849    5.2556   27.1449 C.3     1  UNL1        0.0733
     28 C          -5.7058    4.9573   25.7364 C.3     1  UNL1        0.0431
     29 H          -4.0588    6.5237   28.1173 H       1  UNL1        0.1233
@<TRIPOS>BOND
     1     1     2    2
     2     2     3    2
     3     2    17    1
     4    17    18    1
     5    18    19   ar
     6    19    20   ar
     7    20    21   ar
     8    21    22   ar
     9    22    23   ar
    10    22    24    1
    11    24    25    1
    12    25    26    1
    13    26    27    1
    14    27    28    1
    15     2     4    1
    16     4     5   ar
    17     5     6   ar
    18     6     7   ar
    19     7    10    1
    20    10    11   ar
    21    11    12   ar
    22    12    13   ar
    23    13    14    1
    24    13    15   ar
    25    15    16   ar
    26     7     8   ar
    27     8     9   ar
    28    23    18   ar
    29     9     4   ar
    30    28    21    1
    31    16    10   ar
    32    26    29    1
@<TRIPOS>MOLECULE
*****
 29 32 0 0 0
SMALL
GASTEIGER

@<TRIPOS>ATOM
      1 O          -0.3667    3.9522   24.3058 O.2     1  UNL1       -0.1683
      2 S          -0.6256    2.7517   25.1671 S.O2    1  UNL1        0.0129
      3 O          -0.8845    1.5513   26.0284 O.2     1  UNL1       -0.1683
      4 C           0.2634    1.9267   24.2844 C.ar    1  UNL1        0.1060
      5 C           1.3187    1.0505   24.8917 C.ar    1  UNL1        0.0184
      6 C           2.2076    0.2256   24.0089 C.ar    1  UNL1        0.0013
      7 C           2.0414    0.2767   22.5191 C.ar    1  UNL1        0.0001
      8 C           0.9861    1.1529   21.9119 C.ar    1  UNL1        0.0013
      9 C           0.0971    1.9780   22.7945 C.ar    1  UNL1        0.0184
     10 C           2.9303   -0.5482   21.6363 C.ar    1  UNL1        0.0001
     11 C           4.3706   -0.7518   22.0027 C.ar    1  UNL1        0.0009
     12 C           5.2596   -1.5768   21.1200 C.ar    1  UNL1        0.0114
     13 C           4.7083   -2.1982   19.8709 C.ar    1  UNL1        0.0577
     14 CL          5.5973   -3.0231   18.9882 Cl      1  UNL1       -0.0822
     15 C           3.2679   -1.9945   19.5047 C.ar    1  UNL1        0.0114
     16 C           2.3791   -1.1696   20.3874 C.ar    1  UNL1        0.0009
     17 C          -1.5145    3.5768   26.0498 C.3     1  UNL1        0.1822
     18 C          -2.9190    3.8843   25.6223 C.ar    1  UNL1        0.0014
     19 C          -3.4394    3.3539   24.3192 C.ar    1  UNL1       -0.0029
     20 C          -4.8440    3.6615   23.8916 C.ar    1  UNL1       -0.0048
     21 C          -5.7280    4.4994   24.7671 C.ar    1  UNL1       -0.0247
     22 C          -5.2076    5.0297   26.0700 C.ar    1  UNL1       -0.0250
     23 C          -3.8031    4.7222   26.4977 C.ar    1  UNL1       -0.0071
     24 C          -5.9161    5.8775   27.0846 C.3     1  UNL1        0.0431
     25 C          -7.3201    6.4042   27.0467 C.3     1  UNL1        0.0733
     26 N          -8.3622    6.2133   25.9850 N.3     1  UNL1       -0.2969
     27 C          -8.2579    5.4485   24.6988 C.3     1  UNL1        0.0733
     28 C          -7.0855    4.6858   24.1568 C.3     1  UNL1        0.0431
     29 H          -8.6127    7.1600   25.6997 H       1  UNL1        0.1233
@<TRIPOS>BOND
     1     1     2    2
     2     2     3    2
     3     2    17    1
     4    17    18    1
     5    18    19   ar
     6    19    20   ar
     7    20    21   ar
     8    21    22   ar
     9    22    23   ar
    10    22    24    1
    11    24    25    1
    12    25    26    1
    13    26    27    1
    14    27    28    1
    15     2     4    1
    16     4     5   ar
    17     5     6   ar
    18     6     7   ar
    19     7    10    1
    20    10    11   ar
    21    11    12   ar
    22    12    13   ar
    23    13    14    1
    24    13    15   ar
    25    15    16   ar
    26     7     8   ar
    27     8     9   ar
    28    23    18   ar
    29     9     4   ar
    30    28    21    1
    31    16    10   ar
    32    26    29    1
