@<TRIPOS>MOLECULE
*****
 29 32 0 0 0
SMALL
GASTEIGER

@<TRIPOS>ATOM
      1 C          -9.5184  -18.9915   21.9574 C.ar    1  UNL1        0.1311
      2 C          -8.6379  -19.7607   22.8971 C.ar    1  UNL1        0.0339
      3 C          -7.3579  -20.3646   22.4005 C.ar    1  UNL1        0.0027
      4 C          -6.9583  -20.1993   20.9642 C.ar    1  UNL1        0.0283
      5 C          -7.8387  -19.4302   20.0244 C.ar    1  UNL1        0.2196
      6 F          -7.4391  -19.2649   18.5881 F       1  UNL1       -0.1835
      7 N          -9.1188  -18.8263   20.5211 N.ar    1  UNL1       -0.2035
      8 N         -10.7985  -18.3876   22.4539 N.pl3   1  UNL1       -0.3144
      9 H         -11.6312  -18.9124   22.4327 H       1  UNL1        0.1485
     10 C         -10.8101  -16.9839   22.9828 C.3     1  UNL1        0.1170
     11 F          -7.5533  -15.3758   26.6986 F       1  UNL1       -0.2025
     12 C          -7.8968  -15.5204   25.2456 C.ar    1  UNL1        0.1590
     13 C          -6.9553  -15.0054   24.1975 C.ar    1  UNL1        0.1284
     14 N          -7.2988  -15.1500   22.7446 N.ar    1  UNL1       -0.2402
     15 C          -8.5837  -15.8095   22.3397 C.ar    1  UNL1        0.0964
     16 C          -9.5252  -16.3244   23.3878 C.ar    1  UNL1        0.0188
     17 C          -9.1817  -16.1799   24.8407 C.ar    1  UNL1        0.0302
     18 C          -5.6781  -20.8033   20.4676 C.3     1  UNL1        0.0582
     19 C          -4.4546  -19.9487   20.3167 C.ar    1  UNL1        0.0044
     20 C          -3.5114  -19.9575   19.1504 C.ar    1  UNL1        0.0966
     21 N          -2.4334  -18.9495   19.4185 N.ar    1  UNL1       -0.2273
     22 C          -2.7104  -18.3177   20.7505 C.ar    1  UNL1        0.1403
     23 N          -1.9866  -17.2599   21.5296 N.ar    1  UNL1       -0.3367
     24 C          -2.5119  -16.8197   22.8638 C.ar    1  UNL1        0.0850
     25 C          -3.7611  -17.4372   23.4189 C.ar    1  UNL1        0.0747
     26 CL         -4.2864  -16.9969   24.7532 Cl      1  UNL1       -0.0807
     27 C          -4.4849  -18.4950   22.6398 C.ar    1  UNL1        0.0156
     28 C          -3.9596  -18.9353   21.3056 C.ar    1  UNL1        0.0327
     29 H          -1.1667  -16.8546   21.1652 H       1  UNL1        0.1674
@<TRIPOS>BOND
     1    11    12    1
     2    12    13   ar
     3    13    14   ar
     4    14    15   ar
     5    15    16   ar
     6    16    10    1
     7    10     8    1
     8     8     1    1
     9     1     2   ar
    10     2     3   ar
    11     3     4   ar
    12     4    18    1
    13    18    19    1
    14    19    20   ar
    15    20    21   ar
    16    21    22   ar
    17    22    23   ar
    18    23    24   ar
    19    24    25   ar
    20    25    26    1
    21    25    27   ar
    22    27    28   ar
    23     4     5   ar
    24     5     6    1
    25     5     7   ar
    26    16    17   ar
    27    17    12   ar
    28     7     1   ar
    29    28    19   ar
    30    28    22    1
    31     8     9    1
    32    23    29    1
@<TRIPOS>MOLECULE
*****
 29 32 0 0 0
SMALL
GASTEIGER

@<TRIPOS>ATOM
      1 C          -5.3644  -19.4556   21.9478 C.ar    1  UNL1        0.1311
      2 C          -5.8015  -20.5502   21.0200 C.ar    1  UNL1        0.0339
      3 C          -7.0874  -20.4192   20.2588 C.ar    1  UNL1        0.0027
      4 C          -7.9361  -19.1937   20.4254 C.ar    1  UNL1        0.0283
      5 C          -7.4990  -18.0991   21.3532 C.ar    1  UNL1        0.2196
      6 F          -8.3477  -16.8736   21.5198 F       1  UNL1       -0.1835
      7 N          -6.2131  -18.2301   22.1143 N.ar    1  UNL1       -0.2035
      8 N          -4.0786  -19.5865   22.7089 N.pl3   1  UNL1       -0.3144
      9 H          -3.9331  -20.3602   23.3001 H       1  UNL1        0.1485
     10 C          -3.0143  -18.5385   22.5695 C.3     1  UNL1        0.1170
     11 F          -3.1762  -16.6732   17.7225 F       1  UNL1       -0.2025
     12 C          -2.4347  -17.3797   18.8184 C.ar    1  UNL1        0.1590
     13 C          -1.0327  -17.8600   18.5868 C.ar    1  UNL1        0.1284
     14 N          -0.2913  -18.5665   19.6827 N.ar    1  UNL1       -0.2402
     15 C          -0.9518  -18.7927   21.0103 C.ar    1  UNL1        0.0964
     16 C          -2.3539  -18.3123   21.2419 C.ar    1  UNL1        0.0188
     17 C          -3.0953  -17.6058   20.1460 C.ar    1  UNL1        0.0302
     18 C          -9.2220  -19.0628   19.6642 C.3     1  UNL1        0.0582
     19 C         -10.4359  -18.4915   20.3351 C.ar    1  UNL1        0.0044
     20 C         -11.4541  -17.5925   19.6985 C.ar    1  UNL1        0.0966
     21 N         -12.4921  -17.2642   20.7304 N.ar    1  UNL1       -0.2273
     22 C         -12.1155  -17.9603   22.0046 C.ar    1  UNL1        0.1403
     23 N         -12.7655  -18.0014   23.3558 N.ar    1  UNL1       -0.3367
     24 C         -12.1447  -18.8011   24.4626 C.ar    1  UNL1        0.0850
     25 C         -10.8739  -19.5595   24.2183 C.ar    1  UNL1        0.0747
     26 CL        -10.2531  -20.3592   25.3252 Cl      1  UNL1       -0.0807
     27 C         -10.2239  -19.5184   22.8671 C.ar    1  UNL1        0.0156
     28 C         -10.8447  -18.7188   21.7603 C.ar    1  UNL1        0.0327
     29 H         -13.5996  -17.5036   23.5161 H       1  UNL1        0.1674
@<TRIPOS>BOND
     1    11    12    1
     2    12    13   ar
     3    13    14   ar
     4    14    15   ar
     5    15    16   ar
     6    16    10    1
     7    10     8    1
     8     8     1    1
     9     1     2   ar
    10     2     3   ar
    11     3     4   ar
    12     4    18    1
    13    18    19    1
    14    19    20   ar
    15    20    21   ar
    16    21    22   ar
    17    22    23   ar
    18    23    24   ar
    19    24    25   ar
    20    25    26    1
    21    25    27   ar
    22    27    28   ar
    23     4     5   ar
    24     5     6    1
    25     5     7   ar
    26    16    17   ar
    27    17    12   ar
    28     7     1   ar
    29    28    19   ar
    30    28    22    1
    31     8     9    1
    32    23    29    1
@<TRIPOS>MOLECULE
*****
 29 32 0 0 0
SMALL
GASTEIGER

@<TRIPOS>ATOM
      1 C          -5.7932  -20.2367   20.7126 C.ar    1  UNL1        0.1311
      2 C          -6.4746  -19.0028   21.2255 C.ar    1  UNL1        0.0339
      3 C          -7.8459  -18.6444   20.7346 C.ar    1  UNL1        0.0027
      4 C          -8.5358  -19.5198   19.7307 C.ar    1  UNL1        0.0283
      5 C          -7.8543  -20.7537   19.2178 C.ar    1  UNL1        0.2196
      6 F          -8.5442  -21.6292   18.2140 F       1  UNL1       -0.1835
      7 N          -6.4831  -21.1121   19.7088 N.ar    1  UNL1       -0.2035
      8 N          -4.4219  -20.5952   21.2035 N.pl3   1  UNL1       -0.3144
      9 H          -3.9745  -21.4048   20.8665 H       1  UNL1        0.1485
     10 C          -3.7323  -19.7202   22.2080 C.3     1  UNL1        0.1170
     11 F           0.0622  -17.8956   19.1630 F       1  UNL1       -0.2025
     12 C          -0.9746  -17.6696   20.2232 C.ar    1  UNL1        0.1590
     13 C          -1.1508  -16.3053   20.8211 C.ar    1  UNL1        0.1284
     14 N          -2.1876  -16.0793   21.8814 N.ar    1  UNL1       -0.2402
     15 C          -3.0480  -17.2176   22.3436 C.ar    1  UNL1        0.0964
     16 C          -2.8718  -18.5820   21.7457 C.ar    1  UNL1        0.0188
     17 C          -1.8350  -18.8079   20.6855 C.ar    1  UNL1        0.0302
     18 C          -9.9071  -19.1613   19.2397 C.3     1  UNL1        0.0582
     19 C         -10.8592  -18.4315   20.1403 C.ar    1  UNL1        0.0044
     20 C         -11.7781  -17.3175   19.7347 C.ar    1  UNL1        0.0966
     21 N         -12.5462  -16.8851   20.9483 N.ar    1  UNL1       -0.2273
     22 C         -12.1020  -17.7318   22.1041 C.ar    1  UNL1        0.1403
     23 N         -12.5122  -17.7560   23.5467 N.ar    1  UNL1       -0.3367
     24 C         -11.8797  -18.7360   24.4899 C.ar    1  UNL1        0.0850
     25 C         -10.8371  -19.6917   23.9905 C.ar    1  UNL1        0.0747
     26 CL        -10.2046  -20.6717   24.9338 Cl      1  UNL1       -0.0807
     27 C         -10.4268  -19.6675   22.5479 C.ar    1  UNL1        0.0156
     28 C         -11.0593  -18.6875   21.6047 C.ar    1  UNL1        0.0327
     29 H         -13.1966  -17.1287   23.8744 H       1  UNL1        0.1674
@<TRIPOS>BOND
     1    11    12    1
     2    12    13   ar
     3    13    14   ar
     4    14    15   ar
     5    15    16   ar
     6    16    10    1
     7    10     8    1
     8     8     1    1
     9     1     2   ar
    10     2     3   ar
    11     3     4   ar
    12     4    18    1
    13    18    19    1
    14    19    20   ar
    15    20    21   ar
    16    21    22   ar
    17    22    23   ar
    18    23    24   ar
    19    24    25   ar
    20    25    26    1
    21    25    27   ar
    22    27    28   ar
    23     4     5   ar
    24     5     6    1
    25     5     7   ar
    26    16    17   ar
    27    17    12   ar
    28     7     1   ar
    29    28    19   ar
    30    28    22    1
    31     8     9    1
    32    23    29    1
@<TRIPOS>MOLECULE
*****
 29 32 0 0 0
SMALL
GASTEIGER

@<TRIPOS>ATOM
      1 C          -8.5724  -16.1792   26.0963 C.ar    1  UNL1        0.1311
      2 C          -9.1041  -15.5386   24.8485 C.ar    1  UNL1        0.0339
      3 C          -9.9513  -16.3337   23.8999 C.ar    1  UNL1        0.0027
      4 C         -10.2670  -17.7693   24.1990 C.ar    1  UNL1        0.0283
      5 C          -9.7354  -18.4098   25.4468 C.ar    1  UNL1        0.2196
      6 F         -10.0510  -19.8454   25.7459 F       1  UNL1       -0.1835
      7 N          -8.8881  -17.6148   26.3954 N.ar    1  UNL1       -0.2035
      8 N          -7.7251  -15.3842   27.0450 N.pl3   1  UNL1       -0.3144
      9 H          -8.1496  -14.7791   27.6953 H       1  UNL1        0.1485
     10 C          -6.2311  -15.5111   27.0029 C.3     1  UNL1        0.1170
     11 F          -3.0973  -18.3726   24.0045 F       1  UNL1       -0.2025
     12 C          -3.9670  -17.1654   24.1945 C.ar    1  UNL1        0.1590
     13 C          -4.1397  -16.1817   23.0754 C.ar    1  UNL1        0.1284
     14 N          -5.0095  -14.9745   23.2654 N.ar    1  UNL1       -0.2402
     15 C          -5.7066  -14.7510   24.5746 C.ar    1  UNL1        0.0964
     16 C          -5.5339  -15.7347   25.6938 C.ar    1  UNL1        0.0188
     17 C          -4.6642  -16.9419   25.5038 C.ar    1  UNL1        0.0302
     18 C         -11.1143  -18.5644   23.2502 C.3     1  UNL1        0.0582
     19 C         -10.6687  -18.7614   21.8316 C.ar    1  UNL1        0.0044
     20 C         -11.5424  -18.6868   20.6146 C.ar    1  UNL1        0.0966
     21 N         -10.6848  -18.9470   19.4117 N.ar    1  UNL1       -0.2273
     22 C          -9.2811  -19.1825   19.8854 C.ar    1  UNL1        0.1403
     23 N          -8.0107  -19.4865   19.1480 N.ar    1  UNL1       -0.3367
     24 C          -6.7305  -19.6758   19.9063 C.ar    1  UNL1        0.0850
     25 C          -6.7205  -19.5611   21.4019 C.ar    1  UNL1        0.0747
     26 CL         -5.4402  -19.7505   22.1601 Cl      1  UNL1       -0.0807
     27 C          -7.9909  -19.2571   22.1392 C.ar    1  UNL1        0.0156
     28 C          -9.2712  -19.0678   21.3809 C.ar    1  UNL1        0.0327
     29 H          -8.0172  -19.5618   18.1664 H       1  UNL1        0.1674
@<TRIPOS>BOND
     1    11    12    1
     2    12    13   ar
     3    13    14   ar
     4    14    15   ar
     5    15    16   ar
     6    16    10    1
     7    10     8    1
     8     8     1    1
     9     1     2   ar
    10     2     3   ar
    11     3     4   ar
    12     4    18    1
    13    18    19    1
    14    19    20   ar
    15    20    21   ar
    16    21    22   ar
    17    22    23   ar
    18    23    24   ar
    19    24    25   ar
    20    25    26    1
    21    25    27   ar
    22    27    28   ar
    23     4     5   ar
    24     5     6    1
    25     5     7   ar
    26    16    17   ar
    27    17    12   ar
    28     7     1   ar
    29    28    19   ar
    30    28    22    1
    31     8     9    1
    32    23    29    1
@<TRIPOS>MOLECULE
*****
 29 32 0 0 0
SMALL
GASTEIGER

@<TRIPOS>ATOM
      1 C          -5.9082  -16.7099   23.5116 C.ar    1  UNL1        0.1311
      2 C          -6.5512  -17.8761   22.8214 C.ar    1  UNL1        0.0339
      3 C          -8.0150  -18.1446   23.0089 C.ar    1  UNL1        0.0027
      4 C          -8.8358  -17.2469   23.8866 C.ar    1  UNL1        0.0283
      5 C          -8.1928  -16.0806   24.5768 C.ar    1  UNL1        0.2196
      6 F          -9.0137  -15.1829   25.4545 F       1  UNL1       -0.1835
      7 N          -6.7290  -15.8121   24.3893 N.ar    1  UNL1       -0.2035
      8 N          -4.4444  -16.4413   23.3242 N.pl3   1  UNL1       -0.3144
      9 H          -4.1094  -15.5155   23.3276 H       1  UNL1        0.1485
     10 C          -3.4909  -17.5832   23.1316 C.3     1  UNL1        0.1170
     11 F           0.4130  -16.8092   19.7910 F       1  UNL1       -0.2025
     12 C          -0.9118  -17.4314   20.1192 C.ar    1  UNL1        0.1590
     13 C          -1.6095  -18.2888   19.1053 C.ar    1  UNL1        0.1284
     14 N          -2.9343  -18.9110   19.4334 N.ar    1  UNL1       -0.2402
     15 C          -3.5614  -18.6757   20.7756 C.ar    1  UNL1        0.0964
     16 C          -2.8637  -17.8183   21.7895 C.ar    1  UNL1        0.0188
     17 C          -1.5389  -17.1961   21.4613 C.ar    1  UNL1        0.0302
     18 C         -10.2997  -17.5154   24.0740 C.3     1  UNL1        0.0582
     19 C         -11.2271  -17.4715   22.8959 C.ar    1  UNL1        0.0044
     20 C         -12.4669  -18.2970   22.7186 C.ar    1  UNL1        0.0966
     21 N         -13.0836  -17.9300   21.4014 N.ar    1  UNL1       -0.2273
     22 C         -12.2249  -16.8777   20.7646 C.ar    1  UNL1        0.1403
     23 N         -12.3396  -16.1409   19.4631 N.ar    1  UNL1       -0.3367
     24 C         -11.3069  -15.1208   19.0853 C.ar    1  UNL1        0.0850
     25 C         -10.1595  -14.8374   20.0090 C.ar    1  UNL1        0.0747
     26 CL         -9.1268  -13.8172   19.6311 Cl      1  UNL1       -0.0807
     27 C         -10.0449  -15.5742   21.3105 C.ar    1  UNL1        0.0156
     28 C         -11.0776  -16.5943   21.6883 C.ar    1  UNL1        0.0327
     29 H         -13.0927  -16.3269   18.8569 H       1  UNL1        0.1674
@<TRIPOS>BOND
     1    11    12    1
     2    12    13   ar
     3    13    14   ar
     4    14    15   ar
     5    15    16   ar
     6    16    10    1
     7    10     8    1
     8     8     1    1
     9     1     2   ar
    10     2     3   ar
    11     3     4   ar
    12     4    18    1
    13    18    19    1
    14    19    20   ar
    15    20    21   ar
    16    21    22   ar
    17    22    23   ar
    18    23    24   ar
    19    24    25   ar
    20    25    26    1
    21    25    27   ar
    22    27    28   ar
    23     4     5   ar
    24     5     6    1
    25     5     7   ar
    26    16    17   ar
    27    17    12   ar
    28     7     1   ar
    29    28    19   ar
    30    28    22    1
    31     8     9    1
    32    23    29    1
@<TRIPOS>MOLECULE
*****
 29 32 0 0 0
SMALL
GASTEIGER

@<TRIPOS>ATOM
      1 C          -4.1410  -18.0954   22.8054 C.ar    1  UNL1        0.1311
      2 C          -4.2477  -19.4925   22.2697 C.ar    1  UNL1        0.0339
      3 C          -5.5968  -20.1059   22.0383 C.ar    1  UNL1        0.0027
      4 C          -6.8392  -19.3224   22.3426 C.ar    1  UNL1        0.0283
      5 C          -6.7325  -17.9254   22.8783 C.ar    1  UNL1        0.2196
      6 F          -7.9749  -17.1419   23.1825 F       1  UNL1       -0.1835
      7 N          -5.3834  -17.3119   23.1096 N.ar    1  UNL1       -0.2035
      8 N          -2.7919  -17.4819   23.0368 N.pl3   1  UNL1       -0.3144
      9 H          -2.2708  -17.7257   23.8357 H       1  UNL1        0.1485
     10 C          -2.2368  -16.4969   22.0510 C.3     1  UNL1        0.1170
     11 F          -3.3998  -16.6980   16.9907 F       1  UNL1       -0.2025
     12 C          -2.4824  -17.0393   18.1273 C.ar    1  UNL1        0.1590
     13 C          -1.2290  -17.8223   17.8704 C.ar    1  UNL1        0.1284
     14 N          -0.3116  -18.1635   19.0070 N.ar    1  UNL1       -0.2402
     15 C          -0.6476  -17.7217   20.4006 C.ar    1  UNL1        0.0964
     16 C          -1.9009  -16.9387   20.6575 C.ar    1  UNL1        0.0188
     17 C          -2.8183  -16.5974   19.5208 C.ar    1  UNL1        0.0302
     18 C          -8.1883  -19.9359   22.1112 C.3     1  UNL1        0.0582
     19 C          -9.2069  -19.2157   21.2782 C.ar    1  UNL1        0.0044
     20 C          -9.0734  -18.8725   19.8241 C.ar    1  UNL1        0.0966
     21 N         -10.3218  -18.1569   19.4004 N.ar    1  UNL1       -0.2273
     22 C         -11.2267  -18.0579   20.5925 C.ar    1  UNL1        0.1403
     23 N         -12.5892  -17.4564   20.7712 N.ar    1  UNL1       -0.3367
     24 C         -13.2625  -17.5093   22.1105 C.ar    1  UNL1        0.0850
     25 C         -12.5734  -18.1636   23.2711 C.ar    1  UNL1        0.0747
     26 CL        -13.2469  -18.2165   24.6105 Cl      1  UNL1       -0.0807
     27 C         -11.2110  -18.7651   23.0924 C.ar    1  UNL1        0.0156
     28 C         -10.5377  -18.7123   21.7531 C.ar    1  UNL1        0.0327
     29 H         -13.0414  -17.0269   20.0095 H       1  UNL1        0.1674
@<TRIPOS>BOND
     1    11    12    1
     2    12    13   ar
     3    13    14   ar
     4    14    15   ar
     5    15    16   ar
     6    16    10    1
     7    10     8    1
     8     8     1    1
     9     1     2   ar
    10     2     3   ar
    11     3     4   ar
    12     4    18    1
    13    18    19    1
    14    19    20   ar
    15    20    21   ar
    16    21    22   ar
    17    22    23   ar
    18    23    24   ar
    19    24    25   ar
    20    25    26    1
    21    25    27   ar
    22    27    28   ar
    23     4     5   ar
    24     5     6    1
    25     5     7   ar
    26    16    17   ar
    27    17    12   ar
    28     7     1   ar
    29    28    19   ar
    30    28    22    1
    31     8     9    1
    32    23    29    1
@<TRIPOS>MOLECULE
*****
 29 32 0 0 0
SMALL
GASTEIGER

@<TRIPOS>ATOM
      1 C          -4.7094  -15.9959   23.4327 C.ar    1  UNL1        0.1311
      2 C          -5.7529  -16.8094   22.7260 C.ar    1  UNL1        0.0339
      3 C          -7.1313  -16.9274   23.3057 C.ar    1  UNL1        0.0027
      4 C          -7.4662  -16.2320   24.5918 C.ar    1  UNL1        0.0283
      5 C          -6.4227  -15.4186   25.2985 C.ar    1  UNL1        0.2196
      6 F          -6.7576  -14.7232   26.5846 F       1  UNL1       -0.1835
      7 N          -5.0443  -15.3005   24.7188 N.ar    1  UNL1       -0.2035
      8 N          -3.3309  -15.8778   22.8531 N.pl3   1  UNL1       -0.3144
      9 H          -2.9785  -14.9949   22.5973 H       1  UNL1        0.1485
     10 C          -2.4894  -17.1050   22.6633 C.3     1  UNL1        0.1170
     11 F          -4.5654  -21.1145   20.0916 F       1  UNL1       -0.2025
     12 C          -3.6570  -19.9213   20.1227 C.ar    1  UNL1        0.1590
     13 C          -2.8781  -19.5396   18.8989 C.ar    1  UNL1        0.1284
     14 N          -1.9697  -18.3464   18.9299 N.ar    1  UNL1       -0.2402
     15 C          -1.8401  -17.5349   20.1847 C.ar    1  UNL1        0.0964
     16 C          -2.6190  -17.9166   21.4085 C.ar    1  UNL1        0.0188
     17 C          -3.5274  -19.1098   21.3775 C.ar    1  UNL1        0.0302
     18 C          -8.8448  -16.3501   25.1715 C.3     1  UNL1        0.0582
     19 C          -9.7700  -17.4292   24.6922 C.ar    1  UNL1        0.0044
     20 C         -10.1012  -18.6958   25.4242 C.ar    1  UNL1        0.0966
     21 N         -11.0623  -19.4805   24.5812 N.ar    1  UNL1       -0.2273
     22 C         -11.3250  -18.6987   23.3282 C.ar    1  UNL1        0.1403
     23 N         -12.1884  -18.9775   22.1337 N.ar    1  UNL1       -0.3367
     24 C         -12.2530  -17.9885   21.0079 C.ar    1  UNL1        0.0850
     25 C         -11.4543  -16.7207   21.0765 C.ar    1  UNL1        0.0747
     26 CL        -11.5189  -15.7317   19.9505 Cl      1  UNL1       -0.0807
     27 C         -10.5909  -16.4419   22.2710 C.ar    1  UNL1        0.0156
     28 C         -10.5263  -17.4309   23.3969 C.ar    1  UNL1        0.0327
     29 H         -12.7126  -19.8096   22.0887 H       1  UNL1        0.1674
@<TRIPOS>BOND
     1    11    12    1
     2    12    13   ar
     3    13    14   ar
     4    14    15   ar
     5    15    16   ar
     6    16    10    1
     7    10     8    1
     8     8     1    1
     9     1     2   ar
    10     2     3   ar
    11     3     4   ar
    12     4    18    1
    13    18    19    1
    14    19    20   ar
    15    20    21   ar
    16    21    22   ar
    17    22    23   ar
    18    23    24   ar
    19    24    25   ar
    20    25    26    1
    21    25    27   ar
    22    27    28   ar
    23     4     5   ar
    24     5     6    1
    25     5     7   ar
    26    16    17   ar
    27    17    12   ar
    28     7     1   ar
    29    28    19   ar
    30    28    22    1
    31     8     9    1
    32    23    29    1
@<TRIPOS>MOLECULE
*****
 29 32 0 0 0
SMALL
GASTEIGER

@<TRIPOS>ATOM
      1 C          -4.3207  -17.4240   23.5421 C.ar    1  UNL1        0.1311
      2 C          -5.4575  -17.9583   22.7222 C.ar    1  UNL1        0.0339
      3 C          -6.8471  -17.4358   22.9364 C.ar    1  UNL1        0.0027
      4 C          -7.0999  -16.3790   23.9704 C.ar    1  UNL1        0.0283
      5 C          -5.9632  -15.8447   24.7904 C.ar    1  UNL1        0.2196
      6 F          -6.2160  -14.7879   25.8244 F       1  UNL1       -0.1835
      7 N          -4.5736  -16.3672   24.5762 N.ar    1  UNL1       -0.2035
      8 N          -2.9310  -17.9465   23.3280 N.pl3   1  UNL1       -0.3144
      9 H          -2.1891  -17.6136   23.8829 H       1  UNL1        0.1485
     10 C          -2.6718  -18.9763   22.2686 C.3     1  UNL1        0.1170
     11 F           1.2720  -16.8008   19.6776 F       1  UNL1       -0.2025
     12 C          -0.0621  -17.4865   19.6764 C.ar    1  UNL1        0.1590
     13 C          -0.7585  -17.7700   18.3784 C.ar    1  UNL1        0.1284
     14 N          -2.0926  -18.4556   18.3772 N.ar    1  UNL1       -0.2402
     15 C          -2.7303  -18.8577   19.6740 C.ar    1  UNL1        0.0964
     16 C          -2.0340  -18.5742   20.9719 C.ar    1  UNL1        0.0188
     17 C          -0.6999  -17.8886   20.9731 C.ar    1  UNL1        0.0302
     18 C          -8.4897  -15.8564   24.1846 C.3     1  UNL1        0.0582
     19 C          -9.6643  -16.7829   24.0759 C.ar    1  UNL1        0.0044
     20 C         -10.0830  -17.7993   25.0965 C.ar    1  UNL1        0.0966
     21 N         -11.3039  -18.5002   24.5789 N.ar    1  UNL1       -0.2273
     22 C         -11.6399  -17.9170   23.2383 C.ar    1  UNL1        0.1403
     23 N         -12.7376  -18.2153   22.2606 N.ar    1  UNL1       -0.3367
     24 C         -12.8219  -17.4522   20.9720 C.ar    1  UNL1        0.0850
     25 C         -11.8086  -16.3909   20.6611 C.ar    1  UNL1        0.0747
     26 CL        -11.8930  -15.6278   19.3724 Cl      1  UNL1       -0.0807
     27 C         -10.7109  -16.0926   21.6389 C.ar    1  UNL1        0.0156
     28 C         -10.6265  -16.8557   22.9275 C.ar    1  UNL1        0.0327
     29 H         -13.4027  -18.9119   22.4646 H       1  UNL1        0.1674
@<TRIPOS>BOND
     1    11    12    1
     2    12    13   ar
     3    13    14   ar
     4    14    15   ar
     5    15    16   ar
     6    16    10    1
     7    10     8    1
     8     8     1    1
     9     1     2   ar
    10     2     3   ar
    11     3     4   ar
    12     4    18    1
    13    18    19    1
    14    19    20   ar
    15    20    21   ar
    16    21    22   ar
    17    22    23   ar
    18    23    24   ar
    19    24    25   ar
    20    25    26    1
    21    25    27   ar
    22    27    28   ar
    23     4     5   ar
    24     5     6    1
    25     5     7   ar
    26    16    17   ar
    27    17    12   ar
    28     7     1   ar
    29    28    19   ar
    30    28    22    1
    31     8     9    1
    32    23    29    1
@<TRIPOS>MOLECULE
*****
 29 32 0 0 0
SMALL
GASTEIGER

@<TRIPOS>ATOM
      1 C          -0.6571    2.2244   20.3532 C.ar    1  UNL1        0.1311
      2 C           0.0855    3.0111   19.3141 C.ar    1  UNL1        0.0339
      3 C           1.1907    2.3652   18.5323 C.ar    1  UNL1        0.0027
      4 C           1.5533    0.9326   18.7895 C.ar    1  UNL1        0.0283
      5 C           0.8106    0.1459   19.8286 C.ar    1  UNL1        0.2196
      6 F           1.1732   -1.2868   20.0858 F       1  UNL1       -0.1835
      7 N          -0.2945    0.7918   20.6104 N.ar    1  UNL1       -0.2035
      8 N          -1.7623    2.8703   21.1351 N.pl3   1  UNL1       -0.3144
      9 H          -1.6650    3.0053   22.1054 H       1  UNL1        0.1485
     10 C          -3.0157    3.3107   20.4386 C.3     1  UNL1        0.1170
     11 F          -5.4874    3.5044   25.0051 F       1  UNL1       -0.2025
     12 C          -5.4887    3.7003   23.5179 C.ar    1  UNL1        0.1590
     13 C          -6.7271    4.1890   22.8269 C.ar    1  UNL1        0.1284
     14 N          -6.7283    4.3849   21.3397 N.ar    1  UNL1       -0.2402
     15 C          -5.4912    4.0921   20.5437 C.ar    1  UNL1        0.0964
     16 C          -4.2528    3.6034   21.2347 C.ar    1  UNL1        0.0188
     17 C          -4.2515    3.4075   22.7219 C.ar    1  UNL1        0.0302
     18 C           2.6585    0.2866   18.0076 C.3     1  UNL1        0.0582
     19 C           3.9642   -0.0292   18.6752 C.ar    1  UNL1        0.0044
     20 C           5.0159    0.9650   19.0694 C.ar    1  UNL1        0.0966
     21 N           6.1490    0.2140   19.7036 N.ar    1  UNL1       -0.2273
     22 C           5.7975   -1.2442   19.7013 C.ar    1  UNL1        0.1403
     23 N           6.5326   -2.4546   20.1959 N.ar    1  UNL1       -0.3367
     24 C           5.9173   -3.8153   20.0548 C.ar    1  UNL1        0.0850
     25 C           4.5669   -3.9656   19.4192 C.ar    1  UNL1        0.0747
     26 CL          3.9517   -5.3263   19.2782 Cl      1  UNL1       -0.0807
     27 C           3.8319   -2.7552   18.9247 C.ar    1  UNL1        0.0156
     28 C           4.4472   -1.3945   19.0657 C.ar    1  UNL1        0.0327
     29 H           7.4188   -2.3559   20.6130 H       1  UNL1        0.1674
@<TRIPOS>BOND
     1    11    12    1
     2    12    13   ar
     3    13    14   ar
     4    14    15   ar
     5    15    16   ar
     6    16    10    1
     7    10     8    1
     8     8     1    1
     9     1     2   ar
    10     2     3   ar
    11     3     4   ar
    12     4    18    1
    13    18    19    1
    14    19    20   ar
    15    20    21   ar
    16    21    22   ar
    17    22    23   ar
    18    23    24   ar
    19    24    25   ar
    20    25    26    1
    21    25    27   ar
    22    27    28   ar
    23     4     5   ar
    24     5     6    1
    25     5     7   ar
    26    16    17   ar
    27    17    12   ar
    28     7     1   ar
    29    28    19   ar
    30    28    22    1
    31     8     9    1
    32    23    29    1
