@<TRIPOS>MOLECULE
*****
 32 36 0 0 0
SMALL
GASTEIGER

@<TRIPOS>ATOM
      1 C           5.0370   -0.6755   17.3275 C.2     1  UNL1        0.2257
      2 O           3.9516   -1.1662   16.4158 O.2     1  UNL1       -0.2749
      3 N           5.5780   -1.5731   18.4006 N.am    1  UNL1       -0.2760
      4 C           5.0337   -2.9615   18.5620 C.3     1  UNL1        0.1149
      5 C           5.5747   -3.8591   19.6351 C.3     1  UNL1        0.1141
      6 N           6.6600   -3.3684   20.5468 N.pl3   1  UNL1       -0.2846
      7 C           7.2043   -1.9801   20.3853 C.3     1  UNL1        0.1141
      8 C           6.6633   -1.0824   19.3122 C.3     1  UNL1        0.1149
      9 C           7.2010   -4.2661   21.6198 C.ar    1  UNL1        0.1631
     10 N           8.1149   -5.4372   21.4119 N.ar    1  UNL1       -0.2241
     11 C           8.4018   -6.0452   22.7528 C.ar    1  UNL1        0.0892
     12 C           9.2386   -7.2203   23.1638 C.ar    1  UNL1        0.0197
     13 C           9.3389   -7.5999   24.6114 C.ar    1  UNL1        0.0016
     14 C           8.6023   -6.8045   25.6481 C.ar    1  UNL1        0.0006
     15 C           7.7656   -5.6294   25.2372 C.ar    1  UNL1        0.0081
     16 C           7.6653   -5.2497   23.7896 C.ar    1  UNL1        0.0497
     17 S           6.9232   -4.1502   23.0893 S.2     1  UNL1       -0.0515
     18 C           4.9579    1.8545   17.9132 C.3     1  UNL1        0.0851
     19 C           5.5023    3.2429   17.7517 C.3     1  UNL1        0.0096
     20 C           6.6700    3.4897   16.8432 C.3     1  UNL1        0.0005
     21 C           7.2934    2.3481   16.0961 C.3     1  UNL1        0.0005
     22 C           6.7491    0.9597   16.2575 C.3     1  UNL1        0.0096
     23 C           5.5813    0.7129   17.1661 C.3     1  UNL1        0.0853
     24 N           2.5384    0.9825   18.2812 N.am    1  UNL1       -0.2959
     25 C           3.7902    1.6077   18.8217 C.2     1  UNL1        0.2231
     26 O           3.8742    1.9861   20.2707 O.2     1  UNL1       -0.2751
     27 H           2.4832    0.7341   17.3301 H       1  UNL1        0.1502
     28 C           1.3707    0.7357   19.1897 C.3     1  UNL1        0.1364
     29 C           0.4843    0.0613   20.1945 C.3     1  UNL1        0.0353
     30 C           1.7755   -0.5813   19.7824 C.3     1  UNL1        0.0353
     31 N          -0.2503    3.1985   18.6354 N.1     1  UNL1       -0.1943
     32 C           0.5602    1.9672   18.9126 C.1     1  UNL1        0.0896
@<TRIPOS>BOND
     1    31    32    3
     2    32    28    1
     3    28    24    1
     4    24    25   am
     5    25    26    2
     6    18    25    1
     7    18    19    1
     8    19    20    1
     9    20    21    1
    10    21    22    1
    11    22    23    1
    12    23     1    1
    13     1     2    2
    14     1     3   am
    15     3     4    1
    16     4     5    1
    17     5     6    1
    18     6     9    1
    19     9    10   ar
    20    10    11   ar
    21    11    12   ar
    22    12    13   ar
    23    13    14   ar
    24    14    15   ar
    25    15    16   ar
    26    16    17   ar
    27     6     7    1
    28     7     8    1
    29    28    29    1
    30    29    30    1
    31    30    28    1
    32    23    18    1
    33     8     3    1
    34    17     9   ar
    35    16    11   ar
    36    24    27    1
@<TRIPOS>MOLECULE
*****
 32 36 0 0 0
SMALL
GASTEIGER

@<TRIPOS>ATOM
      1 C           4.4483    0.3655   22.1465 C.2     1  UNL1        0.2257
      2 O           5.5680    0.8460   21.2717 O.2     1  UNL1       -0.2749
      3 N           4.7456   -0.1905   23.5076 N.am    1  UNL1       -0.2760
      4 C           6.1626   -0.2658   23.9939 C.3     1  UNL1        0.1149
      5 C           6.4598   -0.8218   25.3550 C.3     1  UNL1        0.1141
      6 N           5.3402   -1.3023   26.2298 N.pl3   1  UNL1       -0.2846
      7 C           3.9232   -1.2269   25.7435 C.3     1  UNL1        0.1141
      8 C           3.6259   -0.6710   24.3824 C.3     1  UNL1        0.1149
      9 C           5.6374   -1.8582   27.5909 C.ar    1  UNL1        0.1631
     10 N           6.2983   -3.1731   27.8812 N.ar    1  UNL1       -0.2241
     11 C           6.3954   -3.3244   29.3704 C.ar    1  UNL1        0.0892
     12 C           6.9533   -4.4165   30.2341 C.ar    1  UNL1        0.0197
     13 C           6.9102   -4.2873   31.7278 C.ar    1  UNL1        0.0016
     14 C           6.3093   -3.0659   32.3579 C.ar    1  UNL1        0.0006
     15 C           5.7514   -1.9737   31.4943 C.ar    1  UNL1        0.0081
     16 C           5.7944   -2.1030   30.0005 C.ar    1  UNL1        0.0497
     17 S           5.3260   -1.1969   28.9007 S.2     1  UNL1       -0.0515
     18 C           2.4577   -0.6798   20.8448 C.3     1  UNL1        0.0851
     19 C           1.0406   -0.6044   20.3585 C.3     1  UNL1        0.0096
     20 C           0.1974    0.5916   20.6877 C.3     1  UNL1        0.0005
     21 C           0.7711    1.7123   21.5031 C.3     1  UNL1        0.0005
     22 C           2.1881    1.6369   21.9894 C.3     1  UNL1        0.0096
     23 C           3.0314    0.4408   21.6603 C.3     1  UNL1        0.0853
     24 N           3.5356   -2.2570   19.0840 N.am    1  UNL1       -0.2959
     25 C           3.3009   -1.8759   20.5156 C.2     1  UNL1        0.2231
     26 O           3.9094   -2.6908   21.6181 O.2     1  UNL1       -0.2751
     27 H           3.1362   -1.7221   18.3604 H       1  UNL1        0.1502
     28 C           4.3788   -3.4530   18.7548 C.3     1  UNL1        0.1364
     29 C           4.7956   -4.8865   18.6075 C.3     1  UNL1        0.0353
     30 C           3.4435   -4.5518   19.1643 C.3     1  UNL1        0.0353
     31 N           6.8352   -2.0861   17.7071 N.1     1  UNL1       -0.1943
     32 C           5.6071   -2.7696   18.2310 C.1     1  UNL1        0.0896
@<TRIPOS>BOND
     1    31    32    3
     2    32    28    1
     3    28    24    1
     4    24    25   am
     5    25    26    2
     6    18    25    1
     7    18    19    1
     8    19    20    1
     9    20    21    1
    10    21    22    1
    11    22    23    1
    12    23     1    1
    13     1     2    2
    14     1     3   am
    15     3     4    1
    16     4     5    1
    17     5     6    1
    18     6     9    1
    19     9    10   ar
    20    10    11   ar
    21    11    12   ar
    22    12    13   ar
    23    13    14   ar
    24    14    15   ar
    25    15    16   ar
    26    16    17   ar
    27     6     7    1
    28     7     8    1
    29    28    29    1
    30    29    30    1
    31    30    28    1
    32    23    18    1
    33     8     3    1
    34    17     9   ar
    35    16    11   ar
    36    24    27    1
@<TRIPOS>MOLECULE
*****
 32 36 0 0 0
SMALL
GASTEIGER

@<TRIPOS>ATOM
      1 C          -9.9929  -19.5413   22.9233 C.2     1  UNL1        0.2257
      2 O         -10.3533  -20.8285   23.6038 O.2     1  UNL1       -0.2749
      3 N          -8.5975  -19.3258   22.4169 N.am    1  UNL1       -0.2760
      4 C          -7.5626  -20.3975   22.5909 C.3     1  UNL1        0.1149
      5 C          -6.1672  -20.1821   22.0845 C.3     1  UNL1        0.1141
      6 N          -5.8067  -18.8949   21.4040 N.pl3   1  UNL1       -0.2846
      7 C          -6.8416  -17.8232   21.2299 C.3     1  UNL1        0.1141
      8 C          -8.2370  -18.0386   21.7363 C.3     1  UNL1        0.1149
      9 C          -4.4114  -18.6794   20.8975 C.ar    1  UNL1        0.1631
     10 N          -4.0301  -18.3044   19.4961 N.ar    1  UNL1       -0.2241
     11 C          -2.5354  -18.1943   19.4360 C.ar    1  UNL1        0.0892
     12 C          -1.5983  -17.8542   18.3152 C.ar    1  UNL1        0.0197
     13 C          -0.1186  -17.8211   18.5588 C.ar    1  UNL1        0.0016
     14 C           0.4240  -18.1280   19.9231 C.ar    1  UNL1        0.0006
     15 C          -0.5131  -18.4681   21.0439 C.ar    1  UNL1        0.0081
     16 C          -1.9928  -18.5012   20.8003 C.ar    1  UNL1        0.0497
     17 S          -3.1522  -18.8010   21.7035 S.2     1  UNL1       -0.0515
     18 C         -10.9305  -17.1978   23.5386 C.3     1  UNL1        0.0851
     19 C         -11.9655  -16.1261   23.3645 C.3     1  UNL1        0.0096
     20 C         -13.0977  -16.3262   22.4011 C.3     1  UNL1        0.0005
     21 C         -13.1949  -17.5980   21.6118 C.3     1  UNL1        0.0005
     22 C         -12.1600  -18.6697   21.7858 C.3     1  UNL1        0.0096
     23 C         -11.0278  -18.4696   22.7493 C.3     1  UNL1        0.0853
     24 N          -8.9759  -15.7446   24.4429 N.am    1  UNL1       -0.2959
     25 C          -9.7984  -16.9977   24.5019 C.2     1  UNL1        0.2231
     26 O          -9.4887  -18.0506   25.5244 O.2     1  UNL1       -0.2751
     27 H          -9.1792  -15.0536   23.7718 H       1  UNL1        0.1502
     28 C          -7.8437  -15.5445   25.4062 C.3     1  UNL1        0.1364
     29 C          -7.1133  -15.3456   26.7012 C.3     1  UNL1        0.0353
     30 C          -8.6074  -15.4786   26.6955 C.3     1  UNL1        0.0353
     31 N          -5.5300  -15.5374   23.4967 N.1     1  UNL1       -0.1943
     32 C          -6.6868  -15.5410   24.4514 C.1     1  UNL1        0.0896
@<TRIPOS>BOND
     1    31    32    3
     2    32    28    1
     3    28    24    1
     4    24    25   am
     5    25    26    2
     6    18    25    1
     7    18    19    1
     8    19    20    1
     9    20    21    1
    10    21    22    1
    11    22    23    1
    12    23     1    1
    13     1     2    2
    14     1     3   am
    15     3     4    1
    16     4     5    1
    17     5     6    1
    18     6     9    1
    19     9    10   ar
    20    10    11   ar
    21    11    12   ar
    22    12    13   ar
    23    13    14   ar
    24    14    15   ar
    25    15    16   ar
    26    16    17   ar
    27     6     7    1
    28     7     8    1
    29    28    29    1
    30    29    30    1
    31    30    28    1
    32    23    18    1
    33     8     3    1
    34    17     9   ar
    35    16    11   ar
    36    24    27    1
@<TRIPOS>MOLECULE
*****
 32 36 0 0 0
SMALL
GASTEIGER

@<TRIPOS>ATOM
      1 C           4.9315    1.6798   19.7212 C.2     1  UNL1        0.2257
      2 O           5.5715    1.1296   20.9612 O.2     1  UNL1       -0.2749
      3 N           3.4772    2.0469   19.7275 N.am    1  UNL1       -0.2760
      4 C           2.6628    1.8639   20.9738 C.3     1  UNL1        0.1149
      5 C           1.2085    2.2310   20.9801 C.3     1  UNL1        0.1141
      6 N           0.5685    2.7812   19.7401 N.pl3   1  UNL1       -0.2846
      7 C           1.3828    2.9643   18.4938 C.3     1  UNL1        0.1141
      8 C           2.8372    2.5971   18.4875 C.3     1  UNL1        0.1149
      9 C          -0.8859    3.1484   19.7464 C.ar    1  UNL1        0.1631
     10 N          -1.9075    2.6866   20.7429 N.ar    1  UNL1       -0.2241
     11 C          -3.2270    3.2946   20.3697 C.ar    1  UNL1        0.0892
     12 C          -4.5896    3.1938   20.9887 C.ar    1  UNL1        0.0197
     13 C          -5.7460    3.9305   20.3806 C.ar    1  UNL1        0.0016
     14 C          -5.5399    4.7680   19.1533 C.ar    1  UNL1        0.0006
     15 C          -4.1773    4.8688   18.5343 C.ar    1  UNL1        0.0081
     16 C          -3.0209    4.1321   19.1424 C.ar    1  UNL1        0.0497
     17 S          -1.5740    4.0417   18.7572 S.2     1  UNL1       -0.0515
     18 C           5.7438    0.8015   17.4150 C.3     1  UNL1        0.0851
     19 C           6.5582    0.9846   16.1687 C.3     1  UNL1        0.0096
     20 C           7.3747    2.2290   15.9824 C.3     1  UNL1        0.0005
     21 C           7.3768    3.2904   17.0423 C.3     1  UNL1        0.0005
     22 C           6.5625    3.1073   18.2886 C.3     1  UNL1        0.0096
     23 C           5.7459    1.8628   18.4750 C.3     1  UNL1        0.0853
     24 N           5.0374   -1.2286   18.8743 N.am    1  UNL1       -0.2959
     25 C           4.9273   -0.4429   17.6013 C.2     1  UNL1        0.2231
     26 O           4.0007   -0.9016   16.5146 O.2     1  UNL1       -0.2751
     27 H           5.6456   -0.9276   19.5875 H       1  UNL1        0.1502
     28 C           4.2209   -2.4730   19.0606 C.3     1  UNL1        0.1364
     29 C           3.8397   -3.9238   19.0486 C.3     1  UNL1        0.0353
     30 C           5.1908   -3.4992   18.5545 C.3     1  UNL1        0.0353
     31 N           1.7139   -1.2850   20.2022 N.1     1  UNL1       -0.1943
     32 C           2.9674   -1.8790   19.6314 C.1     1  UNL1        0.0896
@<TRIPOS>BOND
     1    31    32    3
     2    32    28    1
     3    28    24    1
     4    24    25   am
     5    25    26    2
     6    18    25    1
     7    18    19    1
     8    19    20    1
     9    20    21    1
    10    21    22    1
    11    22    23    1
    12    23     1    1
    13     1     2    2
    14     1     3   am
    15     3     4    1
    16     4     5    1
    17     5     6    1
    18     6     9    1
    19     9    10   ar
    20    10    11   ar
    21    11    12   ar
    22    12    13   ar
    23    13    14   ar
    24    14    15   ar
    25    15    16   ar
    26    16    17   ar
    27     6     7    1
    28     7     8    1
    29    28    29    1
    30    29    30    1
    31    30    28    1
    32    23    18    1
    33     8     3    1
    34    17     9   ar
    35    16    11   ar
    36    24    27    1
@<TRIPOS>MOLECULE
*****
 32 36 0 0 0
SMALL
GASTEIGER

@<TRIPOS>ATOM
      1 C           4.3599    0.7827   22.5426 C.2     1  UNL1        0.2257
      2 O           5.3070    1.7900   21.9610 O.2     1  UNL1       -0.2749
      3 N           4.7205    0.0549   23.8037 N.am    1  UNL1       -0.2760
      4 C           6.0282    0.3344   24.4832 C.3     1  UNL1        0.1149
      5 C           6.3888   -0.3934   25.7442 C.3     1  UNL1        0.1141
      6 N           5.4417   -1.4007   26.3258 N.pl3   1  UNL1       -0.2846
      7 C           4.1340   -1.6802   25.6463 C.3     1  UNL1        0.1141
      8 C           3.7734   -0.9524   24.3853 C.3     1  UNL1        0.1149
      9 C           5.8023   -2.1285   27.5869 C.ar    1  UNL1        0.1631
     10 N           6.2074   -3.5692   27.6883 N.ar    1  UNL1       -0.2241
     11 C           6.4766   -3.8745   29.1321 C.ar    1  UNL1        0.0892
     12 C           6.9082   -5.1308   29.8287 C.ar    1  UNL1        0.0197
     13 C           7.1011   -5.1351   31.3162 C.ar    1  UNL1        0.0016
     14 C           6.8625   -3.8830   32.1071 C.ar    1  UNL1        0.0006
     15 C           6.4309   -2.6267   31.4104 C.ar    1  UNL1        0.0081
     16 C           6.2379   -2.6225   29.9229 C.ar    1  UNL1        0.0497
     17 S           5.8212   -1.5434   28.9679 S.2     1  UNL1       -0.0515
     18 C           2.9638   -0.5701   20.8190 C.3     1  UNL1        0.0851
     19 C           1.6560   -0.8496   20.1395 C.3     1  UNL1        0.0096
     20 C           0.4367   -0.0559   20.5042 C.3     1  UNL1        0.0005
     21 C           0.5250    1.0174   21.5483 C.3     1  UNL1        0.0005
     22 C           1.8327    1.2970   22.2278 C.3     1  UNL1        0.0096
     23 C           3.0522    0.5031   21.8632 C.3     1  UNL1        0.0853
     24 N           4.4866   -2.6452   21.1729 N.am    1  UNL1       -0.2959
     25 C           4.1832   -1.3639   20.4543 C.2     1  UNL1        0.2231
     26 O           5.0991   -0.8764   19.3712 O.2     1  UNL1       -0.2751
     27 H           3.8854   -2.9652   21.8838 H       1  UNL1        0.1502
     28 C           5.7059   -3.4390   20.8082 C.3     1  UNL1        0.1364
     29 C           7.1216   -3.9349   20.8232 C.3     1  UNL1        0.0353
     30 C           6.6943   -2.8570   21.7747 C.3     1  UNL1        0.0353
     31 N           4.5760   -5.1545   18.6218 N.1     1  UNL1       -0.1943
     32 C           5.1410   -4.2968   19.7150 C.1     1  UNL1        0.0896
@<TRIPOS>BOND
     1    31    32    3
     2    32    28    1
     3    28    24    1
     4    24    25   am
     5    25    26    2
     6    18    25    1
     7    18    19    1
     8    19    20    1
     9    20    21    1
    10    21    22    1
    11    22    23    1
    12    23     1    1
    13     1     2    2
    14     1     3   am
    15     3     4    1
    16     4     5    1
    17     5     6    1
    18     6     9    1
    19     9    10   ar
    20    10    11   ar
    21    11    12   ar
    22    12    13   ar
    23    13    14   ar
    24    14    15   ar
    25    15    16   ar
    26    16    17   ar
    27     6     7    1
    28     7     8    1
    29    28    29    1
    30    29    30    1
    31    30    28    1
    32    23    18    1
    33     8     3    1
    34    17     9   ar
    35    16    11   ar
    36    24    27    1
@<TRIPOS>MOLECULE
*****
 32 36 0 0 0
SMALL
GASTEIGER

@<TRIPOS>ATOM
      1 C          -0.6357    4.6523   23.0269 C.2     1  UNL1        0.2257
      2 O          -0.3932    6.0805   22.6382 O.2     1  UNL1       -0.2749
      3 N           0.1679    3.5556   22.3932 N.am    1  UNL1       -0.2760
      4 C           1.2141    3.8873   21.3706 C.3     1  UNL1        0.1149
      5 C           2.0177    2.7907   20.7369 C.3     1  UNL1        0.1141
      6 N           1.7752    1.3624   21.1256 N.pl3   1  UNL1       -0.2846
      7 C           0.7291    1.0308   22.1482 C.3     1  UNL1        0.1141
      8 C          -0.0746    2.1274   22.7819 C.3     1  UNL1        0.1149
      9 C           2.5788    0.2658   20.4919 C.ar    1  UNL1        0.1631
     10 N           2.2186   -1.1901   20.4675 N.ar    1  UNL1       -0.2241
     11 C           3.3009   -1.9231   19.7318 C.ar    1  UNL1        0.0892
     12 C           3.4823   -3.3742   19.3981 C.ar    1  UNL1        0.0197
     13 C           4.6928   -3.8225   18.6341 C.ar    1  UNL1        0.0016
     14 C           5.7219   -2.8196   18.2038 C.ar    1  UNL1        0.0006
     15 C           5.5405   -1.3685   18.5374 C.ar    1  UNL1        0.0081
     16 C           4.3300   -0.9203   19.3014 C.ar    1  UNL1        0.0497
     17 S           3.8837    0.4325   19.7712 S.2     1  UNL1       -0.0515
     18 C          -3.1221    4.2187   23.6431 C.3     1  UNL1        0.0851
     19 C          -4.1682    3.8870   24.6657 C.3     1  UNL1        0.0096
     20 C          -3.7740    3.6572   26.0946 C.3     1  UNL1        0.0005
     21 C          -2.3337    3.7591   26.5009 C.3     1  UNL1        0.0005
     22 C          -1.2876    4.0908   25.4784 C.3     1  UNL1        0.0096
     23 C          -1.6818    4.3206   24.0494 C.3     1  UNL1        0.0853
     24 N          -3.5216    3.3043   21.2443 N.am    1  UNL1       -0.2959
     25 C          -3.5163    4.4485   22.2142 C.2     1  UNL1        0.2231
     26 O          -3.9052    5.8226   21.7552 O.2     1  UNL1       -0.2751
     27 H          -3.2663    2.4024   21.5456 H       1  UNL1        0.1502
     28 C          -3.9158    3.5341   19.8154 C.3     1  UNL1        0.1364
     29 C          -4.7768    3.6614   18.5937 C.3     1  UNL1        0.0353
     30 C          -5.3968    3.3188   19.9159 C.3     1  UNL1        0.0353
     31 N          -1.2275    4.1244   18.6218 N.1     1  UNL1       -0.1943
     32 C          -2.5716    3.8292   19.2186 C.1     1  UNL1        0.0896
@<TRIPOS>BOND
     1    31    32    3
     2    32    28    1
     3    28    24    1
     4    24    25   am
     5    25    26    2
     6    18    25    1
     7    18    19    1
     8    19    20    1
     9    20    21    1
    10    21    22    1
    11    22    23    1
    12    23     1    1
    13     1     2    2
    14     1     3   am
    15     3     4    1
    16     4     5    1
    17     5     6    1
    18     6     9    1
    19     9    10   ar
    20    10    11   ar
    21    11    12   ar
    22    12    13   ar
    23    13    14   ar
    24    14    15   ar
    25    15    16   ar
    26    16    17   ar
    27     6     7    1
    28     7     8    1
    29    28    29    1
    30    29    30    1
    31    30    28    1
    32    23    18    1
    33     8     3    1
    34    17     9   ar
    35    16    11   ar
    36    24    27    1
@<TRIPOS>MOLECULE
*****
 32 36 0 0 0
SMALL
GASTEIGER

@<TRIPOS>ATOM
      1 C           4.4781   -0.4139   20.8185 C.2     1  UNL1        0.2257
      2 O           5.7648    0.2266   21.2478 O.2     1  UNL1       -0.2749
      3 N           3.1844    0.3311   20.9641 N.am    1  UNL1       -0.2760
      4 C           3.1772    1.7166   21.5389 C.3     1  UNL1        0.1149
      5 C           1.8835    2.4616   21.6845 C.3     1  UNL1        0.1141
      6 N           0.5968    1.8211   21.2552 N.pl3   1  UNL1       -0.2846
      7 C           0.6039    0.4357   20.6804 C.3     1  UNL1        0.1141
      8 C           1.8977   -0.3093   20.5348 C.3     1  UNL1        0.1149
      9 C          -0.6969    2.5661   21.4008 C.ar    1  UNL1        0.1631
     10 N          -1.8627    2.5009   20.4591 N.ar    1  UNL1       -0.2241
     11 C          -2.9383    3.4016   20.9899 C.ar    1  UNL1        0.0892
     12 C          -4.3092    3.7359   20.4810 C.ar    1  UNL1        0.0197
     13 C          -5.1791    4.6920   21.2420 C.ar    1  UNL1        0.0016
     14 C          -4.6781    5.3139   22.5117 C.ar    1  UNL1        0.0006
     15 C          -3.3072    4.9796   23.0206 C.ar    1  UNL1        0.0081
     16 C          -2.4373    4.0235   22.2596 C.ar    1  UNL1        0.0497
     17 S          -1.0521    3.5071   22.5136 S.2     1  UNL1       -0.0515
     18 C           4.6807   -1.9988   18.7700 C.3     1  UNL1        0.0851
     19 C           4.6878   -3.3844   18.1951 C.3     1  UNL1        0.0096
     20 C           4.4994   -4.5703   19.0941 C.3     1  UNL1        0.0005
     21 C           4.3039   -4.3707   20.5678 C.3     1  UNL1        0.0005
     22 C           4.2968   -2.9853   21.1427 C.3     1  UNL1        0.0096
     23 C           4.4852   -1.7993   20.2437 C.3     1  UNL1        0.0853
     24 N           5.8035    0.2903   18.2708 N.am    1  UNL1       -0.2959
     25 C           4.8692   -0.8129   17.8710 C.2     1  UNL1        0.2231
     26 O           4.1232   -0.7303   16.5723 O.2     1  UNL1       -0.2751
     27 H           6.2931    0.2360   19.1232 H       1  UNL1        0.1502
     28 C           5.9919    1.4762   17.3719 C.3     1  UNL1        0.1364
     29 C           6.5490    2.3461   16.2842 C.3     1  UNL1        0.0353
     30 C           7.1188    0.9781   16.5164 C.3     1  UNL1        0.0353
     31 N           3.8689    3.2961   18.4586 N.1     1  UNL1       -0.1943
     32 C           4.9304    2.3862   17.9153 C.1     1  UNL1        0.0896
@<TRIPOS>BOND
     1    31    32    3
     2    32    28    1
     3    28    24    1
     4    24    25   am
     5    25    26    2
     6    18    25    1
     7    18    19    1
     8    19    20    1
     9    20    21    1
    10    21    22    1
    11    22    23    1
    12    23     1    1
    13     1     2    2
    14     1     3   am
    15     3     4    1
    16     4     5    1
    17     5     6    1
    18     6     9    1
    19     9    10   ar
    20    10    11   ar
    21    11    12   ar
    22    12    13   ar
    23    13    14   ar
    24    14    15   ar
    25    15    16   ar
    26    16    17   ar
    27     6     7    1
    28     7     8    1
    29    28    29    1
    30    29    30    1
    31    30    28    1
    32    23    18    1
    33     8     3    1
    34    17     9   ar
    35    16    11   ar
    36    24    27    1
@<TRIPOS>MOLECULE
*****
 32 36 0 0 0
SMALL
GASTEIGER

@<TRIPOS>ATOM
      1 C         -16.3867    2.4742   19.1922 C.2     1  UNL1        0.2257
      2 O         -17.7127    2.4665   19.8934 O.2     1  UNL1       -0.2749
      3 N         -15.5574    1.2254   19.1423 N.am    1  UNL1       -0.2760
      4 C         -16.0539   -0.0312   19.7936 C.3     1  UNL1        0.1149
      5 C         -15.2245   -1.2801   19.7438 C.3     1  UNL1        0.1141
      6 N         -13.8986   -1.2723   19.0425 N.pl3   1  UNL1       -0.2846
      7 C         -13.4020   -0.0157   18.3911 C.3     1  UNL1        0.1141
      8 C         -14.2314    1.2331   18.4410 C.3     1  UNL1        0.1149
      9 C         -13.0692   -2.5212   18.9926 C.ar    1  UNL1        0.1631
     10 N         -11.5728   -2.5831   18.9093 N.ar    1  UNL1       -0.2241
     11 C         -11.1693   -4.0276   18.8825 C.ar    1  UNL1        0.0892
     12 C          -9.8275   -4.6936   18.8059 C.ar    1  UNL1        0.0197
     13 C          -9.7328   -6.1906   18.7961 C.ar    1  UNL1        0.0016
     14 C         -10.9799   -7.0214   18.8628 C.ar    1  UNL1        0.0006
     15 C         -12.3217   -6.3554   18.9393 C.ar    1  UNL1        0.0081
     16 C         -12.4164   -4.8584   18.9492 C.ar    1  UNL1        0.0497
     17 S         -13.5906   -3.9274   19.0173 S.2     1  UNL1       -0.0515
     18 C         -15.4019    4.8706   19.3848 C.3     1  UNL1        0.0851
     19 C         -14.9053    6.1273   18.7334 C.3     1  UNL1        0.0096
     20 C         -14.8971    6.2441   17.2380 C.3     1  UNL1        0.0005
     21 C         -15.3854    5.1043   16.3940 C.3     1  UNL1        0.0005
     22 C         -15.8820    3.8477   17.0453 C.3     1  UNL1        0.0096
     23 C         -15.8902    3.7308   18.5408 C.3     1  UNL1        0.0853
     24 N         -16.6861    4.9590   21.6415 N.am    1  UNL1       -0.2959
     25 C         -15.4101    4.7538   20.8802 C.2     1  UNL1        0.2231
     26 O         -14.1422    4.4319   21.6143 O.2     1  UNL1       -0.2751
     27 H         -17.5182    5.1703   21.1597 H       1  UNL1        0.1502
     28 C         -16.6943    4.8422   23.1369 C.3     1  UNL1        0.1364
     29 C         -16.5659    5.2255   24.5815 C.3     1  UNL1        0.0353
     30 C         -16.3039    6.2416   23.5097 C.3     1  UNL1        0.0353
     31 N         -17.4809    1.9620   23.4302 N.1     1  UNL1       -0.1943
     32 C         -17.0876    3.4021   23.2835 C.1     1  UNL1        0.0896
@<TRIPOS>BOND
     1    31    32    3
     2    32    28    1
     3    28    24    1
     4    24    25   am
     5    25    26    2
     6    18    25    1
     7    18    19    1
     8    19    20    1
     9    20    21    1
    10    21    22    1
    11    22    23    1
    12    23     1    1
    13     1     2    2
    14     1     3   am
    15     3     4    1
    16     4     5    1
    17     5     6    1
    18     6     9    1
    19     9    10   ar
    20    10    11   ar
    21    11    12   ar
    22    12    13   ar
    23    13    14   ar
    24    14    15   ar
    25    15    16   ar
    26    16    17   ar
    27     6     7    1
    28     7     8    1
    29    28    29    1
    30    29    30    1
    31    30    28    1
    32    23    18    1
    33     8     3    1
    34    17     9   ar
    35    16    11   ar
    36    24    27    1
@<TRIPOS>MOLECULE
*****
 32 36 0 0 0
SMALL
GASTEIGER

@<TRIPOS>ATOM
      1 C           6.6790   -0.4262   30.0405 C.2     1  UNL1        0.2257
      2 O           7.9684    0.3083   30.2585 O.2     1  UNL1       -0.2749
      3 N           6.1871   -0.6804   28.6464 N.am    1  UNL1       -0.2760
      4 C           6.9847   -0.2001   27.4704 C.3     1  UNL1        0.1149
      5 C           6.4928   -0.4543   26.0763 C.3     1  UNL1        0.1141
      6 N           5.2034   -1.1889   25.8582 N.pl3   1  UNL1       -0.2846
      7 C           4.4058   -1.6692   27.0342 C.3     1  UNL1        0.1141
      8 C           4.8976   -1.4150   28.4283 C.3     1  UNL1        0.1149
      9 C           4.7115   -1.4431   24.4642 C.ar    1  UNL1        0.1631
     10 N           3.7212   -0.6044   23.7119 N.ar    1  UNL1       -0.2241
     11 C           3.5212   -1.2236   22.3604 C.ar    1  UNL1        0.0892
     12 C           2.6618   -0.8330   21.1947 C.ar    1  UNL1        0.0197
     13 C           2.6693   -1.6638   19.9459 C.ar    1  UNL1        0.0016
     14 C           3.5360   -2.8852   19.8628 C.ar    1  UNL1        0.0006
     15 C           4.3954   -3.2758   21.0285 C.ar    1  UNL1        0.0081
     16 C           4.3880   -2.4450   22.2773 C.ar    1  UNL1        0.0497
     17 S           5.1236   -2.5806   23.5775 S.2     1  UNL1       -0.0515
     18 C           6.0546   -2.3098   31.7174 C.3     1  UNL1        0.0851
     19 C           5.2569   -2.7902   32.8935 C.3     1  UNL1        0.0096
     20 C           4.2861   -1.8673   33.5685 C.3     1  UNL1        0.0005
     21 C           4.1128   -0.4641   33.0676 C.3     1  UNL1        0.0005
     22 C           4.9104    0.0163   31.8916 C.3     1  UNL1        0.0096
     23 C           5.8814   -0.9066   31.2165 C.3     1  UNL1        0.0853
     24 N           6.5359   -4.2284   30.0330 N.am    1  UNL1       -0.2959
     25 C           7.0255   -3.2327   31.0424 C.2     1  UNL1        0.2231
     26 O           8.4859   -3.1598   31.3767 O.2     1  UNL1       -0.2751
     27 H           5.5774   -4.2763   29.8136 H       1  UNL1        0.1502
     28 C           7.5068   -5.1513   29.3580 C.3     1  UNL1        0.1364
     29 C           8.4282   -6.3152   29.1421 C.3     1  UNL1        0.0353
     30 C           7.7013   -6.1657   30.4457 C.3     1  UNL1        0.0353
     31 N           7.7922   -3.7635   26.7137 N.1     1  UNL1       -0.1943
     32 C           7.6495   -4.4574   28.0358 C.1     1  UNL1        0.0896
@<TRIPOS>BOND
     1    31    32    3
     2    32    28    1
     3    28    24    1
     4    24    25   am
     5    25    26    2
     6    18    25    1
     7    18    19    1
     8    19    20    1
     9    20    21    1
    10    21    22    1
    11    22    23    1
    12    23     1    1
    13     1     2    2
    14     1     3   am
    15     3     4    1
    16     4     5    1
    17     5     6    1
    18     6     9    1
    19     9    10   ar
    20    10    11   ar
    21    11    12   ar
    22    12    13   ar
    23    13    14   ar
    24    14    15   ar
    25    15    16   ar
    26    16    17   ar
    27     6     7    1
    28     7     8    1
    29    28    29    1
    30    29    30    1
    31    30    28    1
    32    23    18    1
    33     8     3    1
    34    17     9   ar
    35    16    11   ar
    36    24    27    1
