@<TRIPOS>MOLECULE
*****
 26 27 0 0 0
SMALL
GASTEIGER

@<TRIPOS>ATOM
      1 C          -5.2379  -19.7440   20.9050 C.ar    1  UNL1       -0.0178
      2 C          -3.9249  -20.2365   20.3727 C.ar    1  UNL1       -0.0040
      3 C          -2.6439  -19.8166   21.0306 C.ar    1  UNL1        0.0028
      4 C          -2.6760  -18.9043   22.2208 C.ar    1  UNL1        0.0369
      5 C          -3.9890  -18.4118   22.7531 C.ar    1  UNL1        0.1382
      6 C          -5.2699  -18.8316   22.0953 C.ar    1  UNL1        0.0327
      7 C          -6.5189  -20.1638   20.2472 C.3     1  UNL1        0.0435
      8 C          -7.7553  -19.3309   20.4131 C.3     1  UNL1        0.0737
      9 N          -8.7500  -19.2338   19.2945 N.3     1  UNL1       -0.2895
     10 H          -8.7101  -18.2755   18.9474 H       1  UNL1        0.1237
     11 C         -10.1958  -19.5429   19.5475 C.3     1  UNL1        0.1552
     12 O         -11.7398  -17.4568   19.6676 O.2     1  UNL1       -0.2734
     13 C         -11.0366  -18.5935   20.3485 C.2     1  UNL1        0.2418
     14 N         -11.1743  -18.7807   21.8304 N.am    1  UNL1       -0.2784
     15 C         -11.9764  -17.9164   22.7575 C.3     1  UNL1        0.0935
     16 C         -11.8319  -18.4667   24.1455 C.3     1  UNL1        0.0233
     17 C         -10.9404  -19.6711   24.0761 C.3     1  UNL1        0.0233
     18 C         -10.5341  -19.8651   22.6453 C.3     1  UNL1        0.0935
     19 O          -4.0210  -17.4995   23.9433 O.3     1  UNL1       -0.4755
     20 C          -4.9440  -16.3172   23.9574 C.3     1  UNL1        0.2057
     21 C          -5.3397  -15.6901   25.2613 C.3     1  UNL1        0.0561
     22 C          -6.7545  -15.2416   25.4791 C.3     1  UNL1        0.1072
     23 C          -7.5478  -15.7931   26.6265 C.3     1  UNL1        0.3979
     24 F          -8.3411  -16.3446   27.7739 F       1  UNL1       -0.1700
     25 F          -8.5583  -16.3425   25.6638 F       1  UNL1       -0.1700
     26 F          -6.5372  -15.2437   27.5893 F       1  UNL1       -0.1700
@<TRIPOS>BOND
     1    12    13    2
     2    13    11    1
     3    11     9    1
     4     9     8    1
     5     8     7    1
     6     7     1    1
     7     1     2   ar
     8     2     3   ar
     9     3     4   ar
    10     4     5   ar
    11     5    19    1
    12    19    20    1
    13    20    21    1
    14    21    22    1
    15    22    23    1
    16    23    24    1
    17    23    25    1
    18    23    26    1
    19     5     6   ar
    20    13    14   am
    21    14    15    1
    22    15    16    1
    23    16    17    1
    24    17    18    1
    25     6     1   ar
    26    18    14    1
    27     9    10    1
@<TRIPOS>MOLECULE
*****
 26 27 0 0 0
SMALL
GASTEIGER

@<TRIPOS>ATOM
      1 C          -4.2617  -17.0128   23.1465 C.ar    1  UNL1       -0.0178
      2 C          -2.7961  -17.1971   22.8858 C.ar    1  UNL1       -0.0040
      3 C          -2.3000  -18.4644   22.2551 C.ar    1  UNL1        0.0028
      4 C          -3.2696  -19.5475   21.8852 C.ar    1  UNL1        0.0369
      5 C          -4.7352  -19.3632   22.1459 C.ar    1  UNL1        0.1382
      6 C          -5.2312  -18.0958   22.7765 C.ar    1  UNL1        0.0327
      7 C          -4.7577  -15.7454   23.7772 C.3     1  UNL1        0.0435
      8 C          -5.8419  -15.7972   24.8125 C.3     1  UNL1        0.0737
      9 N          -7.2189  -15.3024   24.4819 N.3     1  UNL1       -0.2895
     10 H          -7.6271  -14.9639   25.3532 H       1  UNL1        0.1237
     11 C          -8.2221  -16.2320   23.8661 C.3     1  UNL1        0.1552
     12 O          -7.9621  -15.2253   21.4852 O.2     1  UNL1       -0.2734
     13 C          -8.7976  -15.9260   22.5151 C.2     1  UNL1        0.2418
     14 N         -10.2088  -16.3208   22.1941 N.am    1  UNL1       -0.2784
     15 C         -10.9167  -16.0825   20.8934 C.3     1  UNL1        0.0935
     16 C         -12.3051  -16.6376   21.0128 C.3     1  UNL1        0.0233
     17 C         -12.4553  -17.2188   22.3875 C.3     1  UNL1        0.0233
     18 C         -11.1596  -17.0230   23.1176 C.3     1  UNL1        0.0935
     19 O          -5.7048  -20.4462   21.7759 O.3     1  UNL1       -0.4755
     20 C          -6.2884  -20.4908   20.3949 C.3     1  UNL1        0.2057
     21 C          -7.4160  -19.5723   20.0271 C.3     1  UNL1        0.0561
     22 C          -8.4797  -19.2501   21.0344 C.3     1  UNL1        0.1072
     23 C          -9.9144  -19.5740   20.7398 C.3     1  UNL1        0.3979
     24 F         -11.3491  -19.8979   20.4452 F       1  UNL1       -0.1700
     25 F          -9.7243  -19.1255   19.3211 F       1  UNL1       -0.1700
     26 F         -10.1045  -20.0224   22.1585 F       1  UNL1       -0.1700
@<TRIPOS>BOND
     1    12    13    2
     2    13    11    1
     3    11     9    1
     4     9     8    1
     5     8     7    1
     6     7     1    1
     7     1     2   ar
     8     2     3   ar
     9     3     4   ar
    10     4     5   ar
    11     5    19    1
    12    19    20    1
    13    20    21    1
    14    21    22    1
    15    22    23    1
    16    23    24    1
    17    23    25    1
    18    23    26    1
    19     5     6   ar
    20    13    14   am
    21    14    15    1
    22    15    16    1
    23    16    17    1
    24    17    18    1
    25     6     1   ar
    26    18    14    1
    27     9    10    1
@<TRIPOS>MOLECULE
*****
 26 27 0 0 0
SMALL
GASTEIGER

@<TRIPOS>ATOM
      1 C          -8.8842  -19.4306   20.2767 C.ar    1  UNL1       -0.0178
      2 C          -9.1407  -19.5394   21.7506 C.ar    1  UNL1       -0.0040
      3 C          -8.0131  -19.8597   22.6864 C.ar    1  UNL1        0.0028
      4 C          -6.6289  -20.0711   22.1484 C.ar    1  UNL1        0.0369
      5 C          -6.3724  -19.9622   20.6745 C.ar    1  UNL1        0.1382
      6 C          -7.5001  -19.6420   19.7387 C.ar    1  UNL1        0.0327
      7 C         -10.0119  -19.1103   19.3408 C.3     1  UNL1        0.0435
      8 C         -11.1947  -18.3292   19.8313 C.3     1  UNL1        0.0737
      9 N         -11.3553  -16.8889   19.4440 N.3     1  UNL1       -0.2895
     10 H         -10.6325  -16.6874   18.7531 H       1  UNL1        0.1237
     11 C         -11.2661  -15.8168   20.4892 C.3     1  UNL1        0.1552
     12 O         -12.4985  -16.4992   22.6722 O.2     1  UNL1       -0.2734
     13 C         -11.2258  -16.1873   21.9421 C.2     1  UNL1        0.2418
     14 N          -9.9128  -16.2461   22.6650 N.am    1  UNL1       -0.2784
     15 C          -9.7166  -16.5993   24.1096 C.3     1  UNL1        0.0935
     16 C          -8.2480  -16.5334   24.4076 C.3     1  UNL1        0.0233
     17 C          -7.5365  -16.1394   23.1472 C.3     1  UNL1        0.0233
     18 C          -8.5654  -15.9618   22.0703 C.3     1  UNL1        0.0935
     19 O          -4.9883  -20.1736   20.1365 O.3     1  UNL1       -0.4755
     20 C          -4.1147  -18.9936   19.8293 C.3     1  UNL1        0.2057
     21 C          -2.6861  -18.9789   20.2865 C.3     1  UNL1        0.0561
     22 C          -2.3645  -18.7609   21.7353 C.3     1  UNL1        0.1072
     23 C          -3.1675  -17.7850   22.5432 C.3     1  UNL1        0.3979
     24 F          -3.9706  -16.8090   23.3511 F       1  UNL1       -0.1700
     25 F          -2.4569  -16.6461   21.8739 F       1  UNL1       -0.1700
     26 F          -3.8782  -18.9238   23.2126 F       1  UNL1       -0.1700
@<TRIPOS>BOND
     1    12    13    2
     2    13    11    1
     3    11     9    1
     4     9     8    1
     5     8     7    1
     6     7     1    1
     7     1     2   ar
     8     2     3   ar
     9     3     4   ar
    10     4     5   ar
    11     5    19    1
    12    19    20    1
    13    20    21    1
    14    21    22    1
    15    22    23    1
    16    23    24    1
    17    23    25    1
    18    23    26    1
    19     5     6   ar
    20    13    14   am
    21    14    15    1
    22    15    16    1
    23    16    17    1
    24    17    18    1
    25     6     1   ar
    26    18    14    1
    27     9    10    1
@<TRIPOS>MOLECULE
*****
 26 27 0 0 0
SMALL
GASTEIGER

@<TRIPOS>ATOM
      1 C          -7.4314  -19.3891   20.2093 C.ar    1  UNL1       -0.0178
      2 C          -7.7195  -18.6253   21.4677 C.ar    1  UNL1       -0.0040
      3 C          -6.6190  -18.3577   22.4511 C.ar    1  UNL1        0.0028
      4 C          -5.2304  -18.8539   22.1762 C.ar    1  UNL1        0.0369
      5 C          -4.9423  -19.6177   20.9179 C.ar    1  UNL1        0.1382
      6 C          -6.0428  -19.8853   19.9344 C.ar    1  UNL1        0.0327
      7 C          -8.5319  -19.6567   19.2257 C.3     1  UNL1        0.0435
      8 C          -9.9549  -19.7307   19.6942 C.3     1  UNL1        0.0737
      9 N         -10.8702  -18.5582   19.5006 N.3     1  UNL1       -0.2895
     10 H         -10.2844  -17.7695   19.2261 H       1  UNL1        0.1237
     11 C         -11.7316  -18.0841   20.6334 C.3     1  UNL1        0.1552
     12 O         -10.8995  -15.8697   21.7077 O.2     1  UNL1       -0.2734
     13 C         -11.1156  -17.3519   21.7885 C.2     1  UNL1        0.2418
     14 N         -10.7155  -18.1018   23.0245 N.am    1  UNL1       -0.2784
     15 C         -10.0917  -17.5083   24.2528 C.3     1  UNL1        0.0935
     16 C          -9.8598  -18.6166   25.2366 C.3     1  UNL1        0.0233
     17 C         -10.3402  -19.8951   24.6163 C.3     1  UNL1        0.0233
     18 C         -10.8691  -19.5769   23.2492 C.3     1  UNL1        0.0935
     19 O          -3.5537  -20.1139   20.6430 O.3     1  UNL1       -0.4755
     20 C          -2.4369  -19.7786   21.5865 C.3     1  UNL1        0.2057
     21 C          -1.6891  -18.4871   21.4347 C.3     1  UNL1        0.0561
     22 C          -2.1539  -17.4636   20.4415 C.3     1  UNL1        0.1072
     23 C          -1.8309  -17.6301   18.9861 C.3     1  UNL1        0.3979
     24 F          -1.5080  -17.7965   17.5308 F       1  UNL1       -0.1700
     25 F          -0.3953  -17.8901   19.3344 F       1  UNL1       -0.1700
     26 F          -3.2666  -17.3701   18.6378 F       1  UNL1       -0.1700
@<TRIPOS>BOND
     1    12    13    2
     2    13    11    1
     3    11     9    1
     4     9     8    1
     5     8     7    1
     6     7     1    1
     7     1     2   ar
     8     2     3   ar
     9     3     4   ar
    10     4     5   ar
    11     5    19    1
    12    19    20    1
    13    20    21    1
    14    21    22    1
    15    22    23    1
    16    23    24    1
    17    23    25    1
    18    23    26    1
    19     5     6   ar
    20    13    14   am
    21    14    15    1
    22    15    16    1
    23    16    17    1
    24    17    18    1
    25     6     1   ar
    26    18    14    1
    27     9    10    1
@<TRIPOS>MOLECULE
*****
 26 27 0 0 0
SMALL
GASTEIGER

@<TRIPOS>ATOM
      1 C          -4.9655  -19.7711   21.0740 C.ar    1  UNL1       -0.0178
      2 C          -3.5800  -20.0536   20.5736 C.ar    1  UNL1       -0.0040
      3 C          -2.3956  -19.4361   21.2562 C.ar    1  UNL1        0.0028
      4 C          -2.5968  -18.5361   22.4391 C.ar    1  UNL1        0.0369
      5 C          -3.9823  -18.2536   22.9396 C.ar    1  UNL1        0.1382
      6 C          -5.1667  -18.8711   22.2570 C.ar    1  UNL1        0.0327
      7 C          -6.1499  -20.3887   20.3915 C.3     1  UNL1        0.0435
      8 C          -7.0873  -19.5312   19.5939 C.3     1  UNL1        0.0737
      9 N          -8.4223  -19.1502   20.1619 N.3     1  UNL1       -0.2895
     10 H          -8.8508  -18.5040   19.4992 H       1  UNL1        0.1237
     11 C          -8.5058  -18.5035   21.5128 C.3     1  UNL1        0.1552
     12 O          -9.2812  -20.1760   23.3435 O.2     1  UNL1       -0.2734
     13 C          -9.5370  -18.9615   22.5011 C.2     1  UNL1        0.2418
     14 N         -10.8240  -18.2050   22.6470 N.am    1  UNL1       -0.2784
     15 C         -11.9427  -18.5415   23.5879 C.3     1  UNL1        0.0935
     16 C         -13.0284  -17.5237   23.4001 C.3     1  UNL1        0.0233
     17 C         -12.5807  -16.5581   22.3431 C.3     1  UNL1        0.0233
     18 C         -11.2183  -16.9792   21.8777 C.3     1  UNL1        0.0935
     19 O          -4.1835  -17.3535   24.1225 O.3     1  UNL1       -0.4755
     20 C          -4.5655  -15.9177   23.9162 C.3     1  UNL1        0.2057
     21 C          -6.0057  -15.5449   23.7247 C.3     1  UNL1        0.0561
     22 C          -6.9095  -15.4078   24.9140 C.3     1  UNL1        0.1072
     23 C          -8.3953  -15.5248   24.7444 C.3     1  UNL1        0.3979
     24 F          -9.8810  -15.6418   24.5748 F       1  UNL1       -0.1700
     25 F          -8.2093  -15.7528   23.2735 F       1  UNL1       -0.1700
     26 F          -8.5812  -15.2968   26.2153 F       1  UNL1       -0.1700
@<TRIPOS>BOND
     1    12    13    2
     2    13    11    1
     3    11     9    1
     4     9     8    1
     5     8     7    1
     6     7     1    1
     7     1     2   ar
     8     2     3   ar
     9     3     4   ar
    10     4     5   ar
    11     5    19    1
    12    19    20    1
    13    20    21    1
    14    21    22    1
    15    22    23    1
    16    23    24    1
    17    23    25    1
    18    23    26    1
    19     5     6   ar
    20    13    14   am
    21    14    15    1
    22    15    16    1
    23    16    17    1
    24    17    18    1
    25     6     1   ar
    26    18    14    1
    27     9    10    1
@<TRIPOS>MOLECULE
*****
 26 27 0 0 0
SMALL
GASTEIGER

@<TRIPOS>ATOM
      1 C          -6.9452  -19.6805   21.1440 C.ar    1  UNL1       -0.0178
      2 C          -6.3128  -20.7323   20.2815 C.ar    1  UNL1       -0.0040
      3 C          -4.8340  -20.9725   20.3545 C.ar    1  UNL1        0.0028
      4 C          -3.9876  -20.1611   21.2900 C.ar    1  UNL1        0.0369
      5 C          -4.6200  -19.1093   22.1525 C.ar    1  UNL1        0.1382
      6 C          -6.0988  -18.8691   22.0795 C.ar    1  UNL1        0.0327
      7 C          -8.4241  -19.4402   21.0710 C.3     1  UNL1        0.0435
      8 C          -9.1018  -19.3346   19.7371 C.3     1  UNL1        0.0737
      9 N         -10.3284  -18.4848   19.5841 N.3     1  UNL1       -0.2895
     10 H         -10.3063  -18.1034   18.6384 H       1  UNL1        0.1237
     11 C         -10.5605  -17.3291   20.5117 C.3     1  UNL1        0.1552
     12 O         -12.9706  -16.3622   20.4292 O.2     1  UNL1       -0.2734
     13 C         -11.9053  -17.1362   21.1476 C.2     1  UNL1        0.2418
     14 N         -12.1849  -17.7173   22.5019 N.am    1  UNL1       -0.2784
     15 C         -13.4749  -17.6073   23.2594 C.3     1  UNL1        0.0935
     16 C         -13.3107  -18.3325   24.5622 C.3     1  UNL1        0.0233
     17 C         -11.9193  -18.8907   24.6099 C.3     1  UNL1        0.0233
     18 C         -11.2235  -18.5106   23.3366 C.3     1  UNL1        0.0935
     19 O          -3.7736  -18.2979   23.0880 O.3     1  UNL1       -0.4755
     20 C          -3.3379  -16.9165   22.6981 C.3     1  UNL1        0.2057
     21 C          -2.1282  -16.7282   21.8314 C.3     1  UNL1        0.0561
     22 C          -1.6414  -17.8543   20.9682 C.3     1  UNL1        0.1072
     23 C          -1.4797  -17.6510   19.4909 C.3     1  UNL1        0.3979
     24 F          -1.3181  -17.4476   18.0136 F       1  UNL1       -0.1700
     25 F          -0.1155  -17.0709   19.7200 F       1  UNL1       -0.1700
     26 F          -2.8439  -18.2310   19.2618 F       1  UNL1       -0.1700
@<TRIPOS>BOND
     1    12    13    2
     2    13    11    1
     3    11     9    1
     4     9     8    1
     5     8     7    1
     6     7     1    1
     7     1     2   ar
     8     2     3   ar
     9     3     4   ar
    10     4     5   ar
    11     5    19    1
    12    19    20    1
    13    20    21    1
    14    21    22    1
    15    22    23    1
    16    23    24    1
    17    23    25    1
    18    23    26    1
    19     5     6   ar
    20    13    14   am
    21    14    15    1
    22    15    16    1
    23    16    17    1
    24    17    18    1
    25     6     1   ar
    26    18    14    1
    27     9    10    1
@<TRIPOS>MOLECULE
*****
 26 27 0 0 0
SMALL
GASTEIGER

@<TRIPOS>ATOM
      1 C         -10.9697   -6.6713   17.1375 C.ar    1  UNL1       -0.0178
      2 C         -10.3743   -7.0958   18.4472 C.ar    1  UNL1       -0.0040
      3 C          -9.6956   -6.0863   19.3248 C.ar    1  UNL1        0.0028
      4 C          -9.6124   -4.6523   18.8928 C.ar    1  UNL1        0.0369
      5 C         -10.2078   -4.2278   17.5831 C.ar    1  UNL1        0.1382
      6 C         -10.8864   -5.2373   16.7055 C.ar    1  UNL1        0.0327
      7 C         -11.6484   -7.6809   16.2598 C.3     1  UNL1        0.0435
      8 C         -13.1305   -7.6087   16.0411 C.3     1  UNL1        0.0737
      9 N         -14.0495   -7.3722   17.2029 N.3     1  UNL1       -0.2895
     10 H         -13.8053   -6.4610   17.5908 H       1  UNL1        0.1237
     11 C         -14.0727   -8.3388   18.3497 C.3     1  UNL1        0.1552
     12 O         -14.9637  -10.7558   18.0112 O.2     1  UNL1       -0.2734
     13 C         -15.1821   -9.3421   18.4625 C.2     1  UNL1        0.2418
     14 N         -16.5100   -8.9316   19.0268 N.am    1  UNL1       -0.2784
     15 C         -17.7066   -9.8192   19.2003 C.3     1  UNL1        0.0935
     16 C         -18.8105   -8.9976   19.7973 C.3     1  UNL1        0.0233
     17 C         -18.2961   -7.6021   19.9928 C.3     1  UNL1        0.0233
     18 C         -16.8743   -7.5614   19.5165 C.3     1  UNL1        0.0935
     19 O         -10.1246   -2.7938   17.1511 O.3     1  UNL1       -0.4755
     20 C         -11.2323   -1.8419   17.4930 C.3     1  UNL1        0.2057
     21 C         -11.8408   -1.8607   18.8639 C.3     1  UNL1        0.0561
     22 C         -13.1776   -2.5053   19.0823 C.3     1  UNL1        0.1072
     23 C         -13.2681   -3.8198   19.7991 C.3     1  UNL1        0.3979
     24 F         -13.3586   -5.1344   20.5159 F       1  UNL1       -0.1700
     25 F         -13.1595   -3.1094   21.1157 F       1  UNL1       -0.1700
     26 F         -13.3767   -4.5303   18.4825 F       1  UNL1       -0.1700
@<TRIPOS>BOND
     1    12    13    2
     2    13    11    1
     3    11     9    1
     4     9     8    1
     5     8     7    1
     6     7     1    1
     7     1     2   ar
     8     2     3   ar
     9     3     4   ar
    10     4     5   ar
    11     5    19    1
    12    19    20    1
    13    20    21    1
    14    21    22    1
    15    22    23    1
    16    23    24    1
    17    23    25    1
    18    23    26    1
    19     5     6   ar
    20    13    14   am
    21    14    15    1
    22    15    16    1
    23    16    17    1
    24    17    18    1
    25     6     1   ar
    26    18    14    1
    27     9    10    1
@<TRIPOS>MOLECULE
*****
 26 27 0 0 0
SMALL
GASTEIGER

@<TRIPOS>ATOM
      1 C           8.1627   -7.4548   26.4248 C.ar    1  UNL1       -0.0178
      2 C           8.8807   -7.9370   25.1993 C.ar    1  UNL1       -0.0040
      3 C           8.7722   -7.1688   23.9156 C.ar    1  UNL1        0.0028
      4 C           7.9457   -5.9183   23.8574 C.ar    1  UNL1        0.0369
      5 C           7.2277   -5.4361   25.0829 C.ar    1  UNL1        0.1382
      6 C           7.3362   -6.2044   26.3666 C.ar    1  UNL1        0.0327
      7 C           8.2711   -8.2231   27.7087 C.3     1  UNL1        0.0435
      8 C           8.1905   -9.7208   27.6955 C.3     1  UNL1        0.0737
      9 N           6.8542  -10.4005   27.7452 N.3     1  UNL1       -0.2895
     10 H           6.2610   -9.8393   28.3564 H       1  UNL1        0.1237
     11 C           6.7512  -11.8182   28.2244 C.3     1  UNL1        0.1552
     12 O           6.2907  -13.5484   26.3418 O.2     1  UNL1       -0.2734
     13 C           5.8221  -12.7758   27.5390 C.2     1  UNL1        0.2418
     14 N           4.4243  -12.9608   28.0510 N.am    1  UNL1       -0.2784
     15 C           3.3877  -13.8777   27.4726 C.3     1  UNL1        0.0935
     16 C           2.1405  -13.7449   28.2954 C.3     1  UNL1        0.0233
     17 C           2.4064  -12.7459   29.3823 C.3     1  UNL1        0.0233
     18 C           3.8179  -12.2613   29.2313 C.3     1  UNL1        0.0935
     19 O           6.4012   -4.1857   25.0247 O.3     1  UNL1       -0.4755
     20 C           6.2880   -3.4207   23.7395 C.3     1  UNL1        0.2057
     21 C           5.0876   -3.6064   22.8594 C.3     1  UNL1        0.0561
     22 C           5.2587   -3.7330   21.3745 C.3     1  UNL1        0.1072
     23 C           4.1370   -3.3505   20.4550 C.3     1  UNL1        0.3979
     24 F           3.0153   -2.9680   19.5355 F       1  UNL1       -0.1700
     25 F           4.5269   -1.9074   20.5796 F       1  UNL1       -0.1700
     26 F           3.7471   -4.7936   20.3304 F       1  UNL1       -0.1700
@<TRIPOS>BOND
     1    12    13    2
     2    13    11    1
     3    11     9    1
     4     9     8    1
     5     8     7    1
     6     7     1    1
     7     1     2   ar
     8     2     3   ar
     9     3     4   ar
    10     4     5   ar
    11     5    19    1
    12    19    20    1
    13    20    21    1
    14    21    22    1
    15    22    23    1
    16    23    24    1
    17    23    25    1
    18    23    26    1
    19     5     6   ar
    20    13    14   am
    21    14    15    1
    22    15    16    1
    23    16    17    1
    24    17    18    1
    25     6     1   ar
    26    18    14    1
    27     9    10    1
@<TRIPOS>MOLECULE
*****
 26 27 0 0 0
SMALL
GASTEIGER

@<TRIPOS>ATOM
      1 C           8.1344   -7.7039   27.0949 C.ar    1  UNL1       -0.0178
      2 C           7.6752   -7.2152   25.7531 C.ar    1  UNL1       -0.0040
      3 C           7.0091   -5.8769   25.6301 C.ar    1  UNL1        0.0028
      4 C           6.8022   -5.0272   26.8488 C.ar    1  UNL1        0.0369
      5 C           7.2614   -5.5159   28.1905 C.ar    1  UNL1        0.1382
      6 C           7.9275   -6.8542   28.3136 C.ar    1  UNL1        0.0327
      7 C           8.8005   -9.0423   27.2179 C.3     1  UNL1        0.0435
      8 C           8.1720  -10.1189   28.0520 C.3     1  UNL1        0.0737
      9 N           6.7696  -10.5674   27.7653 N.3     1  UNL1       -0.2895
     10 H           6.1538   -9.8020   28.0398 H       1  UNL1        0.1237
     11 C           6.2321  -11.8091   28.4126 C.3     1  UNL1        0.1552
     12 O           5.9643  -13.4486   26.4150 O.2     1  UNL1       -0.2734
     13 C           5.3897  -12.7638   27.6196 C.2     1  UNL1        0.2418
     14 N           3.9727  -13.0338   28.0311 N.am    1  UNL1       -0.2784
     15 C           3.0148  -13.9582   27.3399 C.3     1  UNL1        0.0935
     16 C           1.7150  -13.9225   28.0877 C.3     1  UNL1        0.0233
     17 C           1.8696  -12.9759   29.2410 C.3     1  UNL1        0.0233
     18 C           3.2649  -12.4267   29.2060 C.3     1  UNL1        0.0935
     19 O           7.0546   -4.6662   29.4092 O.3     1  UNL1       -0.4755
     20 C           8.2329   -4.2318   30.2295 C.3     1  UNL1        0.2057
     21 C           8.0446   -3.8445   31.6664 C.3     1  UNL1        0.0561
     22 C           7.1718   -2.6770   32.0202 C.3     1  UNL1        0.1072
     23 C           5.8277   -2.9075   32.6449 C.3     1  UNL1        0.3979
     24 F           4.4836   -3.1380   33.2696 F       1  UNL1       -0.1700
     25 F           5.5044   -1.4513   32.4866 F       1  UNL1       -0.1700
     26 F           6.1510   -4.3637   32.8032 F       1  UNL1       -0.1700
@<TRIPOS>BOND
     1    12    13    2
     2    13    11    1
     3    11     9    1
     4     9     8    1
     5     8     7    1
     6     7     1    1
     7     1     2   ar
     8     2     3   ar
     9     3     4   ar
    10     4     5   ar
    11     5    19    1
    12    19    20    1
    13    20    21    1
    14    21    22    1
    15    22    23    1
    16    23    24    1
    17    23    25    1
    18    23    26    1
    19     5     6   ar
    20    13    14   am
    21    14    15    1
    22    15    16    1
    23    16    17    1
    24    17    18    1
    25     6     1   ar
    26    18    14    1
    27     9    10    1
