@<TRIPOS>MOLECULE
*****
 18 19 0 0 0
SMALL
GASTEIGER

@<TRIPOS>ATOM
      1 C          -9.6987  -17.8922   21.6938 C.ar    1  UNL1        0.0609
      2 C         -10.3803  -18.1138   20.3762 C.ar    1  UNL1        0.1071
      3 N         -11.8172  -17.7210   20.1996 N.ar    1  UNL1       -0.2417
      4 C         -12.5724  -17.1066   21.3407 C.ar    1  UNL1        0.0989
      5 C         -11.8908  -16.8850   22.6584 C.ar    1  UNL1        0.0214
      6 C         -10.4539  -17.2778   22.8349 C.ar    1  UNL1        0.0137
      7 C          -9.7723  -17.0562   24.1526 C.ar    1  UNL1        0.0391
      8 C          -9.0744  -15.7571   24.4269 C.ar    1  UNL1        0.1022
      9 N          -8.3928  -15.5354   25.7445 N.ar    1  UNL1       -0.2224
     10 C          -8.4090  -16.6129   26.7880 C.ar    1  UNL1        0.1989
     11 N          -9.1069  -17.9121   26.5138 N.ar    1  UNL1       -0.2224
     12 C          -9.7885  -18.1337   25.1960 C.ar    1  UNL1        0.1022
     13 C          -6.8250  -18.6778   22.0469 C.1     1  UNL1       -0.0689
     14 C          -8.2618  -18.2850   21.8704 C.1     1  UNL1       -0.0614
     15 N          -4.3440  -18.5353   21.2890 N.3     1  UNL1       -0.3102
     16 C          -5.3881  -19.0706   22.2234 C.3     1  UNL1        0.1432
     17 H          -3.4302  -18.9029   21.5537 H       1  UNL1        0.1198
     18 H          -4.3295  -17.5168   21.3428 H       1  UNL1        0.1198
@<TRIPOS>BOND
     1    15    16    1
     2    16    13    1
     3    13    14    3
     4    14     1    1
     5     1     2   ar
     6     2     3   ar
     7     3     4   ar
     8     4     5   ar
     9     5     6   ar
    10     6     7    1
    11     7     8   ar
    12     8     9   ar
    13     9    10   ar
    14    10    11   ar
    15    11    12   ar
    16     6     1   ar
    17    12     7   ar
    18    15    17    1
    19    15    18    1
@<TRIPOS>MOLECULE
*****
 18 19 0 0 0
SMALL
GASTEIGER

@<TRIPOS>ATOM
      1 C          -7.1463  -16.7372   23.5396 C.ar    1  UNL1        0.0609
      2 C          -5.8237  -16.0904   23.8262 C.ar    1  UNL1        0.1071
      3 N          -5.6850  -15.1482   24.9851 N.ar    1  UNL1       -0.2417
      4 C          -6.8690  -14.8528   25.8574 C.ar    1  UNL1        0.0989
      5 C          -8.1917  -15.4996   25.5707 C.ar    1  UNL1        0.0214
      6 C          -8.3303  -16.4418   24.4118 C.ar    1  UNL1        0.0137
      7 C          -9.6531  -17.0886   24.1252 C.ar    1  UNL1        0.0391
      8 C         -10.0296  -18.3648   24.8177 C.ar    1  UNL1        0.1022
      9 N         -11.3523  -19.0115   24.5311 N.ar    1  UNL1       -0.2224
     10 C         -12.2985  -18.3821   23.5520 C.ar    1  UNL1        0.1989
     11 N         -11.9219  -17.1059   22.8595 N.ar    1  UNL1       -0.2224
     12 C         -10.5992  -16.4592   23.1461 C.ar    1  UNL1        0.1022
     13 C          -7.4237  -18.6216   21.2218 C.1     1  UNL1       -0.0689
     14 C          -7.2850  -17.6794   22.3807 C.1     1  UNL1       -0.0614
     15 N          -8.5760  -19.2908   18.9915 N.3     1  UNL1       -0.3102
     16 C          -7.5623  -19.5638   20.0629 C.3     1  UNL1        0.1432
     17 H          -8.5332  -20.0275   18.2873 H       1  UNL1        0.1198
     18 H          -8.3753  -18.3911   18.5549 H       1  UNL1        0.1198
@<TRIPOS>BOND
     1    15    16    1
     2    16    13    1
     3    13    14    3
     4    14     1    1
     5     1     2   ar
     6     2     3   ar
     7     3     4   ar
     8     4     5   ar
     9     5     6   ar
    10     6     7    1
    11     7     8   ar
    12     8     9   ar
    13     9    10   ar
    14    10    11   ar
    15    11    12   ar
    16     6     1   ar
    17    12     7   ar
    18    15    17    1
    19    15    18    1
@<TRIPOS>MOLECULE
*****
 18 19 0 0 0
SMALL
GASTEIGER

@<TRIPOS>ATOM
      1 C          -4.5426  -18.6959   22.1219 C.ar    1  UNL1        0.0609
      2 C          -3.1191  -19.0461   21.8043 C.ar    1  UNL1        0.1071
      3 N          -2.8167  -20.1381   20.8214 N.ar    1  UNL1       -0.2417
      4 C          -3.9378  -20.8799   20.1562 C.ar    1  UNL1        0.0989
      5 C          -5.3614  -20.5298   20.4738 C.ar    1  UNL1        0.0214
      6 C          -5.6637  -19.4378   21.4567 C.ar    1  UNL1        0.0137
      7 C          -7.0874  -19.0876   21.7742 C.ar    1  UNL1        0.0391
      8 C          -7.8927  -19.9708   22.6806 C.ar    1  UNL1        0.1022
      9 N          -9.3162  -19.6208   22.9982 N.ar    1  UNL1       -0.2224
     10 C          -9.9345  -18.3874   22.4094 C.ar    1  UNL1        0.1989
     11 N          -9.1292  -17.5042   21.5031 N.ar    1  UNL1       -0.2224
     12 C          -7.7056  -17.8543   21.1855 C.ar    1  UNL1        0.1022
     13 C          -5.1474  -16.5119   24.0877 C.1     1  UNL1       -0.0689
     14 C          -4.8450  -17.6039   23.1048 C.1     1  UNL1       -0.0614
     15 N          -6.5990  -14.4875   24.8258 N.3     1  UNL1       -0.3102
     16 C          -5.4498  -15.4198   25.0706 C.3     1  UNL1        0.1432
     17 H          -6.6579  -13.8129   25.5885 H       1  UNL1        0.1198
     18 H          -7.4662  -15.0223   24.7770 H       1  UNL1        0.1198
@<TRIPOS>BOND
     1    15    16    1
     2    16    13    1
     3    13    14    3
     4    14     1    1
     5     1     2   ar
     6     2     3   ar
     7     3     4   ar
     8     4     5   ar
     9     5     6   ar
    10     6     7    1
    11     7     8   ar
    12     8     9   ar
    13     9    10   ar
    14    10    11   ar
    15    11    12   ar
    16     6     1   ar
    17    12     7   ar
    18    15    17    1
    19    15    18    1
@<TRIPOS>MOLECULE
*****
 18 19 0 0 0
SMALL
GASTEIGER

@<TRIPOS>ATOM
      1 C          -8.2587  -18.3517   21.3253 C.ar    1  UNL1        0.0609
      2 C          -7.1010  -18.8909   20.5385 C.ar    1  UNL1        0.1071
      3 N          -7.3474  -19.7720   19.3498 N.ar    1  UNL1       -0.2417
      4 C          -8.7515  -20.1139   18.9479 C.ar    1  UNL1        0.0989
      5 C          -9.9092  -19.5748   19.7347 C.ar    1  UNL1        0.0214
      6 C          -9.6628  -18.6937   20.9234 C.ar    1  UNL1        0.0137
      7 C         -10.8206  -18.1545   21.7102 C.ar    1  UNL1        0.0391
      8 C         -11.4024  -16.8155   21.3662 C.ar    1  UNL1        0.1022
      9 N         -12.5602  -16.2763   22.1529 N.ar    1  UNL1       -0.2224
     10 C         -13.1360  -17.0762   23.2837 C.ar    1  UNL1        0.1989
     11 N         -12.5542  -18.4153   23.6276 N.ar    1  UNL1       -0.2224
     12 C         -11.3964  -18.9544   22.8409 C.ar    1  UNL1        0.1022
     13 C          -7.7659  -16.5896   23.7027 C.1     1  UNL1       -0.0689
     14 C          -8.0123  -17.4707   22.5140 C.1     1  UNL1       -0.0614
     15 N          -6.7410  -14.4362   24.7333 N.3     1  UNL1       -0.3102
     16 C          -7.5195  -15.7085   24.8914 C.3     1  UNL1        0.1432
     17 H          -6.6703  -13.9665   25.6360 H       1  UNL1        0.1198
     18 H          -7.2175  -13.8262   24.0691 H       1  UNL1        0.1198
@<TRIPOS>BOND
     1    15    16    1
     2    16    13    1
     3    13    14    3
     4    14     1    1
     5     1     2   ar
     6     2     3   ar
     7     3     4   ar
     8     4     5   ar
     9     5     6   ar
    10     6     7    1
    11     7     8   ar
    12     8     9   ar
    13     9    10   ar
    14    10    11   ar
    15    11    12   ar
    16     6     1   ar
    17    12     7   ar
    18    15    17    1
    19    15    18    1
@<TRIPOS>MOLECULE
*****
 18 19 0 0 0
SMALL
GASTEIGER

@<TRIPOS>ATOM
      1 C          -9.5035  -16.0726   21.5526 C.ar    1  UNL1        0.0609
      2 C          -9.6911  -15.0065   20.5142 C.ar    1  UNL1        0.1071
      3 N         -10.8040  -15.1203   19.5150 N.ar    1  UNL1       -0.2417
      4 C         -11.7293  -16.3002   19.5541 C.ar    1  UNL1        0.0989
      5 C         -11.5417  -17.3663   20.5924 C.ar    1  UNL1        0.0214
      6 C         -10.4287  -17.2525   21.5917 C.ar    1  UNL1        0.0137
      7 C         -10.2411  -18.3187   22.6300 C.ar    1  UNL1        0.0391
      8 C         -11.1220  -18.3467   23.8438 C.ar    1  UNL1        0.1022
      9 N         -10.9345  -19.4128   24.8822 N.ar    1  UNL1       -0.2224
     10 C          -9.8660  -20.4509   24.7068 C.ar    1  UNL1        0.1989
     11 N          -8.9851  -20.4229   23.4930 N.ar    1  UNL1       -0.2224
     12 C          -9.1727  -19.3567   22.4546 C.ar    1  UNL1        0.1022
     13 C          -7.2776  -15.8449   23.5510 C.1     1  UNL1       -0.0689
     14 C          -8.3905  -15.9587   22.5518 C.1     1  UNL1       -0.0614
     15 N          -6.1276  -14.5730   25.5029 N.3     1  UNL1       -0.3102
     16 C          -6.1647  -15.7311   24.5503 C.3     1  UNL1        0.1432
     17 H          -5.3090  -14.6550   26.1059 H       1  UNL1        0.1198
     18 H          -6.9725  -14.5756   26.0743 H       1  UNL1        0.1198
@<TRIPOS>BOND
     1    15    16    1
     2    16    13    1
     3    13    14    3
     4    14     1    1
     5     1     2   ar
     6     2     3   ar
     7     3     4   ar
     8     4     5   ar
     9     5     6   ar
    10     6     7    1
    11     7     8   ar
    12     8     9   ar
    13     9    10   ar
    14    10    11   ar
    15    11    12   ar
    16     6     1   ar
    17    12     7   ar
    18    15    17    1
    19    15    18    1
@<TRIPOS>MOLECULE
*****
 18 19 0 0 0
SMALL
GASTEIGER

@<TRIPOS>ATOM
      1 C          -8.7758  -17.8312   22.1709 C.ar    1  UNL1        0.0609
      2 C          -9.7583  -18.3749   21.1764 C.ar    1  UNL1        0.1071
      3 N         -11.1657  -17.8567   21.1522 N.ar    1  UNL1       -0.2417
      4 C         -11.5907  -16.7947   22.1225 C.ar    1  UNL1        0.0989
      5 C         -10.6082  -16.2509   23.1170 C.ar    1  UNL1        0.0214
      6 C          -9.2008  -16.7692   23.1412 C.ar    1  UNL1        0.0137
      7 C          -8.2183  -16.2254   24.1358 C.ar    1  UNL1        0.0391
      8 C          -8.4435  -16.4348   25.6039 C.ar    1  UNL1        0.1022
      9 N          -7.4611  -15.8911   26.5985 N.ar    1  UNL1       -0.2224
     10 C          -6.2534  -15.1378   26.1249 C.ar    1  UNL1        0.1989
     11 N          -6.0282  -14.9284   24.6568 N.ar    1  UNL1       -0.2224
     12 C          -7.0107  -15.4722   23.6622 C.ar    1  UNL1        0.1022
     13 C          -5.9610  -18.8677   22.2193 C.1     1  UNL1       -0.0689
     14 C          -7.3684  -18.3494   22.1951 C.1     1  UNL1       -0.0614
     15 N          -3.7163  -19.3409   20.9997 N.3     1  UNL1       -0.3102
     16 C          -4.5536  -19.3859   22.2434 C.3     1  UNL1        0.1432
     17 H          -2.7945  -19.7311   21.1961 H       1  UNL1        0.1198
     18 H          -3.6175  -18.3738   20.6911 H       1  UNL1        0.1198
@<TRIPOS>BOND
     1    15    16    1
     2    16    13    1
     3    13    14    3
     4    14     1    1
     5     1     2   ar
     6     2     3   ar
     7     3     4   ar
     8     4     5   ar
     9     5     6   ar
    10     6     7    1
    11     7     8   ar
    12     8     9   ar
    13     9    10   ar
    14    10    11   ar
    15    11    12   ar
    16     6     1   ar
    17    12     7   ar
    18    15    17    1
    19    15    18    1
@<TRIPOS>MOLECULE
*****
 18 19 0 0 0
SMALL
GASTEIGER

@<TRIPOS>ATOM
      1 C          -6.7583  -17.1449   23.1269 C.ar    1  UNL1        0.0609
      2 C          -5.7830  -16.1745   23.7245 C.ar    1  UNL1        0.1071
      3 N          -6.2740  -15.0645   24.6060 N.ar    1  UNL1       -0.2417
      4 C          -7.7402  -14.9250   24.8899 C.ar    1  UNL1        0.0989
      5 C          -8.7155  -15.8953   24.2923 C.ar    1  UNL1        0.0214
      6 C          -8.2245  -17.0053   23.4108 C.ar    1  UNL1        0.0137
      7 C          -9.1999  -17.9757   22.8132 C.ar    1  UNL1        0.0391
      8 C          -9.5497  -19.2358   23.5479 C.ar    1  UNL1        0.1022
      9 N         -10.5250  -20.2062   22.9503 N.ar    1  UNL1       -0.2224
     10 C         -11.1506  -19.9165   21.6181 C.ar    1  UNL1        0.1989
     11 N         -10.8008  -18.6563   20.8835 N.ar    1  UNL1       -0.2224
     12 C          -9.8255  -17.6859   21.4811 C.ar    1  UNL1        0.1022
     13 C          -5.7764  -19.3648   21.3640 C.1     1  UNL1       -0.0689
     14 C          -6.2674  -18.2548   22.2455 C.1     1  UNL1       -0.0614
     15 N          -3.8423  -20.5280   20.0771 N.3     1  UNL1       -0.3102
     16 C          -5.2855  -20.4747   20.4825 C.3     1  UNL1        0.1432
     17 H          -3.6860  -21.3420   19.4827 H       1  UNL1        0.1198
     18 H          -3.2575  -20.5977   20.9099 H       1  UNL1        0.1198
@<TRIPOS>BOND
     1    15    16    1
     2    16    13    1
     3    13    14    3
     4    14     1    1
     5     1     2   ar
     6     2     3   ar
     7     3     4   ar
     8     4     5   ar
     9     5     6   ar
    10     6     7    1
    11     7     8   ar
    12     8     9   ar
    13     9    10   ar
    14    10    11   ar
    15    11    12   ar
    16     6     1   ar
    17    12     7   ar
    18    15    17    1
    19    15    18    1
@<TRIPOS>MOLECULE
*****
 18 19 0 0 0
SMALL
GASTEIGER

@<TRIPOS>ATOM
      1 C          -9.4084  -17.2581   23.0000 C.ar    1  UNL1        0.0609
      2 C         -10.7367  -16.6918   23.4059 C.ar    1  UNL1        0.1071
      3 N         -12.0034  -17.3017   22.8830 N.ar    1  UNL1       -0.2417
      4 C         -11.9419  -18.4778   21.9542 C.ar    1  UNL1        0.0989
      5 C         -10.6135  -19.0441   21.5483 C.ar    1  UNL1        0.0214
      6 C          -9.3468  -18.4343   22.0712 C.ar    1  UNL1        0.0137
      7 C          -8.0184  -19.0007   21.6652 C.ar    1  UNL1        0.0391
      8 C          -7.2778  -18.4146   20.4998 C.ar    1  UNL1        0.1022
      9 N          -5.9495  -18.9810   20.0938 N.ar    1  UNL1       -0.2224
     10 C          -5.3618  -20.1333   20.8532 C.ar    1  UNL1        0.1989
     11 N          -6.1024  -20.7194   22.0186 N.ar    1  UNL1       -0.2224
     12 C          -7.4307  -20.1530   22.4246 C.ar    1  UNL1        0.1022
     13 C          -6.8749  -16.0384   24.0458 C.1     1  UNL1       -0.0689
     14 C          -8.1416  -16.6483   23.5229 C.1     1  UNL1       -0.0614
     15 N          -5.6406  -14.5717   25.7995 N.3     1  UNL1       -0.3102
     16 C          -5.6082  -15.4285   24.5688 C.3     1  UNL1        0.1432
     17 H          -4.6982  -14.2432   26.0100 H       1  UNL1        0.1198
     18 H          -5.9936  -15.1183   26.5851 H       1  UNL1        0.1198
@<TRIPOS>BOND
     1    15    16    1
     2    16    13    1
     3    13    14    3
     4    14     1    1
     5     1     2   ar
     6     2     3   ar
     7     3     4   ar
     8     4     5   ar
     9     5     6   ar
    10     6     7    1
    11     7     8   ar
    12     8     9   ar
    13     9    10   ar
    14    10    11   ar
    15    11    12   ar
    16     6     1   ar
    17    12     7   ar
    18    15    17    1
    19    15    18    1
@<TRIPOS>MOLECULE
*****
 18 19 0 0 0
SMALL
GASTEIGER

@<TRIPOS>ATOM
      1 C         -12.2079  -17.5401   22.6633 C.ar    1  UNL1        0.0609
      2 C         -13.5582  -17.5019   23.3154 C.ar    1  UNL1        0.1071
      3 N         -13.7855  -18.2210   24.6120 N.ar    1  UNL1       -0.2417
      4 C         -12.6626  -18.9784   25.2565 C.ar    1  UNL1        0.0989
      5 C         -11.3123  -19.0166   24.6044 C.ar    1  UNL1        0.0214
      6 C         -11.0850  -18.2975   23.3078 C.ar    1  UNL1        0.0137
      7 C          -9.7347  -18.3357   22.6556 C.ar    1  UNL1        0.0391
      8 C          -8.6897  -17.3288   23.0352 C.ar    1  UNL1        0.1022
      9 N          -7.3394  -17.3670   22.3832 N.ar    1  UNL1       -0.2224
     10 C          -7.0340  -18.4122   21.3515 C.ar    1  UNL1        0.1989
     11 N          -8.0790  -19.4192   20.9719 N.ar    1  UNL1       -0.2224
     12 C          -9.4293  -19.3809   21.6240 C.ar    1  UNL1        0.1022
     13 C         -11.7533  -16.1019   20.0701 C.1     1  UNL1       -0.0689
     14 C         -11.9806  -16.8210   21.3667 C.1     1  UNL1       -0.0614
     15 N         -10.3152  -14.5146   18.5996 N.3     1  UNL1       -0.3102
     16 C         -11.5259  -15.3828   18.7735 C.3     1  UNL1        0.1432
     17 H         -10.3206  -14.1068   17.6647 H       1  UNL1        0.1198
     18 H          -9.4731  -15.0774   18.7202 H       1  UNL1        0.1198
@<TRIPOS>BOND
     1    15    16    1
     2    16    13    1
     3    13    14    3
     4    14     1    1
     5     1     2   ar
     6     2     3   ar
     7     3     4   ar
     8     4     5   ar
     9     5     6   ar
    10     6     7    1
    11     7     8   ar
    12     8     9   ar
    13     9    10   ar
    14    10    11   ar
    15    11    12   ar
    16     6     1   ar
    17    12     7   ar
    18    15    17    1
    19    15    18    1
