@<TRIPOS>MOLECULE
*****
 35 39 0 0 0
SMALL
GASTEIGER

@<TRIPOS>ATOM
      1 C          -4.5545  -19.6221   21.3138 C.3     1  UNL1        0.0731
      2 N          -5.9813  -19.6206   20.8508 N.3     1  UNL1       -0.2712
      3 C          -6.4523  -19.8484   19.4450 C.3     1  UNL1        0.0738
      4 C          -7.9496  -19.7596   19.4378 C.3     1  UNL1        0.0372
      5 C          -9.1661  -19.8455   18.5644 C.3     1  UNL1        0.0245
      6 C         -10.3724  -19.6159   19.4259 C.3     1  UNL1        0.0910
      7 N          -9.9014  -19.3880   20.8318 N.pl3   1  UNL1       -0.3042
      8 C          -8.4040  -19.4768   20.8391 C.3     1  UNL1        0.0902
      9 C          -7.1875  -19.3909   21.7124 C.3     1  UNL1        0.0921
     10 C         -10.7744  -19.1186   22.0214 C.ar    1  UNL1        0.1036
     11 C         -11.9191  -18.1558   21.9090 C.ar    1  UNL1        0.1578
     12 F         -12.1908  -17.4624   20.6069 F       1  UNL1       -0.2027
     13 C         -12.7922  -17.8865   23.0986 C.ar    1  UNL1        0.0607
     14 C         -12.5205  -18.5799   24.4007 C.ar    1  UNL1        0.1447
     15 F         -13.3936  -18.3105   25.5903 F       1  UNL1       -0.2040
     16 C         -11.3758  -19.5427   24.5131 C.ar    1  UNL1        0.0607
     17 C         -10.5027  -19.8121   23.3235 C.ar    1  UNL1        0.1578
     18 F          -9.3581  -20.7749   23.4359 F       1  UNL1       -0.2027
     19 C          -3.4619  -19.1976   20.3780 C.3     1  UNL1        0.0294
     20 C          -2.0461  -19.1139   20.8666 C.3     1  UNL1        0.0666
     21 S          -1.5808  -17.8985   21.6124 S.3     1  UNL1       -0.0756
     22 C          -3.6731  -18.4290   24.0599 C.3     1  UNL1        0.1340
     23 N          -3.5435  -17.1604   23.2700 N.ar    1  UNL1       -0.2884
     24 C          -2.5818  -16.9165   22.1451 C.ar    1  UNL1        0.1932
     25 N          -2.7968  -15.5183   21.6462 N.ar    1  UNL1       -0.1221
     26 N          -3.8914  -14.8980   22.4629 N.ar    1  UNL1       -0.1282
     27 C          -4.3530  -15.9128   23.4665 C.ar    1  UNL1        0.1670
     28 C          -5.4341  -15.7149   24.4873 C.ar    1  UNL1        0.0422
     29 C          -5.0742  -15.4376   25.9168 C.ar    1  UNL1        0.0219
     30 C          -6.1553  -15.2396   26.9376 C.ar    1  UNL1        0.0785
     31 N          -7.5964  -15.3190   26.5287 N.ar    1  UNL1       -0.2922
     32 C          -8.6775  -15.1210   27.5495 C.3     1  UNL1        0.1336
     33 C          -7.9563  -15.5962   25.0992 C.ar    1  UNL1        0.2611
     34 O          -9.3974  -15.6756   24.6905 O.2     1  UNL1       -0.2670
     35 C          -6.8751  -15.7942   24.0785 C.ar    1  UNL1        0.0638
@<TRIPOS>BOND
     1    22    23    1
     2    23    24   ar
     3    24    21    1
     4    21    20    1
     5    20    19    1
     6    19     1    1
     7     1     2    1
     8     2     3    1
     9     3     4    1
    10     4     5    1
    11     5     6    1
    12     6     7    1
    13     7    10    1
    14    10    11   ar
    15    11    12    1
    16    11    13   ar
    17    13    14   ar
    18    14    15    1
    19    14    16   ar
    20    16    17   ar
    21    17    18    1
    22     7     8    1
    23     8     9    1
    24    24    25   ar
    25    25    26   ar
    26    26    27   ar
    27    27    28    1
    28    28    29   ar
    29    29    30   ar
    30    30    31   ar
    31    31    32    1
    32    31    33   ar
    33    33    34    2
    34    33    35   ar
    35    27    23   ar
    36    35    28   ar
    37     9     2    1
    38     8     4    1
    39    17    10   ar
@<TRIPOS>MOLECULE
*****
 35 39 0 0 0
SMALL
GASTEIGER

@<TRIPOS>ATOM
      1 C          -4.3939  -19.2714   19.9761 C.3     1  UNL1        0.0731
      2 N          -5.6587  -19.4618   20.7598 N.3     1  UNL1       -0.2712
      3 C          -5.8615  -20.4341   21.8837 C.3     1  UNL1        0.0738
      4 C          -7.2709  -20.2865   22.3756 C.3     1  UNL1        0.0372
      5 C          -8.2673  -20.7962   23.3743 C.3     1  UNL1        0.0245
      6 C          -9.5513  -20.0477   23.1716 C.3     1  UNL1        0.0910
      7 N          -9.3484  -19.0753   22.0475 N.pl3   1  UNL1       -0.3042
      8 C          -7.9390  -19.2229   21.5556 C.3     1  UNL1        0.0902
      9 C          -6.9426  -18.7132   20.5570 C.3     1  UNL1        0.0921
     10 C         -10.3747  -18.1226   21.5098 C.ar    1  UNL1        0.1036
     11 C         -10.6258  -18.0457   20.0330 C.ar    1  UNL1        0.1578
     12 F          -9.8506  -18.9216   19.0938 F       1  UNL1       -0.2027
     13 C         -11.6521  -17.0930   19.4953 C.ar    1  UNL1        0.0607
     14 C         -12.4272  -16.2172   20.4345 C.ar    1  UNL1        0.1447
     15 F         -13.4535  -15.2645   19.8968 F       1  UNL1       -0.2040
     16 C         -12.1761  -16.2940   21.9113 C.ar    1  UNL1        0.0607
     17 C         -11.1498  -17.2467   22.4490 C.ar    1  UNL1        0.1578
     18 F         -10.8987  -17.3235   23.9258 F       1  UNL1       -0.2027
     19 C          -3.1732  -20.0742   20.3156 C.3     1  UNL1        0.0294
     20 C          -2.2116  -19.5749   21.3530 C.3     1  UNL1        0.0666
     21 S          -1.7820  -18.1378   21.3476 S.3     1  UNL1       -0.0756
     22 C          -3.9558  -18.6409   23.7290 C.3     1  UNL1        0.1340
     23 N          -3.6494  -17.3244   23.0786 N.ar    1  UNL1       -0.2884
     24 C          -2.6502  -17.0932   21.9840 C.ar    1  UNL1        0.1932
     25 N          -2.6716  -15.6339   21.6375 N.ar    1  UNL1       -0.1221
     26 N          -3.6840  -14.9632   22.5179 N.ar    1  UNL1       -0.1282
     27 C          -4.2884  -16.0080   23.4086 C.ar    1  UNL1        0.1670
     28 C          -5.3459  -15.7769   24.4470 C.ar    1  UNL1        0.0422
     29 C          -4.9708  -15.7104   25.8978 C.ar    1  UNL1        0.0219
     30 C          -6.0283  -15.4794   26.9361 C.ar    1  UNL1        0.0785
     31 N          -7.4611  -15.3148   26.5236 N.ar    1  UNL1       -0.2922
     32 C          -8.5187  -15.0838   27.5619 C.3     1  UNL1        0.1336
     33 C          -7.8363  -15.3813   25.0728 C.ar    1  UNL1        0.2611
     34 O          -9.2691  -15.2168   24.6604 O.2     1  UNL1       -0.2670
     35 C          -6.7787  -15.6124   24.0345 C.ar    1  UNL1        0.0638
@<TRIPOS>BOND
     1    22    23    1
     2    23    24   ar
     3    24    21    1
     4    21    20    1
     5    20    19    1
     6    19     1    1
     7     1     2    1
     8     2     3    1
     9     3     4    1
    10     4     5    1
    11     5     6    1
    12     6     7    1
    13     7    10    1
    14    10    11   ar
    15    11    12    1
    16    11    13   ar
    17    13    14   ar
    18    14    15    1
    19    14    16   ar
    20    16    17   ar
    21    17    18    1
    22     7     8    1
    23     8     9    1
    24    24    25   ar
    25    25    26   ar
    26    26    27   ar
    27    27    28    1
    28    28    29   ar
    29    29    30   ar
    30    30    31   ar
    31    31    32    1
    32    31    33   ar
    33    33    34    2
    34    33    35   ar
    35    27    23   ar
    36    35    28   ar
    37     9     2    1
    38     8     4    1
    39    17    10   ar
@<TRIPOS>MOLECULE
*****
 35 39 0 0 0
SMALL
GASTEIGER

@<TRIPOS>ATOM
      1 C         -10.1322  -18.0864   20.3941 C.3     1  UNL1        0.0731
      2 N          -8.8198  -18.8117   20.3532 N.3     1  UNL1       -0.2712
      3 C          -8.6301  -20.2774   20.0971 C.3     1  UNL1        0.0738
      4 C          -7.1597  -20.5701   20.1469 C.3     1  UNL1        0.0372
      5 C          -6.1338  -21.6568   20.0193 C.3     1  UNL1        0.0245
      6 C          -4.7807  -21.0437   20.2274 C.3     1  UNL1        0.0910
      7 N          -4.9704  -19.5779   20.4835 N.pl3   1  UNL1       -0.3042
      8 C          -6.4408  -19.2852   20.4338 C.3     1  UNL1        0.0902
      9 C          -7.4667  -18.1985   20.5613 C.3     1  UNL1        0.0921
     10 C          -3.8811  -18.5801   20.7437 C.ar    1  UNL1        0.1036
     11 C          -2.8529  -18.2999   19.6882 C.ar    1  UNL1        0.1578
     12 F          -2.9139  -19.0176   18.3724 F       1  UNL1       -0.2027
     13 C          -1.7636  -17.3021   19.9484 C.ar    1  UNL1        0.0607
     14 C          -1.7025  -16.5844   21.2642 C.ar    1  UNL1        0.1447
     15 F          -0.6132  -15.5866   21.5244 F       1  UNL1       -0.2040
     16 C          -2.7308  -16.8645   22.3198 C.ar    1  UNL1        0.0607
     17 C          -3.8201  -17.8624   22.0596 C.ar    1  UNL1        0.1578
     18 F          -4.8484  -18.1426   23.1151 F       1  UNL1       -0.2027
     19 C         -11.3999  -18.8440   20.6568 C.3     1  UNL1        0.0294
     20 C         -12.5848  -18.1408   21.2497 C.3     1  UNL1        0.0666
     21 S         -12.7813  -18.1260   22.7367 S.3     1  UNL1       -0.0756
     22 C         -10.5445  -15.7582   22.9365 C.3     1  UNL1        0.1340
     23 N         -10.5636  -17.0234   23.7421 N.ar    1  UNL1       -0.2884
     24 C         -11.5917  -18.1117   23.6503 C.ar    1  UNL1        0.1932
     25 N         -11.2214  -19.1834   24.6324 N.ar    1  UNL1       -0.1221
     26 N          -9.9644  -18.7574   25.3312 N.ar    1  UNL1       -0.1282
     27 C          -9.5578  -17.4224   24.7811 C.ar    1  UNL1        0.1670
     28 C          -8.3563  -16.6263   25.1968 C.ar    1  UNL1        0.0422
     29 C          -8.1400  -16.2953   26.6437 C.ar    1  UNL1        0.0219
     30 C          -6.9386  -15.4992   27.0594 C.ar    1  UNL1        0.0785
     31 N          -5.9535  -15.0341   26.0281 N.ar    1  UNL1       -0.2922
     32 C          -4.7521  -14.2380   26.4438 C.3     1  UNL1        0.1336
     33 C          -6.1699  -15.3651   24.5812 C.ar    1  UNL1        0.2611
     34 O          -5.1849  -14.9000   23.5500 O.2     1  UNL1       -0.2670
     35 C          -7.3714  -16.1613   24.1655 C.ar    1  UNL1        0.0638
@<TRIPOS>BOND
     1    22    23    1
     2    23    24   ar
     3    24    21    1
     4    21    20    1
     5    20    19    1
     6    19     1    1
     7     1     2    1
     8     2     3    1
     9     3     4    1
    10     4     5    1
    11     5     6    1
    12     6     7    1
    13     7    10    1
    14    10    11   ar
    15    11    12    1
    16    11    13   ar
    17    13    14   ar
    18    14    15    1
    19    14    16   ar
    20    16    17   ar
    21    17    18    1
    22     7     8    1
    23     8     9    1
    24    24    25   ar
    25    25    26   ar
    26    26    27   ar
    27    27    28    1
    28    28    29   ar
    29    29    30   ar
    30    30    31   ar
    31    31    32    1
    32    31    33   ar
    33    33    34    2
    34    33    35   ar
    35    27    23   ar
    36    35    28   ar
    37     9     2    1
    38     8     4    1
    39    17    10   ar
@<TRIPOS>MOLECULE
*****
 35 39 0 0 0
SMALL
GASTEIGER

@<TRIPOS>ATOM
      1 C          -3.2762  -16.4912   22.7445 C.3     1  UNL1        0.0731
      2 N          -4.5612  -16.2819   23.4895 N.3     1  UNL1       -0.2712
      3 C          -4.6903  -15.8816   24.9293 C.3     1  UNL1        0.0738
      4 C          -6.1516  -15.7884   25.2551 C.3     1  UNL1        0.0372
      5 C          -7.1345  -15.4834   26.3464 C.3     1  UNL1        0.0245
      6 C          -8.5159  -15.6375   25.7824 C.3     1  UNL1        0.0910
      7 N          -8.3867  -16.0378   24.3425 N.pl3   1  UNL1       -0.3042
      8 C          -6.9254  -16.1310   24.0167 C.3     1  UNL1        0.0902
      9 C          -5.9425  -16.4360   22.9255 C.3     1  UNL1        0.0921
     10 C          -9.5197  -16.2991   23.3949 C.ar    1  UNL1        0.1036
     11 C          -9.5095  -15.6853   22.0263 C.ar    1  UNL1        0.1578
     12 F          -8.3661  -14.8103   21.6052 F       1  UNL1       -0.2027
     13 C         -10.6425  -15.9465   21.0787 C.ar    1  UNL1        0.0607
     14 C         -11.7858  -16.8215   21.4997 C.ar    1  UNL1        0.1447
     15 F         -12.9189  -17.0827   20.5521 F       1  UNL1       -0.2040
     16 C         -11.7961  -17.4353   22.8684 C.ar    1  UNL1        0.0607
     17 C         -10.6630  -17.1741   23.8160 C.ar    1  UNL1        0.1578
     18 F         -10.6733  -17.7878   25.1846 F       1  UNL1       -0.2027
     19 C          -2.4099  -17.6741   23.0610 C.3     1  UNL1        0.0294
     20 C          -1.4675  -18.2122   22.0254 C.3     1  UNL1        0.0666
     21 S          -1.9904  -19.0591   20.9032 S.3     1  UNL1       -0.0756
     22 C          -4.6305  -20.2127   22.4358 C.3     1  UNL1        0.1340
     23 N          -4.6249  -19.4366   21.1522 N.ar    1  UNL1       -0.2884
     24 C          -3.4114  -18.9063   20.4477 C.ar    1  UNL1        0.1932
     25 N          -3.8683  -18.1965   19.2078 N.ar    1  UNL1       -0.1221
     26 N          -5.3642  -18.2880   19.1459 N.ar    1  UNL1       -0.1282
     27 C          -5.8319  -19.0545   20.3476 C.ar    1  UNL1        0.1670
     28 C          -7.2564  -19.3813   20.6854 C.ar    1  UNL1        0.0422
     29 C          -8.3012  -19.3822   19.6091 C.ar    1  UNL1        0.0219
     30 C          -9.7256  -19.7091   19.9469 C.ar    1  UNL1        0.0785
     31 N         -10.1052  -20.0351   21.3610 N.ar    1  UNL1       -0.2922
     32 C         -11.5296  -20.3620   21.6988 C.3     1  UNL1        0.1336
     33 C          -9.0604  -20.0343   22.4373 C.ar    1  UNL1        0.2611
     34 O          -9.4400  -20.3603   23.8514 O.2     1  UNL1       -0.2670
     35 C          -7.6359  -19.7074   22.0994 C.ar    1  UNL1        0.0638
@<TRIPOS>BOND
     1    22    23    1
     2    23    24   ar
     3    24    21    1
     4    21    20    1
     5    20    19    1
     6    19     1    1
     7     1     2    1
     8     2     3    1
     9     3     4    1
    10     4     5    1
    11     5     6    1
    12     6     7    1
    13     7    10    1
    14    10    11   ar
    15    11    12    1
    16    11    13   ar
    17    13    14   ar
    18    14    15    1
    19    14    16   ar
    20    16    17   ar
    21    17    18    1
    22     7     8    1
    23     8     9    1
    24    24    25   ar
    25    25    26   ar
    26    26    27   ar
    27    27    28    1
    28    28    29   ar
    29    29    30   ar
    30    30    31   ar
    31    31    32    1
    32    31    33   ar
    33    33    34    2
    34    33    35   ar
    35    27    23   ar
    36    35    28   ar
    37     9     2    1
    38     8     4    1
    39    17    10   ar
@<TRIPOS>MOLECULE
*****
 35 39 0 0 0
SMALL
GASTEIGER

@<TRIPOS>ATOM
      1 C         -11.1023  -17.7235   19.4690 C.3     1  UNL1        0.0731
      2 N          -9.9398  -18.6714   19.4717 N.3     1  UNL1       -0.2712
      3 C          -9.8958  -20.0145   18.8052 C.3     1  UNL1        0.0738
      4 C          -8.5460  -20.6158   19.0630 C.3     1  UNL1        0.0372
      5 C          -7.6845  -21.8175   18.8104 C.3     1  UNL1        0.0245
      6 C          -6.3619  -21.5888   19.4801 C.3     1  UNL1        0.0910
      7 N          -6.4060  -20.2457   20.1466 N.pl3   1  UNL1       -0.3042
      8 C          -7.7558  -19.6444   19.8888 C.3     1  UNL1        0.0902
      9 C          -8.6173  -18.4427   20.1414 C.3     1  UNL1        0.0921
     10 C          -5.2953  -19.6147   20.9329 C.ar    1  UNL1        0.1036
     11 C          -5.5767  -19.0111   22.2769 C.ar    1  UNL1        0.1578
     12 F          -6.9689  -19.0384   22.8347 F       1  UNL1       -0.2027
     13 C          -4.4660  -18.3801   23.0631 C.ar    1  UNL1        0.0607
     14 C          -3.0739  -18.3528   22.5054 C.ar    1  UNL1        0.1447
     15 F          -1.9631  -17.7218   23.2916 F       1  UNL1       -0.2040
     16 C          -2.7924  -18.9564   21.1613 C.ar    1  UNL1        0.0607
     17 C          -3.9031  -19.5873   20.3750 C.ar    1  UNL1        0.1578
     18 F          -3.6217  -20.1909   19.0310 F       1  UNL1       -0.2027
     19 C         -11.7106  -17.2790   20.7660 C.3     1  UNL1        0.0294
     20 C         -12.7318  -18.1394   21.4495 C.3     1  UNL1        0.0666
     21 S         -12.8203  -18.1525   22.9467 S.3     1  UNL1       -0.0756
     22 C         -10.6788  -15.7031   23.1993 C.3     1  UNL1        0.1340
     23 N         -10.5834  -17.0322   23.8881 N.ar    1  UNL1       -0.2884
     24 C         -11.5678  -18.1580   23.7720 C.ar    1  UNL1        0.1932
     25 N         -11.0797  -19.2904   24.6262 N.ar    1  UNL1       -0.1221
     26 N          -9.7937  -18.8644   25.2701 N.ar    1  UNL1       -0.1282
     27 C          -9.4869  -17.4687   24.8140 C.ar    1  UNL1        0.1670
     28 C          -8.2933  -16.6529   25.2136 C.ar    1  UNL1        0.0422
     29 C          -8.0778  -16.2949   26.6542 C.ar    1  UNL1        0.0219
     30 C          -6.8842  -15.4790   27.0538 C.ar    1  UNL1        0.0785
     31 N          -5.9061  -15.0212   26.0127 N.ar    1  UNL1       -0.2922
     32 C          -4.7125  -14.2054   26.4123 C.3     1  UNL1        0.1336
     33 C          -6.1216  -15.3792   24.5721 C.ar    1  UNL1        0.2611
     34 O          -5.1435  -14.9214   23.5311 O.2     1  UNL1       -0.2670
     35 C          -7.3153  -16.1951   24.1726 C.ar    1  UNL1        0.0638
@<TRIPOS>BOND
     1    22    23    1
     2    23    24   ar
     3    24    21    1
     4    21    20    1
     5    20    19    1
     6    19     1    1
     7     1     2    1
     8     2     3    1
     9     3     4    1
    10     4     5    1
    11     5     6    1
    12     6     7    1
    13     7    10    1
    14    10    11   ar
    15    11    12    1
    16    11    13   ar
    17    13    14   ar
    18    14    15    1
    19    14    16   ar
    20    16    17   ar
    21    17    18    1
    22     7     8    1
    23     8     9    1
    24    24    25   ar
    25    25    26   ar
    26    26    27   ar
    27    27    28    1
    28    28    29   ar
    29    29    30   ar
    30    30    31   ar
    31    31    32    1
    32    31    33   ar
    33    33    34    2
    34    33    35   ar
    35    27    23   ar
    36    35    28   ar
    37     9     2    1
    38     8     4    1
    39    17    10   ar
@<TRIPOS>MOLECULE
*****
 35 39 0 0 0
SMALL
GASTEIGER

@<TRIPOS>ATOM
      1 C           6.3762   -3.1064   25.1056 C.3     1  UNL1        0.0731
      2 N           5.7817   -1.7594   25.3922 N.3     1  UNL1       -0.2712
      3 C           6.4239   -0.4338   25.1089 C.3     1  UNL1        0.0738
      4 C           5.4796    0.6432   25.5541 C.3     1  UNL1        0.0372
      5 C           5.2929    2.1282   25.6541 C.3     1  UNL1        0.0245
      6 C           3.9517    2.3861   26.2743 C.3     1  UNL1        0.0910
      7 N           3.3094    1.0604   26.5575 N.pl3   1  UNL1       -0.3042
      8 C           4.2537   -0.0167   26.1124 C.3     1  UNL1        0.0902
      9 C           4.4404   -1.5016   26.0124 C.3     1  UNL1        0.0921
     10 C           1.9598    0.8490   27.1771 C.ar    1  UNL1        0.1036
     11 C           1.8343    0.0732   28.4547 C.ar    1  UNL1        0.1578
     12 F           3.0584   -0.4913   29.1128 F       1  UNL1       -0.2027
     13 C           0.4847   -0.1382   29.0743 C.ar    1  UNL1        0.0607
     14 C          -0.7394    0.4262   28.4163 C.ar    1  UNL1        0.1447
     15 F          -2.0890    0.2148   29.0359 F       1  UNL1       -0.2040
     16 C          -0.6139    1.2021   27.1387 C.ar    1  UNL1        0.0607
     17 C           0.7357    1.4135   26.5191 C.ar    1  UNL1        0.1578
     18 F           0.8612    2.1894   25.2415 F       1  UNL1       -0.2027
     19 C           6.1771   -3.7437   23.7624 C.3     1  UNL1        0.0294
     20 C           7.3629   -4.0689   22.9033 C.3     1  UNL1        0.0666
     21 S           7.2574   -3.9689   21.4104 S.3     1  UNL1       -0.0756
     22 C           6.0753   -0.9463   21.0700 C.3     1  UNL1        0.1340
     23 N           5.4068   -2.2106   20.6176 N.ar    1  UNL1       -0.2884
     24 C           5.9501   -3.5999   20.7740 C.ar    1  UNL1        0.1932
     25 N           4.9568   -4.5555   20.1824 N.ar    1  UNL1       -0.1221
     26 N           3.7994   -3.7568   19.6603 N.ar    1  UNL1       -0.1282
     27 C           4.0775   -2.3075   19.9292 C.ar    1  UNL1        0.1670
     28 C           3.1834   -1.1571   19.5725 C.ar    1  UNL1        0.0422
     29 C           3.6105   -0.1720   18.5251 C.ar    1  UNL1        0.0219
     30 C           2.7163    0.9784   18.1684 C.ar    1  UNL1        0.0785
     31 N           1.3950    1.1434   18.8591 N.ar    1  UNL1       -0.2922
     32 C           0.5009    2.2938   18.5024 C.3     1  UNL1        0.1336
     33 C           0.9679    0.1583   19.9065 C.ar    1  UNL1        0.2611
     34 O          -0.3533    0.3234   20.5971 O.2     1  UNL1       -0.2670
     35 C           1.8621   -0.9921   20.2632 C.ar    1  UNL1        0.0638
@<TRIPOS>BOND
     1    22    23    1
     2    23    24   ar
     3    24    21    1
     4    21    20    1
     5    20    19    1
     6    19     1    1
     7     1     2    1
     8     2     3    1
     9     3     4    1
    10     4     5    1
    11     5     6    1
    12     6     7    1
    13     7    10    1
    14    10    11   ar
    15    11    12    1
    16    11    13   ar
    17    13    14   ar
    18    14    15    1
    19    14    16   ar
    20    16    17   ar
    21    17    18    1
    22     7     8    1
    23     8     9    1
    24    24    25   ar
    25    25    26   ar
    26    26    27   ar
    27    27    28    1
    28    28    29   ar
    29    29    30   ar
    30    30    31   ar
    31    31    32    1
    32    31    33   ar
    33    33    34    2
    34    33    35   ar
    35    27    23   ar
    36    35    28   ar
    37     9     2    1
    38     8     4    1
    39    17    10   ar
@<TRIPOS>MOLECULE
*****
 35 39 0 0 0
SMALL
GASTEIGER

@<TRIPOS>ATOM
      1 C           6.0590   -2.8517   24.9815 C.3     1  UNL1        0.0731
      2 N           4.9293   -1.8654   25.0104 N.3     1  UNL1       -0.2712
      3 C           4.1936   -1.3324   23.8168 C.3     1  UNL1        0.0738
      4 C           3.1465   -0.3765   24.3067 C.3     1  UNL1        0.0372
      5 C           2.0447    0.5437   23.8717 C.3     1  UNL1        0.0245
      6 C           1.4523    1.1702   25.0992 C.3     1  UNL1        0.0910
      7 N           2.1881    0.6371   26.2928 N.pl3   1  UNL1       -0.3042
      8 C           3.2351   -0.3187   25.8029 C.3     1  UNL1        0.0902
      9 C           4.3369   -1.2390   26.2379 C.3     1  UNL1        0.0921
     10 C           1.9232    0.9968   27.7247 C.ar    1  UNL1        0.1036
     11 C           0.5437    0.8444   28.2936 C.ar    1  UNL1        0.1578
     12 F          -0.5711    0.3322   27.4304 F       1  UNL1       -0.2027
     13 C           0.2789    1.2040   29.7255 C.ar    1  UNL1        0.0607
     14 C           1.3936    1.7162   30.5886 C.ar    1  UNL1        0.1447
     15 F           1.1288    2.0759   32.0206 F       1  UNL1       -0.2040
     16 C           2.7732    1.8687   30.0198 C.ar    1  UNL1        0.0607
     17 C           3.0380    1.5090   28.5879 C.ar    1  UNL1        0.1578
     18 F           4.4176    1.6615   28.0191 F       1  UNL1       -0.2027
     19 C           6.1430   -3.8638   23.8776 C.3     1  UNL1        0.0294
     20 C           7.3688   -3.9339   23.0159 C.3     1  UNL1        0.0666
     21 S           7.2343   -3.9761   21.5225 S.3     1  UNL1       -0.0756
     22 C           6.0518   -0.9736   21.0365 C.3     1  UNL1        0.1340
     23 N           5.3791   -2.2587   20.6545 N.ar    1  UNL1       -0.2884
     24 C           5.9226   -3.6388   20.8779 C.ar    1  UNL1        0.1932
     25 N           4.9241   -4.6223   20.3435 N.ar    1  UNL1       -0.1221
     26 N           3.7634   -3.8501   19.7898 N.ar    1  UNL1       -0.1282
     27 C           4.0446   -2.3893   19.9820 C.ar    1  UNL1        0.1670
     28 C           3.1486   -1.2577   19.5734 C.ar    1  UNL1        0.0422
     29 C           3.5002   -0.4148   18.3835 C.ar    1  UNL1        0.0219
     30 C           2.6042    0.7168   17.9749 C.ar    1  UNL1        0.0785
     31 N           1.3567    1.0052   18.7563 N.ar    1  UNL1       -0.2922
     32 C           0.4607    2.1368   18.3478 C.3     1  UNL1        0.1336
     33 C           1.0051    0.1623   19.9462 C.ar    1  UNL1        0.2611
     34 O          -0.2424    0.4508   20.7275 O.2     1  UNL1       -0.2670
     35 C           1.9012   -0.9693   20.3547 C.ar    1  UNL1        0.0638
@<TRIPOS>BOND
     1    22    23    1
     2    23    24   ar
     3    24    21    1
     4    21    20    1
     5    20    19    1
     6    19     1    1
     7     1     2    1
     8     2     3    1
     9     3     4    1
    10     4     5    1
    11     5     6    1
    12     6     7    1
    13     7    10    1
    14    10    11   ar
    15    11    12    1
    16    11    13   ar
    17    13    14   ar
    18    14    15    1
    19    14    16   ar
    20    16    17   ar
    21    17    18    1
    22     7     8    1
    23     8     9    1
    24    24    25   ar
    25    25    26   ar
    26    26    27   ar
    27    27    28    1
    28    28    29   ar
    29    29    30   ar
    30    30    31   ar
    31    31    32    1
    32    31    33   ar
    33    33    34    2
    34    33    35   ar
    35    27    23   ar
    36    35    28   ar
    37     9     2    1
    38     8     4    1
    39    17    10   ar
@<TRIPOS>MOLECULE
*****
 35 39 0 0 0
SMALL
GASTEIGER

@<TRIPOS>ATOM
      1 C          -7.9028  -20.3408   18.9566 C.3     1  UNL1        0.0731
      2 N          -7.0219  -19.7752   20.0309 N.3     1  UNL1       -0.2712
      3 C          -7.4037  -19.5698   21.4669 C.3     1  UNL1        0.0738
      4 C          -6.2223  -18.9833   22.1812 C.3     1  UNL1        0.0372
      5 C          -5.7281  -18.4938   23.5102 C.3     1  UNL1        0.0245
      6 C          -4.3107  -18.0343   23.3371 C.3     1  UNL1        0.0910
      7 N          -3.9290  -18.2397   21.9011 N.pl3   1  UNL1       -0.3042
      8 C          -5.1104  -18.8262   21.1867 C.3     1  UNL1        0.0902
      9 C          -5.6046  -19.3157   19.8577 C.3     1  UNL1        0.0921
     10 C          -2.5993  -17.9156   21.2872 C.ar    1  UNL1        0.1036
     11 C          -1.8315  -18.9773   20.5570 C.ar    1  UNL1        0.1578
     12 F          -2.3934  -20.3632   20.4406 F       1  UNL1       -0.2027
     13 C          -0.5018  -18.6531   19.9432 C.ar    1  UNL1        0.0607
     14 C           0.0602  -17.2673   20.0595 C.ar    1  UNL1        0.1447
     15 F           1.3899  -16.9431   19.4457 F       1  UNL1       -0.2040
     16 C          -0.7076  -16.2055   20.7897 C.ar    1  UNL1        0.0607
     17 C          -2.0373  -16.5296   21.4036 C.ar    1  UNL1        0.1578
     18 F          -2.8051  -15.4679   22.1338 F       1  UNL1       -0.2027
     19 C          -9.2262  -19.7010   18.6577 C.3     1  UNL1        0.0294
     20 C         -10.4166  -20.0022   19.5192 C.3     1  UNL1        0.0666
     21 S         -11.2228  -18.8802   20.1033 S.3     1  UNL1       -0.0756
     22 C          -9.8834  -19.0217   23.0758 C.3     1  UNL1        0.1340
     23 N          -9.9186  -17.8183   22.1809 N.ar    1  UNL1       -0.2884
     24 C         -10.5343  -17.7533   20.8147 C.ar    1  UNL1        0.1932
     25 N         -10.3406  -16.3635   20.2846 N.ar    1  UNL1       -0.1221
     26 N          -9.6052  -15.5696   21.3233 N.ar    1  UNL1       -0.1282
     27 C          -9.3444  -16.4687   22.4953 C.ar    1  UNL1        0.1670
     28 C          -8.6341  -16.0854   23.7597 C.ar    1  UNL1        0.0422
     29 C          -9.3249  -16.2347   25.0828 C.ar    1  UNL1        0.0219
     30 C          -8.6146  -15.8515   26.3471 C.ar    1  UNL1        0.0785
     31 N          -7.2135  -15.3189   26.2883 N.ar    1  UNL1       -0.2922
     32 C          -6.5032  -14.9356   27.5527 C.3     1  UNL1        0.1336
     33 C          -6.5227  -15.1696   24.9652 C.ar    1  UNL1        0.2611
     34 O          -5.1217  -14.6370   24.9065 O.2     1  UNL1       -0.2670
     35 C          -7.2331  -15.5529   23.7009 C.ar    1  UNL1        0.0638
@<TRIPOS>BOND
     1    22    23    1
     2    23    24   ar
     3    24    21    1
     4    21    20    1
     5    20    19    1
     6    19     1    1
     7     1     2    1
     8     2     3    1
     9     3     4    1
    10     4     5    1
    11     5     6    1
    12     6     7    1
    13     7    10    1
    14    10    11   ar
    15    11    12    1
    16    11    13   ar
    17    13    14   ar
    18    14    15    1
    19    14    16   ar
    20    16    17   ar
    21    17    18    1
    22     7     8    1
    23     8     9    1
    24    24    25   ar
    25    25    26   ar
    26    26    27   ar
    27    27    28    1
    28    28    29   ar
    29    29    30   ar
    30    30    31   ar
    31    31    32    1
    32    31    33   ar
    33    33    34    2
    34    33    35   ar
    35    27    23   ar
    36    35    28   ar
    37     9     2    1
    38     8     4    1
    39    17    10   ar
@<TRIPOS>MOLECULE
*****
 35 39 0 0 0
SMALL
GASTEIGER

@<TRIPOS>ATOM
      1 C          -0.4725    0.5799   28.3871 C.3     1  UNL1        0.0731
      2 N           0.5211    0.6669   29.5075 N.3     1  UNL1       -0.2712
      3 C           0.5181    1.6821   30.6117 C.3     1  UNL1        0.0738
      4 C           1.6872    1.3964   31.5070 C.3     1  UNL1        0.0372
      5 C           2.4080    1.8473   32.7428 C.3     1  UNL1        0.0245
      6 C           3.5789    0.9343   32.9558 C.3     1  UNL1        0.0910
      7 N           3.5818   -0.0810   31.8515 N.pl3   1  UNL1       -0.3042
      8 C           2.4127    0.2047   30.9562 C.3     1  UNL1        0.0902
      9 C           1.6919   -0.2462   29.7204 C.3     1  UNL1        0.0921
     10 C           4.5788   -1.1876   31.6738 C.ar    1  UNL1        0.1036
     11 C           5.3586   -1.2966   30.3971 C.ar    1  UNL1        0.1578
     12 F           5.1415   -0.2990   29.2981 F       1  UNL1       -0.2027
     13 C           6.3556   -2.4032   30.2194 C.ar    1  UNL1        0.0607
     14 C           6.5727   -3.4007   31.3184 C.ar    1  UNL1        0.1447
     15 F           7.5696   -4.5073   31.1407 F       1  UNL1       -0.2040
     16 C           5.7928   -3.2917   32.5951 C.ar    1  UNL1        0.0607
     17 C           4.7958   -2.1851   32.7728 C.ar    1  UNL1        0.1578
     18 F           4.0160   -2.0761   34.0495 F       1  UNL1       -0.2027
     19 C          -0.1268    1.1273   27.0340 C.3     1  UNL1        0.0294
     20 C           0.7067    2.3690   26.9177 C.3     1  UNL1        0.0666
     21 S           2.1517    2.2686   26.5279 S.3     1  UNL1       -0.0756
     22 C           2.1105    1.6241   23.3291 C.3     1  UNL1        0.1340
     23 N           2.6479    0.7250   24.4028 N.ar    1  UNL1       -0.2884
     24 C           2.6668    1.0213   25.8731 C.ar    1  UNL1        0.1932
     25 N           3.2914   -0.1488   26.5738 N.ar    1  UNL1       -0.1221
     26 N           3.6585   -1.1682   25.5364 N.ar    1  UNL1       -0.1282
     27 C           3.2608   -0.6282   24.1947 C.ar    1  UNL1        0.1670
     28 C           3.4438   -1.3199   22.8763 C.ar    1  UNL1        0.0422
     29 C           2.7291   -0.8141   21.6584 C.ar    1  UNL1        0.0219
     30 C           2.9122   -1.5058   20.3400 C.ar    1  UNL1        0.0785
     31 N           3.8100   -2.7034   20.2397 N.ar    1  UNL1       -0.2922
     32 C           3.9930   -3.3951   18.9214 C.3     1  UNL1        0.1336
     33 C           4.5246   -3.2092   21.4577 C.ar    1  UNL1        0.2611
     34 O           5.4224   -4.4066   21.3573 O.2     1  UNL1       -0.2670
     35 C           4.3415   -2.5174   22.7760 C.ar    1  UNL1        0.0638
@<TRIPOS>BOND
     1    22    23    1
     2    23    24   ar
     3    24    21    1
     4    21    20    1
     5    20    19    1
     6    19     1    1
     7     1     2    1
     8     2     3    1
     9     3     4    1
    10     4     5    1
    11     5     6    1
    12     6     7    1
    13     7    10    1
    14    10    11   ar
    15    11    12    1
    16    11    13   ar
    17    13    14   ar
    18    14    15    1
    19    14    16   ar
    20    16    17   ar
    21    17    18    1
    22     7     8    1
    23     8     9    1
    24    24    25   ar
    25    25    26   ar
    26    26    27   ar
    27    27    28    1
    28    28    29   ar
    29    29    30   ar
    30    30    31   ar
    31    31    32    1
    32    31    33   ar
    33    33    34    2
    34    33    35   ar
    35    27    23   ar
    36    35    28   ar
    37     9     2    1
    38     8     4    1
    39    17    10   ar
