@<TRIPOS>MOLECULE
*****
 34 36 0 0 0
SMALL
GASTEIGER

@<TRIPOS>ATOM
      1 C          -6.1265  -15.4383   23.8140 C.2     1  UNL1        0.2270
      2 O          -7.0333  -15.4852   22.6201 O.2     1  UNL1       -0.2748
      3 N          -6.6944  -15.5941   25.1936 N.am    1  UNL1       -0.2794
      4 C          -5.9158  -15.5692   26.4755 C.3     1  UNL1        0.0935
      5 C          -6.8807  -15.7619   27.6077 C.3     1  UNL1        0.0233
      6 C          -8.2557  -15.9059   27.0255 C.3     1  UNL1        0.0233
      7 C          -8.1404  -15.8023   25.5335 C.3     1  UNL1        0.0949
      8 C          -4.6519  -15.2357   23.6285 C.3     1  UNL1        0.1010
      9 N          -2.8627  -15.8999   21.8656 N.3     1  UNL1       -0.3215
     10 C          -3.8305  -16.2878   22.9440 C.3     1  UNL1        0.0644
     11 H          -2.8932  -14.8896   21.7287 H       1  UNL1        0.1188
     12 H          -3.1168  -16.3686   20.9960 H       1  UNL1        0.1188
     13 C          -3.9769  -17.7277   23.3379 C.3     1  UNL1        0.0447
     14 C          -4.5563  -18.7152   22.3687 C.ar    1  UNL1        0.0090
     15 C          -6.0437  -18.8753   22.2601 C.ar    1  UNL1        0.0300
     16 C          -6.6230  -19.8628   21.2910 C.ar    1  UNL1        0.1672
     17 F          -8.1105  -20.0229   21.1823 F       1  UNL1       -0.2018
     18 C          -5.7148  -20.6902   20.4304 C.ar    1  UNL1        0.1696
     19 F          -6.2941  -21.6778   19.4613 F       1  UNL1       -0.2017
     20 C          -4.2273  -20.5302   20.5390 C.ar    1  UNL1        0.0612
     21 C          -3.6481  -19.5427   21.5082 C.ar    1  UNL1        0.1386
     22 F          -2.1606  -19.3826   21.6168 F       1  UNL1       -0.2044
     23 C          -9.2725  -15.8912   24.5535 C.3     1  UNL1        0.1091
     24 N          -9.5435  -17.1799   23.8353 N.am    1  UNL1       -0.3025
     25 C         -10.7238  -17.2928   22.9166 C.2     1  UNL1        0.2297
     26 O         -11.6332  -16.1168   22.7160 O.2     1  UNL1       -0.2748
     27 H          -8.9467  -17.9517   23.9669 H       1  UNL1        0.1495
     28 C         -10.9947  -18.5815   22.1984 C.3     1  UNL1        0.1557
     29 C         -11.1476  -20.0535   21.9535 C.3     1  UNL1        0.0177
     30 C         -10.7490  -19.5565   23.3115 C.3     1  UNL1        0.0177
     31 C         -11.3345  -18.0541   20.8360 C.3     1  UNL1        0.4048
     32 F         -11.6743  -17.5266   19.4735 F       1  UNL1       -0.1695
     33 F          -9.8764  -17.8446   20.5534 F       1  UNL1       -0.1695
     34 F         -12.7928  -18.2636   21.1186 F       1  UNL1       -0.1695
@<TRIPOS>BOND
     1    10     9    1
     2    10     8    1
     3     8     1    1
     4     1     2    2
     5     1     3   am
     6     3     4    1
     7     4     5    1
     8     5     6    1
     9     6     7    1
    10     7    23    1
    11    23    24    1
    12    24    25   am
    13    25    26    2
    14    25    28    1
    15    28    31    1
    16    31    32    1
    17    31    33    1
    18    31    34    1
    19    28    29    1
    20    29    30    1
    21    10    13    1
    22    13    14    1
    23    14    15   ar
    24    15    16   ar
    25    16    17    1
    26    16    18   ar
    27    18    19    1
    28    18    20   ar
    29    20    21   ar
    30    21    22    1
    31     7     3    1
    32    30    28    1
    33    21    14   ar
    34     9    11    1
    35     9    12    1
    36    24    27    1
@<TRIPOS>MOLECULE
*****
 34 36 0 0 0
SMALL
GASTEIGER

@<TRIPOS>ATOM
      1 C          -8.1348  -16.3851   23.8320 C.2     1  UNL1        0.2270
      2 O          -7.5218  -16.5395   22.4717 O.2     1  UNL1       -0.2748
      3 N          -7.2921  -15.9321   24.9873 N.am    1  UNL1       -0.2794
      4 C          -7.7630  -15.7332   26.3976 C.3     1  UNL1        0.0935
      5 C          -6.5926  -15.2767   27.2171 C.3     1  UNL1        0.0233
      6 C          -5.3983  -15.1935   26.3133 C.3     1  UNL1        0.0233
      7 C          -5.8306  -15.5986   24.9353 C.3     1  UNL1        0.0949
      8 C          -9.5904  -16.6836   24.0370 C.3     1  UNL1        0.1010
      9 N          -9.7665  -18.5170   25.8695 N.3     1  UNL1       -0.3215
     10 C         -10.0217  -18.0550   24.4654 C.3     1  UNL1        0.0644
     11 H          -9.2949  -17.7776   26.3903 H       1  UNL1        0.1188
     12 H          -9.1772  -19.3493   25.8518 H       1  UNL1        0.1188
     13 C         -10.7081  -18.9643   23.4897 C.3     1  UNL1        0.0447
     14 C         -10.1374  -19.1585   22.1162 C.ar    1  UNL1        0.0090
     15 C          -8.7088  -19.5848   21.9510 C.ar    1  UNL1        0.0300
     16 C          -8.1381  -19.7790   20.5774 C.ar    1  UNL1        0.1672
     17 F          -6.7094  -20.2052   20.4122 F       1  UNL1       -0.2018
     18 C          -8.9961  -19.5469   19.3691 C.ar    1  UNL1        0.1696
     19 F          -8.4254  -19.7412   17.9955 F       1  UNL1       -0.2017
     20 C         -10.4247  -19.1207   19.5343 C.ar    1  UNL1        0.0612
     21 C         -10.9953  -18.9265   20.9078 C.ar    1  UNL1        0.1386
     22 F         -12.4240  -18.5002   21.0731 F       1  UNL1       -0.2044
     23 C          -4.9552  -15.6594   23.7188 C.3     1  UNL1        0.1091
     24 N          -4.6029  -16.9860   23.1138 N.am    1  UNL1       -0.3025
     25 C          -3.4696  -17.0874   22.1363 C.2     1  UNL1        0.2297
     26 O          -2.6886  -15.8620   21.7639 O.2     1  UNL1       -0.2748
     27 H          -5.1155  -17.7902   23.3582 H       1  UNL1        0.1495
     28 C          -3.1174  -18.4140   21.5313 C.3     1  UNL1        0.1557
     29 C          -3.0908  -19.8961   21.3021 C.3     1  UNL1        0.0177
     30 C          -3.9327  -19.3225   22.4031 C.3     1  UNL1        0.0177
     31 C          -2.1798  -17.9663   20.4495 C.3     1  UNL1        0.4048
     32 F          -1.2422  -17.5185   19.3676 F       1  UNL1       -0.1695
     33 F          -1.0145  -18.1879   21.3676 F       1  UNL1       -0.1695
     34 F          -3.3452  -17.7446   19.5313 F       1  UNL1       -0.1695
@<TRIPOS>BOND
     1    10     9    1
     2    10     8    1
     3     8     1    1
     4     1     2    2
     5     1     3   am
     6     3     4    1
     7     4     5    1
     8     5     6    1
     9     6     7    1
    10     7    23    1
    11    23    24    1
    12    24    25   am
    13    25    26    2
    14    25    28    1
    15    28    31    1
    16    31    32    1
    17    31    33    1
    18    31    34    1
    19    28    29    1
    20    29    30    1
    21    10    13    1
    22    13    14    1
    23    14    15   ar
    24    15    16   ar
    25    16    17    1
    26    16    18   ar
    27    18    19    1
    28    18    20   ar
    29    20    21   ar
    30    21    22    1
    31     7     3    1
    32    30    28    1
    33    21    14   ar
    34     9    11    1
    35     9    12    1
    36    24    27    1
@<TRIPOS>MOLECULE
*****
 34 36 0 0 0
SMALL
GASTEIGER

@<TRIPOS>ATOM
      1 C          -6.3052  -18.6117   22.3577 C.2     1  UNL1        0.2270
      2 O          -5.0637  -19.2871   21.8552 O.2     1  UNL1       -0.2748
      3 N          -6.1997  -17.3465   23.1565 N.am    1  UNL1       -0.2794
      4 C          -7.3468  -16.5628   23.7224 C.3     1  UNL1        0.0935
      5 C          -6.7847  -15.3748   24.4453 C.3     1  UNL1        0.0233
      6 C          -5.2902  -15.4243   24.3263 C.3     1  UNL1        0.0233
      7 C          -4.9287  -16.6428   23.5298 C.3     1  UNL1        0.0949
      8 C          -7.6521  -19.2014   22.0614 C.3     1  UNL1        0.1010
      9 N          -7.2337  -18.9444   19.5101 N.3     1  UNL1       -0.3215
     10 C          -8.1631  -19.2335   20.6514 C.3     1  UNL1        0.0644
     11 H          -6.3008  -18.7481   19.8727 H       1  UNL1        0.1188
     12 H          -7.5740  -18.1349   18.9912 H       1  UNL1        0.1188
     13 C          -9.6035  -19.5547   20.3828 C.3     1  UNL1        0.0447
     14 C         -10.6756  -18.9880   21.2658 C.ar    1  UNL1        0.0090
     15 C         -10.7675  -19.4133   22.7012 C.ar    1  UNL1        0.0300
     16 C         -11.8396  -18.8467   23.5841 C.ar    1  UNL1        0.1672
     17 F         -11.9315  -19.2720   25.0197 F       1  UNL1       -0.2018
     18 C         -12.8197  -17.8548   23.0316 C.ar    1  UNL1        0.1696
     19 F         -13.8918  -17.2881   23.9145 F       1  UNL1       -0.2017
     20 C         -12.7278  -17.4295   21.5961 C.ar    1  UNL1        0.0612
     21 C         -11.6558  -17.9961   20.7132 C.ar    1  UNL1        0.1386
     22 F         -11.5638  -17.5708   19.2776 F       1  UNL1       -0.2044
     23 C          -3.5400  -17.0808   23.1698 C.3     1  UNL1        0.1091
     24 N          -3.0552  -16.9507   21.7562 N.am    1  UNL1       -0.3025
     25 C          -2.0635  -17.9346   21.2098 C.2     1  UNL1        0.2297
     26 O          -1.5565  -19.0486   22.0771 O.2     1  UNL1       -0.2748
     27 H          -3.3879  -16.2196   21.1871 H       1  UNL1        0.1495
     28 C          -1.5788  -17.8044   19.7963 C.3     1  UNL1        0.1557
     29 C          -1.5969  -17.7797   18.2966 C.3     1  UNL1        0.0177
     30 C          -2.8583  -18.0630   19.0574 C.3     1  UNL1        0.0177
     31 C          -0.1310  -17.5006   20.0443 C.3     1  UNL1        0.4048
     32 F           1.3168  -17.1968   20.2923 F       1  UNL1       -0.1695
     33 F          -0.4942  -16.1041   20.4540 F       1  UNL1       -0.1695
     34 F           0.2322  -18.8972   19.6345 F       1  UNL1       -0.1695
@<TRIPOS>BOND
     1    10     9    1
     2    10     8    1
     3     8     1    1
     4     1     2    2
     5     1     3   am
     6     3     4    1
     7     4     5    1
     8     5     6    1
     9     6     7    1
    10     7    23    1
    11    23    24    1
    12    24    25   am
    13    25    26    2
    14    25    28    1
    15    28    31    1
    16    31    32    1
    17    31    33    1
    18    31    34    1
    19    28    29    1
    20    29    30    1
    21    10    13    1
    22    13    14    1
    23    14    15   ar
    24    15    16   ar
    25    16    17    1
    26    16    18   ar
    27    18    19    1
    28    18    20   ar
    29    20    21   ar
    30    21    22    1
    31     7     3    1
    32    30    28    1
    33    21    14   ar
    34     9    11    1
    35     9    12    1
    36    24    27    1
@<TRIPOS>MOLECULE
*****
 34 36 0 0 0
SMALL
GASTEIGER

@<TRIPOS>ATOM
      1 C          -6.2383  -15.3987   23.7363 C.2     1  UNL1        0.2270
      2 O          -7.1601  -15.5015   22.5574 O.2     1  UNL1       -0.2748
      3 N          -6.7877  -15.4957   25.1286 N.am    1  UNL1       -0.2794
      4 C          -5.9929  -15.4113   26.3979 C.3     1  UNL1        0.0935
      5 C          -6.9423  -15.5576   27.5500 C.3     1  UNL1        0.0233
      6 C          -8.3239  -15.7323   26.9926 C.3     1  UNL1        0.0233
      7 C          -8.2283  -15.6941   25.4961 C.3     1  UNL1        0.0949
      8 C          -4.7671  -15.1988   23.5228 C.3     1  UNL1        0.1010
      9 N          -2.8833  -15.9682   21.9073 N.3     1  UNL1       -0.3215
     10 C          -3.9410  -16.2959   22.9192 C.3     1  UNL1        0.0644
     11 H          -2.8637  -14.9605   21.7501 H       1  UNL1        0.1188
     12 H          -3.0925  -16.4450   21.0302 H       1  UNL1        0.1188
     13 C          -4.1725  -17.7205   23.3276 C.3     1  UNL1        0.0447
     14 C          -4.7331  -18.7018   22.3413 C.ar    1  UNL1        0.0090
     15 C          -3.8214  -19.3962   21.3735 C.ar    1  UNL1        0.0300
     16 C          -4.3820  -20.3775   20.3872 C.ar    1  UNL1        0.1672
     17 F          -3.4704  -21.0720   19.4193 F       1  UNL1       -0.2018
     18 C          -5.8542  -20.6645   20.3688 C.ar    1  UNL1        0.1696
     19 F          -6.4147  -21.6459   19.3825 F       1  UNL1       -0.2017
     20 C          -6.7658  -19.9701   21.3367 C.ar    1  UNL1        0.0612
     21 C          -6.2052  -18.9888   22.3229 C.ar    1  UNL1        0.1386
     22 F          -7.1169  -18.2943   23.2908 F       1  UNL1       -0.2044
     23 C          -9.3726  -15.8303   24.5358 C.3     1  UNL1        0.1091
     24 N          -9.6006  -17.1287   23.8201 N.am    1  UNL1       -0.3025
     25 C         -10.6596  -17.2261   22.7623 C.2     1  UNL1        0.2297
     26 O         -11.4906  -16.0250   22.4201 O.2     1  UNL1       -0.2748
     27 H          -9.0552  -17.9169   24.0446 H       1  UNL1        0.1495
     28 C         -10.8876  -18.5245   22.0466 C.3     1  UNL1        0.1557
     29 C         -11.1106  -19.4957   20.9254 C.3     1  UNL1        0.0177
     30 C         -10.9524  -18.0335   20.6307 C.3     1  UNL1        0.0177
     31 C         -10.9020  -19.4663   23.2139 C.3     1  UNL1        0.4048
     32 F         -10.9164  -20.4082   24.3812 F       1  UNL1       -0.1695
     33 F         -12.1684  -18.8331   23.7092 F       1  UNL1       -0.1695
     34 F          -9.6356  -20.0996   22.7185 F       1  UNL1       -0.1695
@<TRIPOS>BOND
     1    10     9    1
     2    10     8    1
     3     8     1    1
     4     1     2    2
     5     1     3   am
     6     3     4    1
     7     4     5    1
     8     5     6    1
     9     6     7    1
    10     7    23    1
    11    23    24    1
    12    24    25   am
    13    25    26    2
    14    25    28    1
    15    28    31    1
    16    31    32    1
    17    31    33    1
    18    31    34    1
    19    28    29    1
    20    29    30    1
    21    10    13    1
    22    13    14    1
    23    14    15   ar
    24    15    16   ar
    25    16    17    1
    26    16    18   ar
    27    18    19    1
    28    18    20   ar
    29    20    21   ar
    30    21    22    1
    31     7     3    1
    32    30    28    1
    33    21    14   ar
    34     9    11    1
    35     9    12    1
    36    24    27    1
@<TRIPOS>MOLECULE
*****
 34 36 0 0 0
SMALL
GASTEIGER

@<TRIPOS>ATOM
      1 C          -7.9124  -18.1615   21.4100 C.2     1  UNL1        0.2270
      2 O          -7.1817  -17.0931   22.1680 O.2     1  UNL1       -0.2748
      3 N          -9.4011  -18.2898   21.5417 N.am    1  UNL1       -0.2794
      4 C         -10.2633  -19.3033   20.8494 C.3     1  UNL1        0.0935
      5 C         -11.6840  -19.0670   21.2686 C.3     1  UNL1        0.0233
      6 C         -11.6998  -17.9073   22.2200 C.3     1  UNL1        0.0233
      7 C         -10.2888  -17.4270   22.3887 C.3     1  UNL1        0.0949
      8 C          -7.1544  -19.1016   20.5203 C.3     1  UNL1        0.1010
      9 N          -6.6497  -20.8397   22.3842 N.3     1  UNL1       -0.3215
     10 C          -6.2505  -20.1374   21.1204 C.3     1  UNL1        0.0644
     11 H          -7.5571  -20.4921   22.6943 H       1  UNL1        0.1188
     12 H          -5.9524  -20.6616   23.1070 H       1  UNL1        0.1188
     13 C          -4.9473  -20.4708   20.4566 C.3     1  UNL1        0.0447
     14 C          -3.8408  -19.4584   20.4256 C.ar    1  UNL1        0.0090
     15 C          -3.2336  -19.0509   19.1160 C.ar    1  UNL1        0.0300
     16 C          -2.1272  -18.0386   19.0850 C.ar    1  UNL1        0.1672
     17 F          -1.5199  -17.6311   17.7753 F       1  UNL1       -0.2018
     18 C          -1.6279  -17.4338   20.3636 C.ar    1  UNL1        0.1696
     19 F          -0.5214  -16.4215   20.3326 F       1  UNL1       -0.2017
     20 C          -2.2351  -17.8414   21.6733 C.ar    1  UNL1        0.0612
     21 C          -3.3415  -18.8536   21.7043 C.ar    1  UNL1        0.1386
     22 F          -3.9488  -19.2612   23.0140 F       1  UNL1       -0.2044
     23 C          -9.8439  -16.2845   23.2528 C.3     1  UNL1        0.1091
     24 N          -9.1580  -16.5549   24.5592 N.am    1  UNL1       -0.3025
     25 C          -8.1066  -15.6114   25.0637 C.2     1  UNL1        0.2297
     26 O          -7.7411  -14.3976   24.2617 O.2     1  UNL1       -0.2748
     27 H          -9.3979  -17.3515   25.0854 H       1  UNL1        0.1495
     28 C          -7.4207  -15.8819   26.3700 C.3     1  UNL1        0.1557
     29 C          -7.2057  -16.3507   27.7785 C.3     1  UNL1        0.0177
     30 C          -8.5380  -16.5471   27.1178 C.3     1  UNL1        0.0177
     31 C          -6.0654  -15.3105   26.0758 C.3     1  UNL1        0.4048
     32 F          -4.7101  -14.7392   25.7817 F       1  UNL1       -0.1695
     33 F          -6.2120  -14.3671   27.2327 F       1  UNL1       -0.1695
     34 F          -5.9188  -16.2540   24.9189 F       1  UNL1       -0.1695
@<TRIPOS>BOND
     1    10     9    1
     2    10     8    1
     3     8     1    1
     4     1     2    2
     5     1     3   am
     6     3     4    1
     7     4     5    1
     8     5     6    1
     9     6     7    1
    10     7    23    1
    11    23    24    1
    12    24    25   am
    13    25    26    2
    14    25    28    1
    15    28    31    1
    16    31    32    1
    17    31    33    1
    18    31    34    1
    19    28    29    1
    20    29    30    1
    21    10    13    1
    22    13    14    1
    23    14    15   ar
    24    15    16   ar
    25    16    17    1
    26    16    18   ar
    27    18    19    1
    28    18    20   ar
    29    20    21   ar
    30    21    22    1
    31     7     3    1
    32    30    28    1
    33    21    14   ar
    34     9    11    1
    35     9    12    1
    36    24    27    1
@<TRIPOS>MOLECULE
*****
 34 36 0 0 0
SMALL
GASTEIGER

@<TRIPOS>ATOM
      1 C          -6.4685  -18.7197   22.0068 C.2     1  UNL1        0.2270
      2 O          -7.2898  -17.5859   22.5452 O.2     1  UNL1       -0.2748
      3 N          -4.9774  -18.7092   22.1697 N.am    1  UNL1       -0.2794
      4 C          -4.0302  -19.7671   21.6864 C.3     1  UNL1        0.0935
      5 C          -2.6391  -19.3507   22.0625 C.3     1  UNL1        0.0233
      6 C          -2.7266  -18.0354   22.7783 C.3     1  UNL1        0.0233
      7 C          -4.1718  -17.6390   22.8445 C.3     1  UNL1        0.0949
      8 C          -7.1383  -19.8640   21.3055 C.3     1  UNL1        0.1010
      9 N          -7.4611  -18.9637   18.8898 N.3     1  UNL1       -0.3215
     10 C          -8.0248  -19.6040   20.1237 C.3     1  UNL1        0.0644
     11 H          -6.4685  -18.7741   19.0283 H       1  UNL1        0.1188
     12 H          -7.9521  -18.0887   18.7063 H       1  UNL1        0.1188
     13 C          -9.4748  -19.9842   20.1758 C.3     1  UNL1        0.0447
     14 C         -10.4400  -19.1535   20.9685 C.ar    1  UNL1        0.0090
     15 C         -11.1842  -18.0320   20.3064 C.ar    1  UNL1        0.0300
     16 C         -12.1493  -17.2013   21.0992 C.ar    1  UNL1        0.1672
     17 F         -12.8935  -16.0798   20.4371 F       1  UNL1       -0.2018
     18 C         -12.3703  -17.4922   22.5540 C.ar    1  UNL1        0.1696
     19 F         -13.3355  -16.6615   23.3468 F       1  UNL1       -0.2017
     20 C         -11.6262  -18.6137   23.2161 C.ar    1  UNL1        0.0612
     21 C         -10.6610  -19.4444   22.4234 C.ar    1  UNL1        0.1386
     22 F          -9.9168  -20.5660   23.0854 F       1  UNL1       -0.2044
     23 C          -4.7157  -16.3913   23.4749 C.3     1  UNL1        0.1091
     24 N          -5.9634  -16.4530   24.3053 N.am    1  UNL1       -0.3025
     25 C          -6.1786  -15.4620   25.4106 C.2     1  UNL1        0.2297
     26 O          -5.1460  -14.4091   25.6854 O.2     1  UNL1       -0.2748
     27 H          -6.6410  -17.1440   24.1249 H       1  UNL1        0.1495
     28 C          -7.4263  -15.5237   26.2409 C.3     1  UNL1        0.1557
     29 C          -8.3185  -15.5214   27.4467 C.3     1  UNL1        0.0177
     30 C          -6.8361  -15.3607   27.6103 C.3     1  UNL1        0.0177
     31 C          -8.4497  -15.7082   25.1600 C.3     1  UNL1        0.4048
     32 F          -9.4731  -15.8927   24.0790 F       1  UNL1       -0.1695
     33 F          -8.8532  -17.0197   25.7659 F       1  UNL1       -0.1695
     34 F          -8.0461  -14.3967   24.5541 F       1  UNL1       -0.1695
@<TRIPOS>BOND
     1    10     9    1
     2    10     8    1
     3     8     1    1
     4     1     2    2
     5     1     3   am
     6     3     4    1
     7     4     5    1
     8     5     6    1
     9     6     7    1
    10     7    23    1
    11    23    24    1
    12    24    25   am
    13    25    26    2
    14    25    28    1
    15    28    31    1
    16    31    32    1
    17    31    33    1
    18    31    34    1
    19    28    29    1
    20    29    30    1
    21    10    13    1
    22    13    14    1
    23    14    15   ar
    24    15    16   ar
    25    16    17    1
    26    16    18   ar
    27    18    19    1
    28    18    20   ar
    29    20    21   ar
    30    21    22    1
    31     7     3    1
    32    30    28    1
    33    21    14   ar
    34     9    11    1
    35     9    12    1
    36    24    27    1
@<TRIPOS>MOLECULE
*****
 34 36 0 0 0
SMALL
GASTEIGER

@<TRIPOS>ATOM
      1 C          -8.6783  -19.8068   22.7561 C.2     1  UNL1        0.2270
      2 O          -7.2205  -20.1563   22.8064 O.2     1  UNL1       -0.2748
      3 N          -9.3321  -19.5040   21.4405 N.am    1  UNL1       -0.2794
      4 C         -10.7729  -19.1409   21.2348 C.3     1  UNL1        0.0935
      5 C         -10.9912  -18.9237   19.7668 C.3     1  UNL1        0.0233
      6 C          -9.6852  -19.1526   19.0652 C.3     1  UNL1        0.0233
      7 C          -8.6599  -19.5112   20.0996 C.3     1  UNL1        0.0949
      8 C          -9.4824  -19.7600   24.0215 C.3     1  UNL1        0.1010
      9 N         -11.6944  -18.8078   24.9965 N.3     1  UNL1       -0.3215
     10 C         -10.3871  -18.5946   24.2926 C.3     1  UNL1        0.0644
     11 H         -11.8049  -19.7978   25.2159 H       1  UNL1        0.1188
     12 H         -12.4590  -18.5061   24.3925 H       1  UNL1        0.1188
     13 C          -9.9845  -17.2160   23.8598 C.3     1  UNL1        0.0447
     14 C          -8.7124  -16.6099   24.3742 C.ar    1  UNL1        0.0090
     15 C          -8.5854  -16.2518   25.8253 C.ar    1  UNL1        0.0300
     16 C          -7.3134  -15.6458   26.3396 C.ar    1  UNL1        0.1672
     17 F          -7.1863  -15.2876   27.7907 F       1  UNL1       -0.2018
     18 C          -6.1683  -15.3979   25.4029 C.ar    1  UNL1        0.1696
     19 F          -4.8962  -14.7918   25.9173 F       1  UNL1       -0.2017
     20 C          -6.2953  -15.7560   23.9519 C.ar    1  UNL1        0.0612
     21 C          -7.5674  -16.3620   23.4375 C.ar    1  UNL1        0.1386
     22 F          -7.6944  -16.7201   21.9864 F       1  UNL1       -0.2044
     23 C          -7.2159  -19.8224   19.8389 C.3     1  UNL1        0.1091
     24 N          -6.1425  -18.9873   20.4717 N.am    1  UNL1       -0.3025
     25 C          -4.7317  -19.4940   20.5255 C.2     1  UNL1        0.2297
     26 O          -4.3944  -20.8361   19.9464 O.2     1  UNL1       -0.2748
     27 H          -6.3639  -18.1065   20.8517 H       1  UNL1        0.1495
     28 C          -3.6584  -18.6589   21.1582 C.3     1  UNL1        0.1557
     29 C          -2.9349  -17.8289   22.1770 C.3     1  UNL1        0.0177
     30 C          -4.2931  -18.3839   22.4892 C.3     1  UNL1        0.0177
     31 C          -2.6510  -18.6438   20.0470 C.3     1  UNL1        0.4048
     32 F          -1.6435  -18.6287   18.9358 F       1  UNL1       -0.1695
     33 F          -3.6005  -17.8527   19.1969 F       1  UNL1       -0.1695
     34 F          -1.7015  -19.4349   20.8971 F       1  UNL1       -0.1695
@<TRIPOS>BOND
     1    10     9    1
     2    10     8    1
     3     8     1    1
     4     1     2    2
     5     1     3   am
     6     3     4    1
     7     4     5    1
     8     5     6    1
     9     6     7    1
    10     7    23    1
    11    23    24    1
    12    24    25   am
    13    25    26    2
    14    25    28    1
    15    28    31    1
    16    31    32    1
    17    31    33    1
    18    31    34    1
    19    28    29    1
    20    29    30    1
    21    10    13    1
    22    13    14    1
    23    14    15   ar
    24    15    16   ar
    25    16    17    1
    26    16    18   ar
    27    18    19    1
    28    18    20   ar
    29    20    21   ar
    30    21    22    1
    31     7     3    1
    32    30    28    1
    33    21    14   ar
    34     9    11    1
    35     9    12    1
    36    24    27    1
@<TRIPOS>MOLECULE
*****
 34 36 0 0 0
SMALL
GASTEIGER

@<TRIPOS>ATOM
      1 C          -7.7208  -18.2237   21.6423 C.2     1  UNL1        0.2270
      2 O          -6.3609  -18.0895   22.2608 O.2     1  UNL1       -0.2748
      3 N          -7.9378  -19.1816   20.5086 N.am    1  UNL1       -0.2794
      4 C          -9.2344  -19.4226   19.7939 C.3     1  UNL1        0.0935
      5 C          -8.9943  -20.4565   18.7340 C.3     1  UNL1        0.0233
      6 C          -7.5492  -20.8545   18.7937 C.3     1  UNL1        0.0233
      7 C          -6.8963  -20.0665   19.8904 C.3     1  UNL1        0.0949
      8 C          -8.8637  -17.4002   22.1576 C.3     1  UNL1        0.1010
      9 N          -9.9144  -15.3507   20.9552 N.3     1  UNL1       -0.3215
     10 C          -8.8996  -15.9229   21.9002 C.3     1  UNL1        0.0644
     11 H         -10.4934  -16.1028   20.5819 H       1  UNL1        0.1188
     12 H          -9.4362  -14.8772   20.1887 H       1  UNL1        0.1188
     13 C          -7.9208  -15.0178   22.5876 C.3     1  UNL1        0.0447
     14 C          -7.5724  -15.2461   24.0287 C.ar    1  UNL1        0.0090
     15 C          -6.1352  -15.3507   24.4454 C.ar    1  UNL1        0.0300
     16 C          -5.7869  -15.5790   25.8864 C.ar    1  UNL1        0.1672
     17 F          -4.3497  -15.6835   26.3031 F       1  UNL1       -0.2018
     18 C          -6.8757  -15.7028   26.9107 C.ar    1  UNL1        0.1696
     19 F          -6.5273  -15.9312   28.3517 F       1  UNL1       -0.2017
     20 C          -8.3129  -15.5983   26.4940 C.ar    1  UNL1        0.0612
     21 C          -8.6612  -15.3700   25.0530 C.ar    1  UNL1        0.1386
     22 F         -10.0984  -15.2655   24.6362 F       1  UNL1       -0.2044
     23 C          -5.4550  -20.1490   20.2974 C.3     1  UNL1        0.1091
     24 N          -4.5797  -18.9341   20.2084 N.am    1  UNL1       -0.3025
     25 C          -3.2139  -18.9465   20.8284 C.2     1  UNL1        0.2297
     26 O          -2.7233  -20.1741   21.5374 O.2     1  UNL1       -0.2748
     27 H          -4.9017  -18.1284   19.7431 H       1  UNL1        0.1495
     28 C          -2.3387  -17.7316   20.7394 C.3     1  UNL1        0.1557
     29 C          -1.6139  -16.4835   21.1481 C.3     1  UNL1        0.0177
     30 C          -2.4679  -17.2143   22.1414 C.3     1  UNL1        0.0177
     31 C          -1.9056  -17.8270   19.3065 C.3     1  UNL1        0.4048
     32 F          -1.4725  -17.9223   17.8735 F       1  UNL1       -0.1695
     33 F          -0.8255  -18.7917   19.6971 F       1  UNL1       -0.1695
     34 F          -2.9858  -16.8622   18.9158 F       1  UNL1       -0.1695
@<TRIPOS>BOND
     1    10     9    1
     2    10     8    1
     3     8     1    1
     4     1     2    2
     5     1     3   am
     6     3     4    1
     7     4     5    1
     8     5     6    1
     9     6     7    1
    10     7    23    1
    11    23    24    1
    12    24    25   am
    13    25    26    2
    14    25    28    1
    15    28    31    1
    16    31    32    1
    17    31    33    1
    18    31    34    1
    19    28    29    1
    20    29    30    1
    21    10    13    1
    22    13    14    1
    23    14    15   ar
    24    15    16   ar
    25    16    17    1
    26    16    18   ar
    27    18    19    1
    28    18    20   ar
    29    20    21   ar
    30    21    22    1
    31     7     3    1
    32    30    28    1
    33    21    14   ar
    34     9    11    1
    35     9    12    1
    36    24    27    1
@<TRIPOS>MOLECULE
*****
 34 36 0 0 0
SMALL
GASTEIGER

@<TRIPOS>ATOM
      1 C          -5.8769  -18.1330   22.3346 C.2     1  UNL1        0.2270
      2 O          -7.2034  -17.4349   22.3904 O.2     1  UNL1       -0.2748
      3 N          -5.6711  -19.2779   21.3876 N.am    1  UNL1       -0.2794
      4 C          -4.4071  -20.0683   21.2213 C.3     1  UNL1        0.0935
      5 C          -4.6480  -21.1123   20.1715 C.3     1  UNL1        0.0233
      6 C          -6.0609  -20.9672   19.6891 C.3     1  UNL1        0.0233
      7 C          -6.6932  -19.8335   20.4407 C.3     1  UNL1        0.0949
      8 C          -4.7562  -17.6862   23.2259 C.3     1  UNL1        0.1010
      9 N          -2.8935  -16.1471   22.2712 N.3     1  UNL1       -0.3215
     10 C          -4.1608  -16.3201   23.0547 C.3     1  UNL1        0.0644
     11 H          -2.5778  -17.0552   21.9304 H       1  UNL1        0.1188
     12 H          -2.1756  -15.7409   22.8712 H       1  UNL1        0.1188
     13 C          -4.8328  -15.1270   23.6670 C.3     1  UNL1        0.0447
     14 C          -5.8517  -15.3147   24.7518 C.ar    1  UNL1        0.0090
     15 C          -7.3044  -15.0735   24.4661 C.ar    1  UNL1        0.0300
     16 C          -8.3232  -15.2612   25.5509 C.ar    1  UNL1        0.1672
     17 F          -9.7760  -15.0200   25.2653 F       1  UNL1       -0.2018
     18 C          -7.8894  -15.6900   26.9213 C.ar    1  UNL1        0.1696
     19 F          -8.9084  -15.8776   28.0060 F       1  UNL1       -0.2017
     20 C          -6.4368  -15.9311   27.2069 C.ar    1  UNL1        0.0612
     21 C          -5.4179  -15.7435   26.1222 C.ar    1  UNL1        0.1386
     22 F          -3.9652  -15.9846   26.4078 F       1  UNL1       -0.2044
     23 C          -8.1005  -19.3417   20.2745 C.3     1  UNL1        0.1091
     24 N          -9.0351  -19.3318   21.4478 N.am    1  UNL1       -0.3025
     25 C         -10.2106  -18.4001   21.4626 C.2     1  UNL1        0.2297
     26 O         -10.4514  -17.4782   20.3041 O.2     1  UNL1       -0.2748
     27 H          -8.8770  -19.9369   22.2081 H       1  UNL1        0.1495
     28 C         -11.1451  -18.3903   22.6359 C.3     1  UNL1        0.1557
     29 C         -11.8753  -18.8571   23.8602 C.3     1  UNL1        0.0177
     30 C         -10.8814  -19.7589   23.1903 C.3     1  UNL1        0.0177
     31 C         -11.7333  -17.0184   22.4890 C.3     1  UNL1        0.4048
     32 F         -12.3216  -15.6464   22.3420 F       1  UNL1       -0.1695
     33 F         -13.0115  -17.6203   21.9850 F       1  UNL1       -0.1695
     34 F         -10.4551  -16.4164   22.9929 F       1  UNL1       -0.1695
@<TRIPOS>BOND
     1    10     9    1
     2    10     8    1
     3     8     1    1
     4     1     2    2
     5     1     3   am
     6     3     4    1
     7     4     5    1
     8     5     6    1
     9     6     7    1
    10     7    23    1
    11    23    24    1
    12    24    25   am
    13    25    26    2
    14    25    28    1
    15    28    31    1
    16    31    32    1
    17    31    33    1
    18    31    34    1
    19    28    29    1
    20    29    30    1
    21    10    13    1
    22    13    14    1
    23    14    15   ar
    24    15    16   ar
    25    16    17    1
    26    16    18   ar
    27    18    19    1
    28    18    20   ar
    29    20    21   ar
    30    21    22    1
    31     7     3    1
    32    30    28    1
    33    21    14   ar
    34     9    11    1
    35     9    12    1
    36    24    27    1
