@<TRIPOS>MOLECULE
*****
 29 33 0 0 0
SMALL
GASTEIGER

@<TRIPOS>ATOM
      1 C          -9.3477  -18.3012   22.5632 C.ar    1  UNL1       -0.0189
      2 C          -8.8741  -19.7009   22.8217 C.ar    1  UNL1       -0.0039
      3 C          -7.4893  -20.1109   22.4168 C.ar    1  UNL1        0.0009
      4 C          -6.5779  -19.1214   21.7532 C.ar    1  UNL1        0.0161
      5 C          -7.0514  -17.7218   21.4947 C.ar    1  UNL1        0.0009
      6 C          -8.4363  -17.3117   21.8996 C.ar    1  UNL1       -0.0039
      7 C          -5.1930  -19.5315   21.3483 C.2     1  UNL1        0.0973
      8 N          -4.9994  -20.5580   20.2719 N.2     1  UNL1       -0.2014
      9 C          -3.6147  -20.9681   19.8669 C.2     1  UNL1        0.3387
     10 N          -2.4233  -20.3518   20.5384 N.2     1  UNL1       -0.0102
     11 C          -2.6169  -19.3252   21.6149 C.2     1  UNL1        0.3832
     12 N          -1.6411  -18.5499   22.4495 N.2     1  UNL1       -0.0105
     13 C          -2.4229  -17.6606   23.3703 C.2     1  UNL1        0.3352
     14 N          -3.8819  -17.8863   23.1048 N.2     1  UNL1       -0.2087
     15 C          -4.0018  -18.9151   22.0198 C.3     1  UNL1        0.2577
     16 C         -10.7324  -17.8911   22.9681 C.3     1  UNL1        0.0404
     17 C         -11.0307  -18.5566   21.6573 C.3     1  UNL1        0.0252
     18 C         -12.4432  -18.6304   21.1579 C.3     1  UNL1        0.0692
     19 N         -13.5575  -18.0386   21.9692 N.3     1  UNL1       -0.2974
     20 C         -13.2592  -17.3731   23.2800 C.3     1  UNL1        0.0692
     21 C         -11.8468  -17.2993   23.7794 C.3     1  UNL1        0.0252
     22 H         -14.2128  -18.7952   22.1655 H       1  UNL1        0.1232
     23 CL         -7.6157  -15.7987   27.6486 Cl      1  UNL1       -0.0822
     24 C          -8.3948  -16.3218   26.4785 C.ar    1  UNL1        0.0577
     25 C          -8.5787  -15.4690   25.2582 C.ar    1  UNL1        0.0111
     26 C          -9.3579  -15.9921   24.0881 C.ar    1  UNL1       -0.0031
     27 C          -9.9533  -17.3680   24.1382 C.ar    1  UNL1       -0.0189
     28 C          -9.7694  -18.2207   25.3585 C.ar    1  UNL1       -0.0031
     29 C          -8.9903  -17.6976   26.5286 C.ar    1  UNL1        0.0111
@<TRIPOS>BOND
     1    23    24    1
     2    24    25   ar
     3    25    26   ar
     4    26    27   ar
     5    27    16    1
     6    16     1    1
     7     1     2   ar
     8     2     3   ar
     9     3     4   ar
    10     4     7    1
    11     7     8    2
    12     8     9    1
    13     9    10    2
    14    10    11    1
    15    11    12    2
    16    12    13    1
    17    13    14    2
    18    14    15    1
    19     4     5   ar
    20     5     6   ar
    21    16    17    1
    22    17    18    1
    23    18    19    1
    24    19    20    1
    25    20    21    1
    26    27    28   ar
    27    28    29   ar
    28    29    24   ar
    29    21    16    1
    30     6     1   ar
    31    15     7    1
    32    15    11    1
    33    19    22    1
@<TRIPOS>MOLECULE
*****
 29 33 0 0 0
SMALL
GASTEIGER

@<TRIPOS>ATOM
      1 C         -13.4640   -4.3107   17.8566 C.ar    1  UNL1       -0.0189
      2 C         -14.3890   -4.8873   16.8261 C.ar    1  UNL1       -0.0039
      3 C         -15.4317   -5.8871   17.2298 C.ar    1  UNL1        0.0009
      4 C         -15.5494   -6.3104   18.6641 C.ar    1  UNL1        0.0161
      5 C         -14.6244   -5.7338   19.6946 C.ar    1  UNL1        0.0009
      6 C         -13.5817   -4.7339   19.2907 C.ar    1  UNL1       -0.0039
      7 C         -16.5922   -7.3103   19.0678 C.2     1  UNL1        0.0973
      8 N         -17.8642   -6.8478   19.7143 N.2     1  UNL1       -0.2014
      9 C         -18.9069   -7.8476   20.1180 C.2     1  UNL1        0.3387
     10 N         -18.6777   -9.3100   19.8752 N.2     1  UNL1       -0.0102
     11 C         -17.4056   -9.7725   19.2286 C.2     1  UNL1        0.3832
     12 N         -16.9036  -11.1384   18.8650 N.2     1  UNL1       -0.0105
     13 C         -15.5505  -10.9827   18.2366 C.2     1  UNL1        0.3352
     14 N         -15.2163   -9.5206   18.2118 N.2     1  UNL1       -0.2087
     15 C         -16.3629   -8.7726   18.8249 C.3     1  UNL1        0.2577
     16 C         -12.4213   -3.3108   17.4528 C.3     1  UNL1        0.0404
     17 C         -13.6625   -2.5021   17.2176 C.3     1  UNL1        0.0252
     18 C         -13.5557   -1.0950   16.7090 C.3     1  UNL1        0.0692
     19 N         -12.2077   -0.4966   16.4357 N.3     1  UNL1       -0.2974
     20 C         -10.9665   -1.3053   16.6709 C.3     1  UNL1        0.0692
     21 C         -11.0732   -2.7124   17.1795 C.3     1  UNL1        0.0252
     22 H         -12.1314    0.3364   17.0194 H       1  UNL1        0.1232
     23 CL         -8.9049   -7.9347   18.9546 Cl      1  UNL1       -0.0822
     24 C          -9.7840   -6.7788   18.5791 C.ar    1  UNL1        0.0577
     25 C         -10.7972   -6.9318   17.4836 C.ar    1  UNL1        0.0111
     26 C         -11.6762   -5.7758   17.1082 C.ar    1  UNL1       -0.0031
     27 C         -11.5422   -4.4668   17.8283 C.ar    1  UNL1       -0.0189
     28 C         -10.5291   -4.3138   18.9238 C.ar    1  UNL1       -0.0031
     29 C          -9.6500   -5.4697   19.2992 C.ar    1  UNL1        0.0111
@<TRIPOS>BOND
     1    23    24    1
     2    24    25   ar
     3    25    26   ar
     4    26    27   ar
     5    27    16    1
     6    16     1    1
     7     1     2   ar
     8     2     3   ar
     9     3     4   ar
    10     4     7    1
    11     7     8    2
    12     8     9    1
    13     9    10    2
    14    10    11    1
    15    11    12    2
    16    12    13    1
    17    13    14    2
    18    14    15    1
    19     4     5   ar
    20     5     6   ar
    21    16    17    1
    22    17    18    1
    23    18    19    1
    24    19    20    1
    25    20    21    1
    26    27    28   ar
    27    28    29   ar
    28    29    24   ar
    29    21    16    1
    30     6     1   ar
    31    15     7    1
    32    15    11    1
    33    19    22    1
@<TRIPOS>MOLECULE
*****
 29 33 0 0 0
SMALL
GASTEIGER

@<TRIPOS>ATOM
      1 C         -16.1121   -7.7488   18.4128 C.ar    1  UNL1       -0.0189
      2 C         -15.8306   -6.8697   19.5953 C.ar    1  UNL1       -0.0039
      3 C         -14.5151   -6.1575   19.7041 C.ar    1  UNL1        0.0009
      4 C         -13.4808   -6.3242   18.6305 C.ar    1  UNL1        0.0161
      5 C         -13.7622   -7.2032   17.4480 C.ar    1  UNL1        0.0009
      6 C         -15.0779   -7.9155   17.3393 C.ar    1  UNL1       -0.0039
      7 C         -12.1652   -5.6119   18.7393 C.2     1  UNL1        0.0973
      8 N         -10.9015   -6.3963   18.9337 N.2     1  UNL1       -0.2014
      9 C          -9.5860   -5.6841   19.0426 C.2     1  UNL1        0.3387
     10 N          -9.5340   -4.1873   18.9570 N.2     1  UNL1       -0.0102
     11 C         -10.7977   -3.4030   18.7626 C.2     1  UNL1        0.3832
     12 N         -11.0565   -1.9304   18.6425 N.2     1  UNL1       -0.0105
     13 C         -12.5321   -1.7326   18.4594 C.2     1  UNL1        0.3352
     14 N         -13.1853   -3.0829   18.4664 N.2     1  UNL1       -0.2087
     15 C         -12.1133   -4.1153   18.6537 C.3     1  UNL1        0.2577
     16 C         -17.4276   -8.4610   18.3040 C.3     1  UNL1        0.0404
     17 C         -16.5095   -9.6347   18.4763 C.3     1  UNL1        0.0252
     18 C         -17.0672  -11.0271   18.4931 C.3     1  UNL1        0.0692
     19 N         -18.5430  -11.2458   18.3375 N.3     1  UNL1       -0.2974
     20 C         -19.4611  -10.0722   18.1652 C.3     1  UNL1        0.0692
     21 C         -18.9035   -8.6799   18.1485 C.3     1  UNL1        0.0252
     22 H         -18.8561  -11.7448   19.1702 H       1  UNL1        0.1232
     23 CL        -19.2725   -2.7771   17.7659 Cl      1  UNL1       -0.0822
     24 C         -18.8113   -4.1981   17.9004 C.ar    1  UNL1        0.0577
     25 C         -18.1374   -4.8803   16.7470 C.ar    1  UNL1        0.0111
     26 C         -17.6762   -6.3013   16.8815 C.ar    1  UNL1       -0.0031
     27 C         -17.8888   -7.0401   18.1695 C.ar    1  UNL1       -0.0189
     28 C         -18.5627   -6.3579   19.3230 C.ar    1  UNL1       -0.0031
     29 C         -19.0239   -4.9369   19.1885 C.ar    1  UNL1        0.0111
@<TRIPOS>BOND
     1    23    24    1
     2    24    25   ar
     3    25    26   ar
     4    26    27   ar
     5    27    16    1
     6    16     1    1
     7     1     2   ar
     8     2     3   ar
     9     3     4   ar
    10     4     7    1
    11     7     8    2
    12     8     9    1
    13     9    10    2
    14    10    11    1
    15    11    12    2
    16    12    13    1
    17    13    14    2
    18    14    15    1
    19     4     5   ar
    20     5     6   ar
    21    16    17    1
    22    17    18    1
    23    18    19    1
    24    19    20    1
    25    20    21    1
    26    27    28   ar
    27    28    29   ar
    28    29    24   ar
    29    21    16    1
    30     6     1   ar
    31    15     7    1
    32    15    11    1
    33    19    22    1
@<TRIPOS>MOLECULE
*****
 29 33 0 0 0
SMALL
GASTEIGER

@<TRIPOS>ATOM
      1 C         -14.7515   -5.0692   18.9221 C.ar    1  UNL1       -0.0189
      2 C         -15.6090   -4.3236   17.9428 C.ar    1  UNL1       -0.0039
      3 C         -15.8700   -2.8594   18.1372 C.ar    1  UNL1        0.0009
      4 C         -15.2734   -2.1406   19.3110 C.ar    1  UNL1        0.0161
      5 C         -14.4159   -2.8861   20.2902 C.ar    1  UNL1        0.0009
      6 C         -14.1550   -4.3504   20.0957 C.ar    1  UNL1       -0.0039
      7 C         -15.5344   -0.6763   19.5054 C.2     1  UNL1        0.0973
      8 N         -16.6130   -0.2250   20.4450 N.2     1  UNL1       -0.2014
      9 C         -16.8740    1.2392   20.6395 C.2     1  UNL1        0.3387
     10 N         -16.0564    2.2522   19.8942 N.2     1  UNL1       -0.0102
     11 C         -14.9778    1.8009   18.9545 C.2     1  UNL1        0.3832
     12 N         -14.0173    2.5619   18.0894 N.2     1  UNL1       -0.0105
     13 C         -13.1627    1.5679   17.3603 C.2     1  UNL1        0.3352
     14 N         -13.5950    0.1926   17.7748 N.2     1  UNL1       -0.2087
     15 C         -14.7168    0.3367   18.7601 C.3     1  UNL1        0.2577
     16 C         -14.4905   -6.5334   18.7277 C.3     1  UNL1        0.0404
     17 C         -15.8877   -6.5877   19.2708 C.3     1  UNL1        0.0252
     18 C         -16.5701   -7.9108   19.4543 C.3     1  UNL1        0.0692
     19 N         -15.8554   -9.1796   19.0947 N.3     1  UNL1       -0.2974
     20 C         -14.4582   -9.1253   18.5516 C.3     1  UNL1        0.0692
     21 C         -13.7758   -7.8023   18.3681 C.3     1  UNL1        0.0252
     22 H         -16.4262   -9.6502   18.3925 H       1  UNL1        0.1232
     23 CL         -9.2644   -4.2820   16.8252 Cl      1  UNL1       -0.0822
     24 C         -10.5709   -4.8448   17.3008 C.ar    1  UNL1        0.0577
     25 C         -11.7707   -4.8193   16.4008 C.ar    1  UNL1        0.0111
     26 C         -13.0772   -5.3821   16.8764 C.ar    1  UNL1       -0.0031
     27 C         -13.1840   -5.9705   18.2521 C.ar    1  UNL1       -0.0189
     28 C         -11.9843   -5.9961   19.1521 C.ar    1  UNL1       -0.0031
     29 C         -10.6778   -5.4333   18.6765 C.ar    1  UNL1        0.0111
@<TRIPOS>BOND
     1    23    24    1
     2    24    25   ar
     3    25    26   ar
     4    26    27   ar
     5    27    16    1
     6    16     1    1
     7     1     2   ar
     8     2     3   ar
     9     3     4   ar
    10     4     7    1
    11     7     8    2
    12     8     9    1
    13     9    10    2
    14    10    11    1
    15    11    12    2
    16    12    13    1
    17    13    14    2
    18    14    15    1
    19     4     5   ar
    20     5     6   ar
    21    16    17    1
    22    17    18    1
    23    18    19    1
    24    19    20    1
    25    20    21    1
    26    27    28   ar
    27    28    29   ar
    28    29    24   ar
    29    21    16    1
    30     6     1   ar
    31    15     7    1
    32    15    11    1
    33    19    22    1
@<TRIPOS>MOLECULE
*****
 29 33 0 0 0
SMALL
GASTEIGER

@<TRIPOS>ATOM
      1 C          -8.8801  -18.0225   22.3667 C.ar    1  UNL1       -0.0189
      2 C          -7.8386  -16.9430   22.3650 C.ar    1  UNL1       -0.0039
      3 C          -6.3955  -17.2934   22.1537 C.ar    1  UNL1        0.0009
      4 C          -5.9938  -18.7234   21.9441 C.ar    1  UNL1        0.0161
      5 C          -7.0352  -19.8029   21.9458 C.ar    1  UNL1        0.0009
      6 C          -8.4783  -19.4525   22.1572 C.ar    1  UNL1       -0.0039
      7 C          -4.5507  -19.0737   21.7328 C.2     1  UNL1        0.0973
      8 N          -3.7939  -19.8102   22.7981 N.2     1  UNL1       -0.2014
      9 C          -2.3509  -20.1605   22.5869 C.2     1  UNL1        0.3387
     10 N          -1.6644  -19.7745   21.3102 N.2     1  UNL1       -0.0102
     11 C          -2.4212  -19.0380   20.2448 C.2     1  UNL1        0.3832
     12 N          -2.0138  -18.5300   18.8936 N.2     1  UNL1       -0.0105
     13 C          -3.2052  -17.8656   18.2697 C.2     1  UNL1        0.3352
     14 N          -4.3489  -17.9631   19.2354 N.2     1  UNL1       -0.2087
     15 C          -3.8643  -18.6877   20.4561 C.3     1  UNL1        0.2577
     16 C         -10.3231  -17.6722   22.5780 C.3     1  UNL1        0.0404
     17 C         -10.3925  -18.2354   21.1895 C.3     1  UNL1        0.0252
     18 C         -11.7068  -18.2949   20.4691 C.3     1  UNL1        0.0692
     19 N         -12.9518  -17.7912   21.1371 N.3     1  UNL1       -0.2974
     20 C         -12.8824  -17.2279   22.5256 C.3     1  UNL1        0.0692
     21 C         -11.5681  -17.1684   23.2461 C.3     1  UNL1        0.0252
     22 H         -13.6059  -18.5732   21.1689 H       1  UNL1        0.1232
     23 CL         -8.0410  -15.9059   27.8385 Cl      1  UNL1       -0.0822
     24 C          -8.6115  -16.3475   26.5234 C.ar    1  UNL1        0.0577
     25 C          -9.0810  -17.7610   26.3462 C.ar    1  UNL1        0.0111
     26 C          -9.6516  -18.2026   25.0311 C.ar    1  UNL1       -0.0031
     27 C          -9.7526  -17.2306   23.8931 C.ar    1  UNL1       -0.0189
     28 C          -9.2831  -15.8170   24.0703 C.ar    1  UNL1       -0.0031
     29 C          -8.7125  -15.3754   25.3854 C.ar    1  UNL1        0.0111
@<TRIPOS>BOND
     1    23    24    1
     2    24    25   ar
     3    25    26   ar
     4    26    27   ar
     5    27    16    1
     6    16     1    1
     7     1     2   ar
     8     2     3   ar
     9     3     4   ar
    10     4     7    1
    11     7     8    2
    12     8     9    1
    13     9    10    2
    14    10    11    1
    15    11    12    2
    16    12    13    1
    17    13    14    2
    18    14    15    1
    19     4     5   ar
    20     5     6   ar
    21    16    17    1
    22    17    18    1
    23    18    19    1
    24    19    20    1
    25    20    21    1
    26    27    28   ar
    27    28    29   ar
    28    29    24   ar
    29    21    16    1
    30     6     1   ar
    31    15     7    1
    32    15    11    1
    33    19    22    1
@<TRIPOS>MOLECULE
*****
 29 33 0 0 0
SMALL
GASTEIGER

@<TRIPOS>ATOM
      1 C         -13.1685   -4.5688   18.9097 C.ar    1  UNL1       -0.0189
      2 C         -13.7893   -3.8564   17.7446 C.ar    1  UNL1       -0.0039
      3 C         -14.7200   -2.7039   17.9797 C.ar    1  UNL1        0.0009
      4 C         -15.0301   -2.2637   19.3798 C.ar    1  UNL1        0.0161
      5 C         -14.4094   -2.9761   20.5448 C.ar    1  UNL1        0.0009
      6 C         -13.4786   -4.1287   20.3097 C.ar    1  UNL1       -0.0039
      7 C         -15.9609   -1.1111   19.6148 C.2     1  UNL1        0.0973
      8 N         -15.4741    0.2957   19.4304 N.2     1  UNL1       -0.2014
      9 C         -16.4048    1.4482   19.6654 C.2     1  UNL1        0.3387
     10 N         -17.8224    1.1941   20.0848 N.2     1  UNL1       -0.0102
     11 C         -18.3092   -0.2127   20.2692 C.2     1  UNL1        0.3832
     12 N         -19.6425   -0.7685   20.6733 N.2     1  UNL1       -0.0105
     13 C         -19.5358   -2.2646   20.6881 C.2     1  UNL1        0.3352
     14 N         -18.1365   -2.6334   20.2931 N.2     1  UNL1       -0.2087
     15 C         -17.3784   -1.3653   20.0342 C.3     1  UNL1        0.2577
     16 C         -12.2378   -5.7213   18.6746 C.3     1  UNL1        0.0404
     17 C         -11.2513   -4.6704   19.0898 C.3     1  UNL1        0.0252
     18 C          -9.7889   -4.9980   19.1541 C.3     1  UNL1        0.0692
     19 N          -9.3130   -6.3766   18.8033 N.3     1  UNL1       -0.2974
     20 C         -10.2995   -7.4275   18.3881 C.3     1  UNL1        0.0692
     21 C         -11.7618   -7.0999   18.3238 C.3     1  UNL1        0.0252
     22 H          -8.8259   -6.7376   19.6235 H       1  UNL1        0.1232
     23 CL        -17.4767   -8.3240   17.3404 Cl      1  UNL1       -0.0822
     24 C         -16.1670   -7.6733   17.6740 C.ar    1  UNL1        0.0577
     25 C         -15.8619   -7.2843   19.0902 C.ar    1  UNL1        0.0111
     26 C         -14.5522   -6.6337   19.4238 C.ar    1  UNL1       -0.0031
     27 C         -13.5475   -6.3720   18.3411 C.ar    1  UNL1       -0.0189
     28 C         -13.8526   -6.7610   16.9249 C.ar    1  UNL1       -0.0031
     29 C         -15.1623   -7.4117   16.5913 C.ar    1  UNL1        0.0111
@<TRIPOS>BOND
     1    23    24    1
     2    24    25   ar
     3    25    26   ar
     4    26    27   ar
     5    27    16    1
     6    16     1    1
     7     1     2   ar
     8     2     3   ar
     9     3     4   ar
    10     4     7    1
    11     7     8    2
    12     8     9    1
    13     9    10    2
    14    10    11    1
    15    11    12    2
    16    12    13    1
    17    13    14    2
    18    14    15    1
    19     4     5   ar
    20     5     6   ar
    21    16    17    1
    22    17    18    1
    23    18    19    1
    24    19    20    1
    25    20    21    1
    26    27    28   ar
    27    28    29   ar
    28    29    24   ar
    29    21    16    1
    30     6     1   ar
    31    15     7    1
    32    15    11    1
    33    19    22    1
@<TRIPOS>MOLECULE
*****
 29 33 0 0 0
SMALL
GASTEIGER

@<TRIPOS>ATOM
      1 C         -13.0192   -4.3079   18.9105 C.ar    1  UNL1       -0.0189
      2 C         -13.4655   -3.5293   17.7085 C.ar    1  UNL1       -0.0039
      3 C         -14.2657   -2.2728   17.8835 C.ar    1  UNL1        0.0009
      4 C         -14.6196   -1.7946   19.2606 C.ar    1  UNL1        0.0161
      5 C         -14.1733   -2.5731   20.4626 C.ar    1  UNL1        0.0009
      6 C         -13.3731   -3.8298   20.2875 C.ar    1  UNL1       -0.0039
      7 C         -15.4197   -0.5380   19.4356 C.2     1  UNL1        0.0973
      8 N         -16.6258   -0.5349   20.3274 N.2     1  UNL1       -0.2014
      9 C         -17.4260    0.7216   20.5024 C.2     1  UNL1        0.3387
     10 N         -17.0201    1.9752   19.7856 N.2     1  UNL1       -0.0102
     11 C         -15.8140    1.9722   18.8938 C.2     1  UNL1        0.3832
     12 N         -15.1762    3.0472   18.0646 N.2     1  UNL1       -0.0105
     13 C         -13.9818    2.4549   17.3771 C.2     1  UNL1        0.3352
     14 N         -13.8815    1.0139   17.7814 N.2     1  UNL1       -0.2087
     15 C         -15.0138    0.7156   18.7188 C.3     1  UNL1        0.2577
     16 C         -12.2191   -5.5644   18.7354 C.3     1  UNL1        0.0404
     17 C         -11.1231   -4.6059   19.0958 C.3     1  UNL1        0.0252
     18 C          -9.7040   -5.0852   19.1771 C.3     1  UNL1        0.0692
     19 N          -9.3810   -6.5232   18.8980 N.3     1  UNL1       -0.2974
     20 C         -10.4770   -7.4818   18.5376 C.3     1  UNL1        0.0692
     21 C         -11.8960   -7.0025   18.4563 C.3     1  UNL1        0.0252
     22 H          -8.9311   -6.8919   19.7359 H       1  UNL1        0.1232
     23 CL        -17.7146   -7.6532   17.5369 Cl      1  UNL1       -0.0822
     24 C         -16.3407   -7.1310   17.8366 C.ar    1  UNL1        0.0577
     25 C         -15.3640   -6.9061   16.7206 C.ar    1  UNL1        0.0111
     26 C         -13.9901   -6.3839   17.0202 C.ar    1  UNL1       -0.0031
     27 C         -13.5929   -6.0866   18.4358 C.ar    1  UNL1       -0.0189
     28 C         -14.5697   -6.3116   19.5518 C.ar    1  UNL1       -0.0031
     29 C         -15.9436   -6.8338   19.2522 C.ar    1  UNL1        0.0111
@<TRIPOS>BOND
     1    23    24    1
     2    24    25   ar
     3    25    26   ar
     4    26    27   ar
     5    27    16    1
     6    16     1    1
     7     1     2   ar
     8     2     3   ar
     9     3     4   ar
    10     4     7    1
    11     7     8    2
    12     8     9    1
    13     9    10    2
    14    10    11    1
    15    11    12    2
    16    12    13    1
    17    13    14    2
    18    14    15    1
    19     4     5   ar
    20     5     6   ar
    21    16    17    1
    22    17    18    1
    23    18    19    1
    24    19    20    1
    25    20    21    1
    26    27    28   ar
    27    28    29   ar
    28    29    24   ar
    29    21    16    1
    30     6     1   ar
    31    15     7    1
    32    15    11    1
    33    19    22    1
@<TRIPOS>MOLECULE
*****
 29 33 0 0 0
SMALL
GASTEIGER

@<TRIPOS>ATOM
      1 C          -9.8179  -18.3625   22.6518 C.ar    1  UNL1       -0.0189
      2 C          -8.6579  -17.7354   23.3669 C.ar    1  UNL1       -0.0039
      3 C          -7.2549  -18.0501   22.9401 C.ar    1  UNL1        0.0009
      4 C          -7.0116  -18.9918   21.7980 C.ar    1  UNL1        0.0161
      5 C          -8.1716  -19.6188   21.0829 C.ar    1  UNL1        0.0009
      6 C          -9.5747  -19.3041   21.5098 C.ar    1  UNL1       -0.0039
      7 C          -5.6085  -19.3064   21.3712 C.2     1  UNL1        0.0973
      8 N          -5.3513  -20.4250   20.4055 N.2     1  UNL1       -0.2014
      9 C          -3.9482  -20.7397   19.9787 C.2     1  UNL1        0.3387
     10 N          -2.8022  -19.9357   20.5175 N.2     1  UNL1       -0.0102
     11 C          -3.0594  -18.8171   21.4832 C.2     1  UNL1        0.3832
     12 N          -2.1377  -17.8586   22.1774 N.2     1  UNL1       -0.0105
     13 C          -2.9713  -16.9516   23.0333 C.2     1  UNL1        0.3352
     14 N          -4.4081  -17.3495   22.8680 N.2     1  UNL1       -0.2087
     15 C          -4.4625  -18.5024   21.9100 C.3     1  UNL1        0.2577
     16 C         -11.2210  -18.0478   23.0786 C.3     1  UNL1        0.0404
     17 C         -10.8304  -19.0128   24.1585 C.3     1  UNL1        0.0252
     18 C         -11.8094  -19.3660   25.2388 C.3     1  UNL1        0.0692
     19 N         -13.1790  -18.7541   25.2391 N.3     1  UNL1       -0.2974
     20 C         -13.5695  -17.7891   24.1591 C.3     1  UNL1        0.0692
     21 C         -12.5906  -17.4360   23.0789 C.3     1  UNL1        0.0252
     22 H         -13.2808  -18.2606   26.1259 H       1  UNL1        0.1232
     23 CL        -10.8342  -14.6250   18.1659 Cl      1  UNL1       -0.0822
     24 C         -10.9309  -15.4807   19.3940 C.ar    1  UNL1        0.0577
     25 C         -11.8264  -16.6841   19.4012 C.ar    1  UNL1        0.0111
     26 C         -11.9231  -17.5398   20.6293 C.ar    1  UNL1       -0.0031
     27 C         -11.1243  -17.1921   21.8504 C.ar    1  UNL1       -0.0189
     28 C         -10.2287  -15.9888   21.8433 C.ar    1  UNL1       -0.0031
     29 C         -10.1320  -15.1331   20.6152 C.ar    1  UNL1        0.0111
@<TRIPOS>BOND
     1    23    24    1
     2    24    25   ar
     3    25    26   ar
     4    26    27   ar
     5    27    16    1
     6    16     1    1
     7     1     2   ar
     8     2     3   ar
     9     3     4   ar
    10     4     7    1
    11     7     8    2
    12     8     9    1
    13     9    10    2
    14    10    11    1
    15    11    12    2
    16    12    13    1
    17    13    14    2
    18    14    15    1
    19     4     5   ar
    20     5     6   ar
    21    16    17    1
    22    17    18    1
    23    18    19    1
    24    19    20    1
    25    20    21    1
    26    27    28   ar
    27    28    29   ar
    28    29    24   ar
    29    21    16    1
    30     6     1   ar
    31    15     7    1
    32    15    11    1
    33    19    22    1
@<TRIPOS>MOLECULE
*****
 29 33 0 0 0
SMALL
GASTEIGER

@<TRIPOS>ATOM
      1 C           1.1044    1.0627   22.0142 C.ar    1  UNL1       -0.0189
      2 C           0.5043    0.2745   20.8879 C.ar    1  UNL1       -0.0039
      3 C           1.3409   -0.7203   20.1394 C.ar    1  UNL1        0.0009
      4 C           2.7778   -0.9270   20.5173 C.ar    1  UNL1        0.0161
      5 C           3.3780   -0.1389   21.6436 C.ar    1  UNL1        0.0009
      6 C           2.5412    0.8560   22.3920 C.ar    1  UNL1       -0.0039
      7 C           3.6144   -1.9219   19.7688 C.2     1  UNL1        0.0973
      8 N           3.3210   -3.3882   19.8867 N.2     1  UNL1       -0.2014
      9 C           4.1576   -4.3830   19.1382 C.2     1  UNL1        0.3387
     10 N           5.2877   -3.9117   18.2717 N.2     1  UNL1       -0.0102
     11 C           5.5811   -2.4454   18.1538 C.2     1  UNL1        0.3832
     12 N           6.6213   -1.6889   17.3820 N.2     1  UNL1       -0.0105
     13 C           6.4275   -0.2265   17.6535 C.2     1  UNL1        0.3352
     14 N           5.2676   -0.0791   18.5931 N.2     1  UNL1       -0.2087
     15 C           4.7445   -1.4505   18.9023 C.3     1  UNL1        0.2577
     16 C           0.2678    2.0575   22.7627 C.3     1  UNL1        0.0404
     17 C           0.5415    1.0706   23.8586 C.3     1  UNL1        0.0252
     18 C          -0.0156    1.3012   25.2321 C.3     1  UNL1        0.0692
     19 N          -0.8464    2.5189   25.5097 N.3     1  UNL1       -0.2974
     20 C          -1.1201    3.5059   24.4138 C.3     1  UNL1        0.0692
     21 C          -0.5631    3.2752   23.0403 C.3     1  UNL1        0.0252
     22 H          -0.3777    3.0311   26.2569 H       1  UNL1        0.1232
     23 CL          0.3351    4.6234   17.3394 Cl      1  UNL1       -0.0822
     24 C           0.3182    3.9819   18.6952 C.ar    1  UNL1        0.0577
     25 C          -0.9617    3.4274   19.2468 C.ar    1  UNL1        0.0111
     26 C          -0.9786    2.7860   20.6026 C.ar    1  UNL1       -0.0031
     27 C           0.2846    2.6990   21.4069 C.ar    1  UNL1       -0.0189
     28 C           1.5646    3.2535   20.8553 C.ar    1  UNL1       -0.0031
     29 C           1.5814    3.8949   19.4995 C.ar    1  UNL1        0.0111
@<TRIPOS>BOND
     1    23    24    1
     2    24    25   ar
     3    25    26   ar
     4    26    27   ar
     5    27    16    1
     6    16     1    1
     7     1     2   ar
     8     2     3   ar
     9     3     4   ar
    10     4     7    1
    11     7     8    2
    12     8     9    1
    13     9    10    2
    14    10    11    1
    15    11    12    2
    16    12    13    1
    17    13    14    2
    18    14    15    1
    19     4     5   ar
    20     5     6   ar
    21    16    17    1
    22    17    18    1
    23    18    19    1
    24    19    20    1
    25    20    21    1
    26    27    28   ar
    27    28    29   ar
    28    29    24   ar
    29    21    16    1
    30     6     1   ar
    31    15     7    1
    32    15    11    1
    33    19    22    1
