@<TRIPOS>MOLECULE
*****
 27 29 0 0 0
SMALL
GASTEIGER

@<TRIPOS>ATOM
      1 N          -8.4136  -17.0980   22.7262 N.pl3   1  UNL1       -0.3037
      2 C          -9.8256  -17.4219   23.1152 C.ar    1  UNL1        0.0490
      3 C         -10.0984  -18.5108   24.1100 C.ar    1  UNL1        0.0153
      4 C         -11.5104  -18.8347   24.4991 C.ar    1  UNL1        0.0124
      5 C         -12.6496  -18.0697   23.8934 C.ar    1  UNL1        0.0791
      6 C         -12.3767  -16.9806   22.8985 C.ar    1  UNL1        0.0685
      7 CL        -13.5159  -16.2156   22.2928 Cl      1  UNL1       -0.0815
      8 C         -10.9647  -16.6568   22.5094 C.ar    1  UNL1        0.0266
      9 C         -14.0616  -18.3935   24.2824 C.1     1  UNL1        0.1013
     10 N         -15.4735  -18.7174   24.6715 N.1     1  UNL1       -0.1908
     11 N          -5.7827  -19.3033   20.9148 N.3     1  UNL1       -0.1576
     12 C          -7.0522  -19.7818   20.2747 C.3     1  UNL1        0.0972
     13 C          -8.1922  -19.0139   20.8754 C.3     1  UNL1        0.0403
     14 C          -7.6273  -18.0609   21.8866 C.3     1  UNL1        0.0922
     15 C          -6.1382  -18.2397   21.9110 C.3     1  UNL1        0.1151
     16 C          -3.0184  -20.2987   20.3088 C.3     1  UNL1        0.1960
     17 S          -4.4006  -19.8010   20.6118 S.O2    1  UNL1        0.0457
     18 O          -4.9765  -21.0864   20.0961 O.2     1  UNL1       -0.1572
     19 O          -3.8246  -18.5156   21.1275 O.2     1  UNL1       -0.1572
     20 C          -7.7878  -15.8114   23.1766 C.3     1  UNL1        0.1182
     21 C          -7.4437  -15.6106   24.6227 C.ar    1  UNL1        0.0038
     22 C          -8.5336  -15.5481   25.6513 C.ar    1  UNL1       -0.0021
     23 C          -8.1895  -15.3474   27.0975 C.ar    1  UNL1       -0.0002
     24 C          -6.7554  -15.2091   27.5150 C.ar    1  UNL1        0.0005
     25 C          -5.6654  -15.2717   26.4863 C.ar    1  UNL1        0.0064
     26 C          -6.0096  -15.4724   25.0402 C.ar    1  UNL1        0.0322
     27 BR         -4.9196  -15.5349   24.0116 Br      1  UNL1       -0.0493
@<TRIPOS>BOND
     1    16    17    1
     2    17    18    2
     3    17    19    2
     4    17    11    1
     5    11    12    1
     6    12    13    1
     7    13    14    1
     8    14     1    1
     9     1    20    1
    10    20    21    1
    11    21    22   ar
    12    22    23   ar
    13    23    24   ar
    14    24    25   ar
    15    25    26   ar
    16    26    27    1
    17     1     2    1
    18     2     3   ar
    19     3     4   ar
    20     4     5   ar
    21     5     9    1
    22     9    10    3
    23     5     6   ar
    24     6     7    1
    25     6     8   ar
    26    14    15    1
    27    15    11    1
    28    26    21   ar
    29     8     2   ar
@<TRIPOS>MOLECULE
*****
 27 29 0 0 0
SMALL
GASTEIGER

@<TRIPOS>ATOM
      1 N          -7.8032  -18.7805   21.3907 N.pl3   1  UNL1       -0.3037
      2 C          -7.9647  -17.9935   22.6574 C.ar    1  UNL1        0.0490
      3 C          -9.0194  -18.3803   23.6513 C.ar    1  UNL1        0.0153
      4 C          -9.1810  -17.5933   24.9180 C.ar    1  UNL1        0.0124
      5 C          -8.2879  -16.4195   25.1908 C.ar    1  UNL1        0.0791
      6 C          -7.2331  -16.0326   24.1968 C.ar    1  UNL1        0.0685
      7 CL         -6.3400  -14.8588   24.4696 Cl      1  UNL1       -0.0815
      8 C          -7.0715  -16.8196   22.9301 C.ar    1  UNL1        0.0266
      9 C          -8.4494  -15.6325   26.4575 C.1     1  UNL1        0.1013
     10 N          -8.6110  -14.8455   27.7242 N.1     1  UNL1       -0.1908
     11 N          -4.0685  -19.3856   20.5234 N.3     1  UNL1       -0.1576
     12 C          -4.6597  -20.7287   20.2119 C.3     1  UNL1        0.0972
     13 C          -6.1307  -20.6654   20.4989 C.3     1  UNL1        0.0403
     14 C          -6.4486  -19.2833   20.9877 C.3     1  UNL1        0.0922
     15 C          -5.1741  -18.4924   21.0028 C.3     1  UNL1        0.1151
     16 C          -1.1819  -18.6205   20.2376 C.3     1  UNL1        0.1960
     17 S          -2.6253  -19.0031   20.3805 S.O2    1  UNL1        0.0457
     18 O          -2.2270  -20.2059   21.1835 O.2     1  UNL1       -0.1572
     19 O          -3.0235  -17.8003   19.5775 O.2     1  UNL1       -0.1572
     20 C          -8.9961  -19.0646   20.5269 C.3     1  UNL1        0.1182
     21 C         -10.2411  -18.2409   20.6730 C.ar    1  UNL1        0.0038
     22 C         -10.2891  -16.8490   20.1159 C.ar    1  UNL1       -0.0021
     23 C         -11.5341  -16.0252   20.2619 C.ar    1  UNL1       -0.0002
     24 C         -12.7311  -16.5933   20.9650 C.ar    1  UNL1        0.0005
     25 C         -12.6832  -17.9852   21.5222 C.ar    1  UNL1        0.0064
     26 C         -11.4382  -18.8090   21.3761 C.ar    1  UNL1        0.0322
     27 BR        -11.3901  -20.2009   21.9332 Br      1  UNL1       -0.0493
@<TRIPOS>BOND
     1    16    17    1
     2    17    18    2
     3    17    19    2
     4    17    11    1
     5    11    12    1
     6    12    13    1
     7    13    14    1
     8    14     1    1
     9     1    20    1
    10    20    21    1
    11    21    22   ar
    12    22    23   ar
    13    23    24   ar
    14    24    25   ar
    15    25    26   ar
    16    26    27    1
    17     1     2    1
    18     2     3   ar
    19     3     4   ar
    20     4     5   ar
    21     5     9    1
    22     9    10    3
    23     5     6   ar
    24     6     7    1
    25     6     8   ar
    26    14    15    1
    27    15    11    1
    28    26    21   ar
    29     8     2   ar
@<TRIPOS>MOLECULE
*****
 27 29 0 0 0
SMALL
GASTEIGER

@<TRIPOS>ATOM
      1 N          -8.3066  -17.4050   23.0692 N.pl3   1  UNL1       -0.3037
      2 C          -7.3010  -18.1637   22.2550 C.ar    1  UNL1        0.0490
      3 C          -7.7097  -18.7957   20.9575 C.ar    1  UNL1        0.0153
      4 C          -6.7040  -19.5544   20.1432 C.ar    1  UNL1        0.0124
      5 C          -5.2896  -19.6810   20.6264 C.ar    1  UNL1        0.0791
      6 C          -4.8809  -19.0489   21.9239 C.ar    1  UNL1        0.0685
      7 CL         -3.4665  -19.1755   22.4071 Cl      1  UNL1       -0.0815
      8 C          -5.8865  -18.2903   22.7382 C.ar    1  UNL1        0.0266
      9 C          -4.2840  -20.4397   19.8121 C.1     1  UNL1        0.1013
     10 N          -3.2783  -21.1983   18.9978 N.1     1  UNL1       -0.1908
     11 N         -11.9158  -18.5023   23.9835 N.3     1  UNL1       -0.1576
     12 C         -11.1316  -19.7127   24.3958 C.3     1  UNL1        0.0972
     13 C          -9.6841  -19.4490   24.1035 C.3     1  UNL1        0.0403
     14 C          -9.5738  -18.0756   23.5106 C.3     1  UNL1        0.0922
     15 C         -10.9530  -17.4905   23.4364 C.3     1  UNL1        0.1151
     16 C         -14.8878  -18.1643   24.2129 C.3     1  UNL1        0.1960
     17 S         -13.4017  -18.3333   24.0982 S.O2    1  UNL1        0.0457
     18 O         -13.4635  -17.9025   22.6627 O.2     1  UNL1       -0.1572
     19 O         -13.3400  -18.7640   25.5337 O.2     1  UNL1       -0.1572
     20 C          -8.0452  -15.9759   23.4422 C.3     1  UNL1        0.1182
     21 C          -7.6245  -15.6304   24.8399 C.ar    1  UNL1        0.0038
     22 C          -8.6399  -15.6027   25.9436 C.ar    1  UNL1       -0.0021
     23 C          -8.2191  -15.2572   27.3413 C.ar    1  UNL1       -0.0002
     24 C          -6.7830  -14.9396   27.6354 C.ar    1  UNL1        0.0005
     25 C          -5.7675  -14.9673   26.5317 C.ar    1  UNL1        0.0064
     26 C          -6.1882  -15.3128   25.1340 C.ar    1  UNL1        0.0322
     27 BR         -5.1728  -15.3406   24.0303 Br      1  UNL1       -0.0493
@<TRIPOS>BOND
     1    16    17    1
     2    17    18    2
     3    17    19    2
     4    17    11    1
     5    11    12    1
     6    12    13    1
     7    13    14    1
     8    14     1    1
     9     1    20    1
    10    20    21    1
    11    21    22   ar
    12    22    23   ar
    13    23    24   ar
    14    24    25   ar
    15    25    26   ar
    16    26    27    1
    17     1     2    1
    18     2     3   ar
    19     3     4   ar
    20     4     5   ar
    21     5     9    1
    22     9    10    3
    23     5     6   ar
    24     6     7    1
    25     6     8   ar
    26    14    15    1
    27    15    11    1
    28    26    21   ar
    29     8     2   ar
@<TRIPOS>MOLECULE
*****
 27 29 0 0 0
SMALL
GASTEIGER

@<TRIPOS>ATOM
      1 N          -7.0017  -18.4187   22.0332 N.pl3   1  UNL1       -0.3037
      2 C          -5.5851  -18.5226   21.5510 C.ar    1  UNL1        0.0490
      3 C          -5.3016  -18.9625   20.1453 C.ar    1  UNL1        0.0153
      4 C          -3.8850  -19.0664   19.6632 C.ar    1  UNL1        0.0124
      5 C          -2.7519  -18.7304   20.5867 C.ar    1  UNL1        0.0791
      6 C          -3.0353  -18.2905   21.9926 C.ar    1  UNL1        0.0685
      7 CL         -1.9022  -17.9545   22.9161 Cl      1  UNL1       -0.0815
      8 C          -4.4519  -18.1866   22.4747 C.ar    1  UNL1        0.0266
      9 C          -1.3353  -18.8343   20.1046 C.1     1  UNL1        0.1013
     10 N           0.0813  -18.9382   19.6225 N.1     1  UNL1       -0.1908
     11 N          -7.4858  -15.9238   24.9669 N.3     1  UNL1       -0.1576
     12 C          -8.4860  -15.4046   23.9768 C.3     1  UNL1        0.0972
     13 C          -8.4263  -16.2760   22.7573 C.3     1  UNL1        0.0403
     14 C          -7.3893  -17.3337   22.9937 C.3     1  UNL1        0.0922
     15 C          -6.8081  -17.1160   24.3593 C.3     1  UNL1        0.1151
     16 C          -6.9373  -14.7787   27.6849 C.3     1  UNL1        0.1960
     17 S          -7.2116  -15.3512   26.3258 S.O2    1  UNL1        0.0457
     18 O          -8.5303  -15.8748   26.8125 O.2     1  UNL1       -0.1572
     19 O          -5.8928  -14.8276   25.8392 O.2     1  UNL1       -0.1572
     20 C          -8.0306  -19.3997   21.5548 C.3     1  UNL1        0.1182
     21 C          -9.4768  -19.0048   21.5038 C.ar    1  UNL1        0.0038
     22 C         -10.0190  -18.2972   20.2974 C.ar    1  UNL1       -0.0021
     23 C         -11.4651  -17.9023   20.2464 C.ar    1  UNL1       -0.0002
     24 C         -12.3692  -18.2150   21.4018 C.ar    1  UNL1        0.0005
     25 C         -11.8270  -18.9226   22.6082 C.ar    1  UNL1        0.0064
     26 C         -10.3808  -19.3175   22.6592 C.ar    1  UNL1        0.0322
     27 BR         -9.8387  -20.0251   23.8656 Br      1  UNL1       -0.0493
@<TRIPOS>BOND
     1    16    17    1
     2    17    18    2
     3    17    19    2
     4    17    11    1
     5    11    12    1
     6    12    13    1
     7    13    14    1
     8    14     1    1
     9     1    20    1
    10    20    21    1
    11    21    22   ar
    12    22    23   ar
    13    23    24   ar
    14    24    25   ar
    15    25    26   ar
    16    26    27    1
    17     1     2    1
    18     2     3   ar
    19     3     4   ar
    20     4     5   ar
    21     5     9    1
    22     9    10    3
    23     5     6   ar
    24     6     7    1
    25     6     8   ar
    26    14    15    1
    27    15    11    1
    28    26    21   ar
    29     8     2   ar
@<TRIPOS>MOLECULE
*****
 27 29 0 0 0
SMALL
GASTEIGER

@<TRIPOS>ATOM
      1 N          -8.0268  -18.0516   21.8373 N.pl3   1  UNL1       -0.3037
      2 C          -7.9955  -17.2874   23.1277 C.ar    1  UNL1        0.0490
      3 C          -7.3057  -15.9572   23.1951 C.ar    1  UNL1        0.0153
      4 C          -7.2745  -15.1931   24.4855 C.ar    1  UNL1        0.0124
      5 C          -7.9330  -15.7592   25.7085 C.ar    1  UNL1        0.0791
      6 C          -8.6229  -17.0895   25.6411 C.ar    1  UNL1        0.0685
      7 CL         -9.2814  -17.6556   26.8641 Cl      1  UNL1       -0.0815
      8 C          -8.6541  -17.8536   24.3507 C.ar    1  UNL1        0.0266
      9 C          -7.9017  -14.9951   26.9989 C.1     1  UNL1        0.1013
     10 N          -7.8705  -14.2310   28.2893 N.1     1  UNL1       -0.1908
     11 N          -4.4797  -19.1954   20.7532 N.3     1  UNL1       -0.1576
     12 C          -5.2916  -20.4110   20.4167 C.3     1  UNL1        0.0972
     13 C          -6.7193  -20.1304   20.7819 C.3     1  UNL1        0.0403
     14 C          -6.7895  -18.7415   21.3440 C.3     1  UNL1        0.0922
     15 C          -5.4054  -18.1637   21.3263 C.3     1  UNL1        0.1151
     16 C          -1.5233  -18.8828   20.3507 C.3     1  UNL1        0.1960
     17 S          -3.0015  -19.0391   20.5520 S.O2    1  UNL1        0.0457
     18 O          -3.2496  -17.8850   19.6264 O.2     1  UNL1       -0.1572
     19 O          -2.7534  -20.1932   21.4775 O.2     1  UNL1       -0.1572
     20 C          -9.2952  -18.1258   21.0401 C.3     1  UNL1        0.1182
     21 C         -10.5989  -17.7277   21.6662 C.ar    1  UNL1        0.0038
     22 C         -11.0605  -16.3023   21.5956 C.ar    1  UNL1       -0.0021
     23 C         -12.3642  -15.9042   22.2217 C.ar    1  UNL1       -0.0002
     24 C         -13.2062  -16.9315   22.9184 C.ar    1  UNL1        0.0005
     25 C         -12.7447  -18.3570   22.9890 C.ar    1  UNL1        0.0064
     26 C         -11.4410  -18.7551   22.3629 C.ar    1  UNL1        0.0322
     27 BR        -10.9794  -20.1806   22.4335 Br      1  UNL1       -0.0493
@<TRIPOS>BOND
     1    16    17    1
     2    17    18    2
     3    17    19    2
     4    17    11    1
     5    11    12    1
     6    12    13    1
     7    13    14    1
     8    14     1    1
     9     1    20    1
    10    20    21    1
    11    21    22   ar
    12    22    23   ar
    13    23    24   ar
    14    24    25   ar
    15    25    26   ar
    16    26    27    1
    17     1     2    1
    18     2     3   ar
    19     3     4   ar
    20     4     5   ar
    21     5     9    1
    22     9    10    3
    23     5     6   ar
    24     6     7    1
    25     6     8   ar
    26    14    15    1
    27    15    11    1
    28    26    21   ar
    29     8     2   ar
@<TRIPOS>MOLECULE
*****
 27 29 0 0 0
SMALL
GASTEIGER

@<TRIPOS>ATOM
      1 N           2.3144   -0.3618   20.9663 N.pl3   1  UNL1       -0.3037
      2 C           2.8006   -0.6147   22.3626 C.ar    1  UNL1        0.0490
      3 C           3.7787   -1.7206   22.6275 C.ar    1  UNL1        0.0153
      4 C           4.2648   -1.9734   24.0238 C.ar    1  UNL1        0.0124
      5 C           3.7728   -1.1204   25.1552 C.ar    1  UNL1        0.0791
      6 C           2.7946   -0.0145   24.8904 C.ar    1  UNL1        0.0685
      7 CL          2.3026    0.8385   26.0219 Cl      1  UNL1       -0.0815
      8 C           2.3085    0.2384   23.4941 C.ar    1  UNL1        0.0266
      9 C           4.2589   -1.3733   26.5516 C.1     1  UNL1        0.1013
     10 N           4.7451   -1.6262   27.9479 N.1     1  UNL1       -0.1908
     11 N          -0.0482    2.6100   20.1588 N.3     1  UNL1       -0.1576
     12 C           1.2944    3.2711   20.0565 C.3     1  UNL1        0.0972
     13 C           2.3429    2.2382   20.3466 C.3     1  UNL1        0.0403
     14 C           1.6482    0.9389   20.6281 C.3     1  UNL1        0.0922
     15 C           0.1705    1.1687   20.5121 C.3     1  UNL1        0.1151
     16 C          -2.7044    3.9375   19.7319 C.3     1  UNL1        0.1960
     17 S          -1.3762    3.2737   19.9454 S.O2    1  UNL1        0.0457
     18 O          -0.8894    3.8278   18.6393 O.2     1  UNL1       -0.1572
     19 O          -1.8632    2.7197   21.2515 O.2     1  UNL1       -0.1572
     20 C           2.4945   -1.4096   19.9081 C.3     1  UNL1        0.1182
     21 C           3.8239   -1.5729   19.2329 C.ar    1  UNL1        0.0038
     22 C           4.6380   -0.3643   18.8774 C.ar    1  UNL1       -0.0021
     23 C           5.9674   -0.5276   18.2021 C.ar    1  UNL1       -0.0002
     24 C           6.4827   -1.8995   17.8823 C.ar    1  UNL1        0.0005
     25 C           5.6686   -3.1082   18.2378 C.ar    1  UNL1        0.0064
     26 C           4.3392   -2.9449   18.9130 C.ar    1  UNL1        0.0322
     27 BR          3.5250   -4.1535   19.2685 Br      1  UNL1       -0.0493
@<TRIPOS>BOND
     1    16    17    1
     2    17    18    2
     3    17    19    2
     4    17    11    1
     5    11    12    1
     6    12    13    1
     7    13    14    1
     8    14     1    1
     9     1    20    1
    10    20    21    1
    11    21    22   ar
    12    22    23   ar
    13    23    24   ar
    14    24    25   ar
    15    25    26   ar
    16    26    27    1
    17     1     2    1
    18     2     3   ar
    19     3     4   ar
    20     4     5   ar
    21     5     9    1
    22     9    10    3
    23     5     6   ar
    24     6     7    1
    25     6     8   ar
    26    14    15    1
    27    15    11    1
    28    26    21   ar
    29     8     2   ar
@<TRIPOS>MOLECULE
*****
 27 29 0 0 0
SMALL
GASTEIGER

@<TRIPOS>ATOM
      1 N           6.1227   -2.5497   25.1645 N.pl3   1  UNL1       -0.3037
      2 C           6.1035   -2.5501   23.6646 C.ar    1  UNL1        0.0490
      3 C           7.0585   -1.6803   22.9021 C.ar    1  UNL1        0.0153
      4 C           7.0393   -1.6806   21.4022 C.ar    1  UNL1        0.0124
      5 C           6.0651   -2.5507   20.6648 C.ar    1  UNL1        0.0791
      6 C           5.1101   -3.4206   21.4273 C.ar    1  UNL1        0.0685
      7 CL          4.1360   -4.2908   20.6899 Cl      1  UNL1       -0.0815
      8 C           5.1293   -3.4203   22.9272 C.ar    1  UNL1        0.0266
      9 C           6.0460   -2.5511   19.1650 C.1     1  UNL1        0.1013
     10 N           6.0268   -2.5514   17.6651 N.1     1  UNL1       -0.1908
     11 N           3.6980   -0.9564   27.7428 N.3     1  UNL1       -0.1576
     12 C           3.1904   -0.3627   26.4622 C.3     1  UNL1        0.0972
     13 C           4.0369   -0.8874   25.3404 C.3     1  UNL1        0.0403
     14 C           5.0677   -1.8052   25.9279 C.3     1  UNL1        0.0922
     15 C           4.8583   -1.8479   27.4125 C.3     1  UNL1        0.1151
     16 C           2.5878   -0.4497   30.4833 C.3     1  UNL1        0.1960
     17 S           3.1429   -0.7030   29.1130 S.O2    1  UNL1        0.0457
     18 O           1.7756   -0.5177   28.5248 O.2     1  UNL1       -0.1572
     19 O           4.5103   -0.8883   29.7013 O.2     1  UNL1       -0.1572
     20 C           7.1968   -3.2939   25.9009 C.3     1  UNL1        0.1182
     21 C           7.4129   -4.7546   25.6374 C.ar    1  UNL1        0.0038
     22 C           8.0620   -5.1983   24.3600 C.ar    1  UNL1       -0.0021
     23 C           8.2781   -6.6591   24.0964 C.ar    1  UNL1       -0.0002
     24 C           7.8451   -7.6762   25.1103 C.ar    1  UNL1        0.0005
     25 C           7.1960   -7.2325   26.3878 C.ar    1  UNL1        0.0064
     26 C           6.9799   -5.7718   26.6513 C.ar    1  UNL1        0.0322
     27 BR          6.3308   -5.3281   27.9287 Br      1  UNL1       -0.0493
@<TRIPOS>BOND
     1    16    17    1
     2    17    18    2
     3    17    19    2
     4    17    11    1
     5    11    12    1
     6    12    13    1
     7    13    14    1
     8    14     1    1
     9     1    20    1
    10    20    21    1
    11    21    22   ar
    12    22    23   ar
    13    23    24   ar
    14    24    25   ar
    15    25    26   ar
    16    26    27    1
    17     1     2    1
    18     2     3   ar
    19     3     4   ar
    20     4     5   ar
    21     5     9    1
    22     9    10    3
    23     5     6   ar
    24     6     7    1
    25     6     8   ar
    26    14    15    1
    27    15    11    1
    28    26    21   ar
    29     8     2   ar
@<TRIPOS>MOLECULE
*****
 27 29 0 0 0
SMALL
GASTEIGER

@<TRIPOS>ATOM
      1 N          -0.0635    2.7375   24.3141 N.pl3   1  UNL1       -0.3037
      2 C           0.3961    2.0703   25.5764 C.ar    1  UNL1        0.0490
      3 C           1.8180    2.2211   26.0296 C.ar    1  UNL1        0.0153
      4 C           2.2777    1.5538   27.2920 C.ar    1  UNL1        0.0124
      5 C           1.3154    0.7357   28.1011 C.ar    1  UNL1        0.0791
      6 C          -0.1066    0.5849   27.6479 C.ar    1  UNL1        0.0685
      7 CL         -1.0689   -0.2331   28.4571 Cl      1  UNL1       -0.0815
      8 C          -0.5662    1.2522   26.3856 C.ar    1  UNL1        0.0266
      9 C           1.7750    0.0685   29.3635 C.1     1  UNL1        0.1013
     10 N           2.2346   -0.5988   30.6258 N.1     1  UNL1       -0.1908
     11 N           1.1285    0.6445   21.2704 N.3     1  UNL1       -0.1576
     12 C           0.2102    1.6264   20.6051 C.3     1  UNL1        0.0972
     13 C          -0.3481    2.5301   21.6644 C.3     1  UNL1        0.0403
     14 C           0.2252    2.1065   22.9842 C.3     1  UNL1        0.0922
     15 C           1.1377    0.9412   22.7408 C.3     1  UNL1        0.1151
     16 C           2.6750   -1.5309   19.9008 C.3     1  UNL1        0.1960
     17 S           1.9017   -0.4432   20.5856 S.O2    1  UNL1        0.0457
     18 O           2.5510   -0.8024   21.8893 O.2     1  UNL1       -0.1572
     19 O           1.2525   -0.0841   19.2820 O.2     1  UNL1       -0.1572
     20 C          -0.8118    4.0358   24.3816 C.3     1  UNL1        0.1182
     21 C          -2.2546    4.0494   24.7914 C.ar    1  UNL1        0.0038
     22 C          -3.3072    3.5484   23.8474 C.ar    1  UNL1       -0.0021
     23 C          -4.7501    3.5620   24.2573 C.ar    1  UNL1       -0.0002
     24 C          -5.1404    4.0766   25.6110 C.ar    1  UNL1        0.0005
     25 C          -4.0878    4.5777   26.5551 C.ar    1  UNL1        0.0064
     26 C          -2.6449    4.5640   26.1453 C.ar    1  UNL1        0.0322
     27 BR         -1.5924    5.0650   27.0892 Br      1  UNL1       -0.0493
@<TRIPOS>BOND
     1    16    17    1
     2    17    18    2
     3    17    19    2
     4    17    11    1
     5    11    12    1
     6    12    13    1
     7    13    14    1
     8    14     1    1
     9     1    20    1
    10    20    21    1
    11    21    22   ar
    12    22    23   ar
    13    23    24   ar
    14    24    25   ar
    15    25    26   ar
    16    26    27    1
    17     1     2    1
    18     2     3   ar
    19     3     4   ar
    20     4     5   ar
    21     5     9    1
    22     9    10    3
    23     5     6   ar
    24     6     7    1
    25     6     8   ar
    26    14    15    1
    27    15    11    1
    28    26    21   ar
    29     8     2   ar
@<TRIPOS>MOLECULE
*****
 27 29 0 0 0
SMALL
GASTEIGER

@<TRIPOS>ATOM
      1 N           6.0840   -2.6411   23.1648 N.pl3   1  UNL1       -0.3037
      2 C           5.3336   -2.1033   24.3471 C.ar    1  UNL1        0.0490
      3 C           4.0740   -1.3156   24.1407 C.ar    1  UNL1        0.0153
      4 C           3.3235   -0.7778   25.3230 C.ar    1  UNL1        0.0124
      5 C           3.8328   -1.0278   26.7115 C.ar    1  UNL1        0.0791
      6 C           5.0925   -1.8156   26.9179 C.ar    1  UNL1        0.0685
      7 CL          5.6018   -2.0657   28.3064 Cl      1  UNL1       -0.0815
      8 C           5.8429   -2.3534   25.7357 C.ar    1  UNL1        0.0266
      9 C           3.0824   -0.4901   27.8938 C.1     1  UNL1        0.1013
     10 N           2.3320    0.0477   29.0760 N.1     1  UNL1       -0.1908
     11 N           4.5835   -2.2911   19.6023 N.3     1  UNL1       -0.1576
     12 C           4.1003   -3.6580   19.9873 C.3     1  UNL1        0.0972
     13 C           4.6036   -3.9555   21.3688 C.3     1  UNL1        0.0403
     14 C           5.3978   -2.7724   21.8374 C.3     1  UNL1        0.0922
     15 C           5.3854   -1.7438   20.7457 C.3     1  UNL1        0.1151
     16 C           4.0412   -0.8968   17.0020 C.3     1  UNL1        0.1960
     17 S           4.3123   -1.5940   18.3022 S.O2    1  UNL1        0.0457
     18 O           3.2833   -0.7361   18.9768 O.2     1  UNL1       -0.1572
     19 O           5.3413   -2.4518   17.6275 O.2     1  UNL1       -0.1572
     20 C           7.5206   -3.0475   23.3099 C.3     1  UNL1        0.1182
     21 C           7.8806   -4.4983   23.4347 C.ar    1  UNL1        0.0038
     22 C           7.5745   -5.2408   24.7016 C.ar    1  UNL1       -0.0021
     23 C           7.9345   -6.6916   24.8263 C.ar    1  UNL1       -0.0002
     24 C           8.6008   -7.3999   23.6843 C.ar    1  UNL1        0.0005
     25 C           8.9069   -6.6574   22.4173 C.ar    1  UNL1        0.0064
     26 C           8.5469   -5.2066   22.2925 C.ar    1  UNL1        0.0322
     27 BR          8.8530   -4.4642   21.0257 Br      1  UNL1       -0.0493
@<TRIPOS>BOND
     1    16    17    1
     2    17    18    2
     3    17    19    2
     4    17    11    1
     5    11    12    1
     6    12    13    1
     7    13    14    1
     8    14     1    1
     9     1    20    1
    10    20    21    1
    11    21    22   ar
    12    22    23   ar
    13    23    24   ar
    14    24    25   ar
    15    25    26   ar
    16    26    27    1
    17     1     2    1
    18     2     3   ar
    19     3     4   ar
    20     4     5   ar
    21     5     9    1
    22     9    10    3
    23     5     6   ar
    24     6     7    1
    25     6     8   ar
    26    14    15    1
    27    15    11    1
    28    26    21   ar
    29     8     2   ar
