@<TRIPOS>MOLECULE
*****
 33 36 0 0 0
SMALL
GASTEIGER

@<TRIPOS>ATOM
      1 C          -0.6347    3.5986   20.2628 C.ar    1  UNL1        0.2394
      2 N          -1.7930    2.9516   20.9625 N.ar    1  UNL1       -0.1779
      3 C          -3.1879    3.1559   20.4502 C.ar    1  UNL1        0.2232
      4 N          -3.4246    4.0073   19.2381 N.ar    1  UNL1       -0.2128
      5 C          -2.2663    4.6543   18.5384 C.ar    1  UNL1        0.0952
      6 C          -2.1913    5.5402   17.3303 C.ar    1  UNL1        0.0268
      7 C          -0.7500    5.8834   17.0959 C.ar    1  UNL1        0.0372
      8 S           0.0658    5.2096   18.1592 S.2     1  UNL1       -0.0803
      9 C          -0.8714    4.4500   19.0507 C.ar    1  UNL1        0.1008
     10 N          -4.3462    2.5088   21.1500 N.pl3   1  UNL1       -0.2824
     11 H          -4.5804    1.5732   20.9525 H       1  UNL1        0.1551
     12 C          -5.1477    3.2873   22.1509 C.ar    1  UNL1        0.0528
     13 C          -6.3223    4.1037   21.6993 C.ar    1  UNL1        0.0155
     14 C          -7.1237    4.8821   22.7001 C.ar    1  UNL1        0.0138
     15 C          -6.7507    4.8442   24.1525 C.ar    1  UNL1        0.0959
     16 C          -5.5761    4.0278   24.6040 C.ar    1  UNL1        0.1509
     17 F          -5.2030    3.9897   26.0564 F       1  UNL1       -0.2034
     18 C          -4.7747    3.2493   23.6032 C.ar    1  UNL1        0.0450
     19 C          -7.5521    5.6226   25.1534 C.1     1  UNL1        0.1027
     20 N          -8.3535    6.4010   26.1542 N.1     1  UNL1       -0.1908
     21 O           0.7602    3.3943   20.7751 O.3     1  UNL1       -0.4362
     22 C           2.2282    2.5345   18.3041 C.3     1  UNL1        0.0342
     23 C           2.1246    1.6048   19.4767 C.ar    1  UNL1        0.0124
     24 C           2.7551    0.2452   19.4138 C.ar    1  UNL1       -0.0012
     25 C           2.6515   -0.6846   20.5864 C.ar    1  UNL1        0.0003
     26 C           1.9175   -0.2547   21.8218 C.ar    1  UNL1       -0.0012
     27 C           1.2870    1.1050   21.8848 C.ar    1  UNL1        0.0124
     28 C           0.5531    1.5349   23.1202 C.3     1  UNL1        0.0342
     29 C           1.3906    2.0347   20.7122 C.ar    1  UNL1        0.1391
     30 C           3.2820   -2.0442   20.5235 C.2     1  UNL1        0.0109
     31 C           3.4511   -2.7320   19.2012 C.2     1  UNL1        0.0780
     32 C           4.0816   -4.0916   19.1383 C.1     1  UNL1        0.1011
     33 N           4.7121   -5.4512   19.0754 N.1     1  UNL1       -0.1908
@<TRIPOS>BOND
     1    22    23    1
     2    23    24   ar
     3    24    25   ar
     4    25    30    1
     5    30    31    2
     6    31    32    1
     7    32    33    3
     8    25    26   ar
     9    26    27   ar
    10    27    28    1
    11    27    29   ar
    12    29    21    1
    13    21     1    1
    14     1     2   ar
    15     2     3   ar
    16     3    10    1
    17    10    12    1
    18    12    13   ar
    19    13    14   ar
    20    14    15   ar
    21    15    19    1
    22    19    20    3
    23    15    16   ar
    24    16    17    1
    25    16    18   ar
    26     3     4   ar
    27     4     5   ar
    28     5     6   ar
    29     6     7   ar
    30     7     8   ar
    31     8     9   ar
    32    29    23   ar
    33     9     1   ar
    34    18    12   ar
    35     9     5   ar
    36    10    11    1
@<TRIPOS>MOLECULE
*****
 33 36 0 0 0
SMALL
GASTEIGER

@<TRIPOS>ATOM
      1 C          -1.0681    3.6194   20.1916 C.ar    1  UNL1        0.2394
      2 N          -2.1424    3.0728   21.0844 N.ar    1  UNL1       -0.1779
      3 C          -3.5779    3.1322   20.6535 C.ar    1  UNL1        0.2232
      4 N          -3.9392    3.7383   19.3297 N.ar    1  UNL1       -0.2128
      5 C          -2.8649    4.2849   18.4369 C.ar    1  UNL1        0.0952
      6 C          -2.9170    4.9362   17.0867 C.ar    1  UNL1        0.0268
      7 C          -1.5136    5.2793   16.6832 C.ar    1  UNL1        0.0372
      8 S          -0.5942    4.8400   17.7840 S.2     1  UNL1       -0.0803
      9 C          -1.4293    4.2255   18.8679 C.ar    1  UNL1        0.1008
     10 N          -4.6523    2.5856   21.5463 N.pl3   1  UNL1       -0.2824
     11 H          -5.1386    1.7694   21.2884 H       1  UNL1        0.1551
     12 C          -4.9855    3.2826   22.8321 C.ar    1  UNL1        0.0528
     13 C          -6.2307    4.1126   22.9343 C.ar    1  UNL1        0.0155
     14 C          -6.5640    4.8096   24.2201 C.ar    1  UNL1        0.0138
     15 C          -5.6521    4.6765   25.4036 C.ar    1  UNL1        0.0959
     16 C          -4.4069    3.8464   25.3013 C.ar    1  UNL1        0.1509
     17 F          -3.4949    3.7132   26.4848 F       1  UNL1       -0.2034
     18 C          -4.0737    3.1494   24.0156 C.ar    1  UNL1        0.0450
     19 C          -5.9853    5.3734   26.6894 C.1     1  UNL1        0.1027
     20 N          -6.3185    6.0704   27.9751 N.1     1  UNL1       -0.1908
     21 O           0.3674    3.5600   20.6226 O.3     1  UNL1       -0.4362
     22 C           0.3321    1.8903   23.1148 C.3     1  UNL1        0.0342
     23 C           1.0695    1.4096   21.9002 C.ar    1  UNL1        0.0124
     24 C           1.7893    0.0939   21.9318 C.ar    1  UNL1       -0.0012
     25 C           2.5267   -0.3869   20.7172 C.ar    1  UNL1        0.0003
     26 C           2.5444    0.4479   19.4712 C.ar    1  UNL1       -0.0012
     27 C           1.8246    1.7636   19.4396 C.ar    1  UNL1        0.0124
     28 C           1.8422    2.5984   18.1936 C.3     1  UNL1        0.0342
     29 C           1.0872    2.2444   20.6541 C.ar    1  UNL1        0.1391
     30 C           3.2465   -1.7026   20.7488 C.2     1  UNL1        0.0109
     31 C           3.2885   -2.5641   19.5216 C.2     1  UNL1        0.0780
     32 C           4.0083   -3.8798   19.5532 C.1     1  UNL1        0.1011
     33 N           4.7280   -5.1955   19.5849 N.1     1  UNL1       -0.1908
@<TRIPOS>BOND
     1    22    23    1
     2    23    24   ar
     3    24    25   ar
     4    25    30    1
     5    30    31    2
     6    31    32    1
     7    32    33    3
     8    25    26   ar
     9    26    27   ar
    10    27    28    1
    11    27    29   ar
    12    29    21    1
    13    21     1    1
    14     1     2   ar
    15     2     3   ar
    16     3    10    1
    17    10    12    1
    18    12    13   ar
    19    13    14   ar
    20    14    15   ar
    21    15    19    1
    22    19    20    3
    23    15    16   ar
    24    16    17    1
    25    16    18   ar
    26     3     4   ar
    27     4     5   ar
    28     5     6   ar
    29     6     7   ar
    30     7     8   ar
    31     8     9   ar
    32    29    23   ar
    33     9     1   ar
    34    18    12   ar
    35     9     5   ar
    36    10    11    1
@<TRIPOS>MOLECULE
*****
 33 36 0 0 0
SMALL
GASTEIGER

@<TRIPOS>ATOM
      1 C          -1.4500    3.7157   19.7194 C.ar    1  UNL1        0.2394
      2 N          -2.3408    3.1128   20.7648 N.ar    1  UNL1       -0.1779
      3 C          -3.8248    3.0697   20.5515 C.ar    1  UNL1        0.2232
      4 N          -4.4182    3.6295   19.2926 N.ar    1  UNL1       -0.2128
      5 C          -3.5274    4.2323   18.2472 C.ar    1  UNL1        0.0952
      6 C          -3.8227    4.8574   16.9160 C.ar    1  UNL1        0.0268
      7 C          -2.5211    5.2868   16.3066 C.ar    1  UNL1        0.0372
      8 S          -1.4213    4.9271   17.2612 S.2     1  UNL1       -0.0803
      9 C          -2.0433    4.2754   18.4605 C.ar    1  UNL1        0.1008
     10 N          -4.7157    2.4668   21.5970 N.pl3   1  UNL1       -0.2824
     11 H          -5.1201    1.5816   21.4483 H       1  UNL1        0.1551
     12 C          -4.9904    3.2127   22.8691 C.ar    1  UNL1        0.0528
     13 C          -3.9813    3.2000   23.9789 C.ar    1  UNL1        0.0155
     14 C          -4.2560    3.9459   25.2510 C.ar    1  UNL1        0.0138
     15 C          -5.5398    4.7045   25.4133 C.ar    1  UNL1        0.0959
     16 C          -6.5489    4.7173   24.3035 C.ar    1  UNL1        0.1509
     17 F          -7.8328    5.4759   24.4657 F       1  UNL1       -0.2034
     18 C          -6.2742    3.9714   23.0314 C.ar    1  UNL1        0.0450
     19 C          -5.8146    5.4505   26.6853 C.1     1  UNL1        0.1027
     20 N          -6.0893    6.1963   27.9573 N.1     1  UNL1       -0.1908
     21 O           0.0342    3.7588   19.9327 O.3     1  UNL1       -0.4362
     22 C           0.9041    1.3446   18.3787 C.3     1  UNL1        0.0342
     23 C           1.1595    1.4184   19.8549 C.ar    1  UNL1        0.0124
     24 C           1.8499    0.2851   20.5541 C.ar    1  UNL1       -0.0012
     25 C           2.1054    0.3589   22.0305 C.ar    1  UNL1        0.0003
     26 C           1.6705    1.5659   22.8074 C.ar    1  UNL1       -0.0012
     27 C           0.9800    2.6993   22.1082 C.ar    1  UNL1        0.0124
     28 C           0.5451    3.9063   22.8852 C.3     1  UNL1        0.0342
     29 C           0.7246    2.6255   20.6320 C.ar    1  UNL1        0.1391
     30 C           2.7959   -0.7745   22.7297 C.2     1  UNL1        0.0109
     31 C           3.9693   -1.4502   22.0845 C.2     1  UNL1        0.0780
     32 C           4.6598   -2.5836   22.7838 C.1     1  UNL1        0.1011
     33 N           5.3502   -3.7169   23.4829 N.1     1  UNL1       -0.1908
@<TRIPOS>BOND
     1    22    23    1
     2    23    24   ar
     3    24    25   ar
     4    25    30    1
     5    30    31    2
     6    31    32    1
     7    32    33    3
     8    25    26   ar
     9    26    27   ar
    10    27    28    1
    11    27    29   ar
    12    29    21    1
    13    21     1    1
    14     1     2   ar
    15     2     3   ar
    16     3    10    1
    17    10    12    1
    18    12    13   ar
    19    13    14   ar
    20    14    15   ar
    21    15    19    1
    22    19    20    3
    23    15    16   ar
    24    16    17    1
    25    16    18   ar
    26     3     4   ar
    27     4     5   ar
    28     5     6   ar
    29     6     7   ar
    30     7     8   ar
    31     8     9   ar
    32    29    23   ar
    33     9     1   ar
    34    18    12   ar
    35     9     5   ar
    36    10    11    1
@<TRIPOS>MOLECULE
*****
 33 36 0 0 0
SMALL
GASTEIGER

@<TRIPOS>ATOM
      1 C          -1.5952    3.8720   22.9322 C.ar    1  UNL1        0.2394
      2 N          -0.6439    3.5677   21.8131 N.ar    1  UNL1       -0.1779
      3 C          -1.1693    3.0982   20.4890 C.ar    1  UNL1        0.2232
      4 N          -2.6461    2.9330   20.2838 N.ar    1  UNL1       -0.2128
      5 C          -3.5973    3.2373   21.4030 C.ar    1  UNL1        0.0952
      6 C          -5.0929    3.1685   21.4956 C.ar    1  UNL1        0.0268
      7 C          -5.4917    3.5956   22.8771 C.ar    1  UNL1        0.0372
      8 S          -4.2427    3.9283   23.6382 S.2     1  UNL1       -0.0803
      9 C          -3.0719    3.7068   22.7272 C.ar    1  UNL1        0.1008
     10 N          -0.2180    2.7939   19.3698 N.pl3   1  UNL1       -0.2824
     11 H          -0.1684    3.3922   18.5895 H       1  UNL1        0.1551
     12 C           0.6577    1.5781   19.4395 C.ar    1  UNL1        0.0528
     13 C           0.3168    0.4612   20.3810 C.ar    1  UNL1        0.0155
     14 C           1.1925   -0.7547   20.4507 C.ar    1  UNL1        0.0138
     15 C           2.4092   -0.8536   19.5790 C.ar    1  UNL1        0.0959
     16 C           2.7501    0.2632   18.6376 C.ar    1  UNL1        0.1509
     17 F           3.9668    0.1643   17.7658 F       1  UNL1       -0.2034
     18 C           1.8744    1.4791   18.5678 C.ar    1  UNL1        0.0450
     19 C           3.2849   -2.0695   19.6487 C.1     1  UNL1        0.1027
     20 N           4.1606   -3.2852   19.7183 N.1     1  UNL1       -0.1908
     21 O          -1.0698    4.3415   24.2564 O.3     1  UNL1       -0.4362
     22 C          -2.8610    3.6059   26.5479 C.3     1  UNL1        0.0342
     23 C          -1.5055    2.9757   26.4231 C.ar    1  UNL1        0.0124
     24 C          -1.0456    1.9777   27.4441 C.ar    1  UNL1       -0.0012
     25 C           0.3099    1.3474   27.3193 C.ar    1  UNL1        0.0003
     26 C           1.2054    1.7152   26.1737 C.ar    1  UNL1       -0.0012
     27 C           0.7456    2.7133   25.1526 C.ar    1  UNL1        0.0124
     28 C           1.6411    3.0811   24.0070 C.3     1  UNL1        0.0342
     29 C          -0.6099    3.3435   25.2774 C.ar    1  UNL1        0.1391
     30 C           0.7698    0.3494   28.3404 C.2     1  UNL1        0.0109
     31 C           1.8573    0.7127   29.3075 C.2     1  UNL1        0.0780
     32 C           2.3171   -0.2854   30.3285 C.1     1  UNL1        0.1011
     33 N           2.7769   -1.2835   31.3496 N.1     1  UNL1       -0.1908
@<TRIPOS>BOND
     1    22    23    1
     2    23    24   ar
     3    24    25   ar
     4    25    30    1
     5    30    31    2
     6    31    32    1
     7    32    33    3
     8    25    26   ar
     9    26    27   ar
    10    27    28    1
    11    27    29   ar
    12    29    21    1
    13    21     1    1
    14     1     2   ar
    15     2     3   ar
    16     3    10    1
    17    10    12    1
    18    12    13   ar
    19    13    14   ar
    20    14    15   ar
    21    15    19    1
    22    19    20    3
    23    15    16   ar
    24    16    17    1
    25    16    18   ar
    26     3     4   ar
    27     4     5   ar
    28     5     6   ar
    29     6     7   ar
    30     7     8   ar
    31     8     9   ar
    32    29    23   ar
    33     9     1   ar
    34    18    12   ar
    35     9     5   ar
    36    10    11    1
@<TRIPOS>MOLECULE
*****
 33 36 0 0 0
SMALL
GASTEIGER

@<TRIPOS>ATOM
      1 C          -1.5263    3.5656   20.2068 C.ar    1  UNL1        0.2394
      2 N          -2.6880    3.2091   21.0863 N.ar    1  UNL1       -0.1779
      3 C          -4.0842    3.2567   20.5404 C.ar    1  UNL1        0.2232
      4 N          -4.3189    3.6608   19.1150 N.ar    1  UNL1       -0.2128
      5 C          -3.1573    4.0173   18.2356 C.ar    1  UNL1        0.0952
      6 C          -3.0798    4.4497   16.8013 C.ar    1  UNL1        0.0268
      7 C          -1.6355    4.6693   16.4609 C.ar    1  UNL1        0.0372
      8 S          -0.8204    4.3727   17.6846 S.2     1  UNL1       -0.0803
      9 C          -1.7609    3.9697   18.7815 C.ar    1  UNL1        0.1008
     10 N          -5.2460    2.9001   21.4199 N.pl3   1  UNL1       -0.2824
     11 H          -5.8919    2.2165   21.1290 H       1  UNL1        0.1551
     12 C          -5.4234    3.5852   22.7424 C.ar    1  UNL1        0.0528
     13 C          -6.4020    4.7140   22.8771 C.ar    1  UNL1        0.0155
     14 C          -6.5794    5.3991   24.1997 C.ar    1  UNL1        0.0138
     15 C          -5.7783    4.9553   25.3876 C.ar    1  UNL1        0.0959
     16 C          -4.7996    3.8265   25.2530 C.ar    1  UNL1        0.1509
     17 F          -3.9984    3.3827   26.4409 F       1  UNL1       -0.2034
     18 C          -4.6222    3.1415   23.9304 C.ar    1  UNL1        0.0450
     19 C          -5.9556    5.6404   26.7102 C.1     1  UNL1        0.1027
     20 N          -6.1329    6.3253   28.0328 N.1     1  UNL1       -0.1908
     21 O          -0.1300    3.5180   20.7528 O.3     1  UNL1       -0.4362
     22 C          -0.3400    5.4406   23.0462 C.3     1  UNL1        0.0342
     23 C           0.0063    4.0036   23.3014 C.ar    1  UNL1        0.0124
     24 C           0.2477    3.5279   24.7033 C.ar    1  UNL1       -0.0012
     25 C           0.5941    2.0908   24.9586 C.ar    1  UNL1        0.0003
     26 C           0.6991    1.1297   23.8119 C.ar    1  UNL1       -0.0012
     27 C           0.4578    1.6053   22.4099 C.ar    1  UNL1        0.0124
     28 C           0.5628    0.6442   21.2632 C.3     1  UNL1        0.0342
     29 C           0.1114    3.0423   22.1547 C.ar    1  UNL1        0.1391
     30 C           0.8355    1.6152   26.3606 C.2     1  UNL1        0.0109
     31 C          -0.2618    1.6978   27.3799 C.2     1  UNL1        0.0780
     32 C          -0.0204    1.2221   28.7819 C.1     1  UNL1        0.1011
     33 N           0.2209    0.7464   30.1839 N.1     1  UNL1       -0.1908
@<TRIPOS>BOND
     1    22    23    1
     2    23    24   ar
     3    24    25   ar
     4    25    30    1
     5    30    31    2
     6    31    32    1
     7    32    33    3
     8    25    26   ar
     9    26    27   ar
    10    27    28    1
    11    27    29   ar
    12    29    21    1
    13    21     1    1
    14     1     2   ar
    15     2     3   ar
    16     3    10    1
    17    10    12    1
    18    12    13   ar
    19    13    14   ar
    20    14    15   ar
    21    15    19    1
    22    19    20    3
    23    15    16   ar
    24    16    17    1
    25    16    18   ar
    26     3     4   ar
    27     4     5   ar
    28     5     6   ar
    29     6     7   ar
    30     7     8   ar
    31     8     9   ar
    32    29    23   ar
    33     9     1   ar
    34    18    12   ar
    35     9     5   ar
    36    10    11    1
@<TRIPOS>MOLECULE
*****
 33 36 0 0 0
SMALL
GASTEIGER

@<TRIPOS>ATOM
      1 C          -0.8380    3.3293   22.3342 C.ar    1  UNL1        0.2394
      2 N          -0.7855    2.3252   21.2210 N.ar    1  UNL1       -0.1779
      3 C           0.0766    1.1048   21.3519 C.ar    1  UNL1        0.2232
      4 N           0.8863    0.8883   22.5959 N.ar    1  UNL1       -0.2128
      5 C           0.8338    1.8923   23.7091 C.ar    1  UNL1        0.0952
      6 C           1.5160    1.9476   25.0439 C.ar    1  UNL1        0.0268
      7 C           1.0754    3.2022   25.7379 C.ar    1  UNL1        0.0372
      8 S           0.1209    3.9224   24.8322 S.2     1  UNL1       -0.0803
      9 C          -0.0284    3.1128   23.5782 C.ar    1  UNL1        0.1008
     10 N           0.1291    0.1008   20.2386 N.pl3   1  UNL1       -0.2824
     11 H          -0.7045   -0.2822   19.8814 H       1  UNL1        0.1551
     12 C           1.4518   -0.3197   19.6697 C.ar    1  UNL1        0.0528
     13 C           1.9635    0.3167   18.4115 C.ar    1  UNL1        0.0155
     14 C           3.2862   -0.1038   17.8426 C.ar    1  UNL1        0.0138
     15 C           4.0972   -1.1607   18.5318 C.ar    1  UNL1        0.0959
     16 C           3.5855   -1.7972   19.7900 C.ar    1  UNL1        0.1509
     17 F           4.3964   -2.8543   20.4794 F       1  UNL1       -0.2034
     18 C           2.2628   -1.3767   20.3589 C.ar    1  UNL1        0.0450
     19 C           5.4199   -1.5813   17.9629 C.1     1  UNL1        0.1027
     20 N           6.7425   -2.0018   17.3941 N.1     1  UNL1       -0.1908
     21 O          -1.7002    4.5497   22.2034 O.3     1  UNL1       -0.4362
     22 C          -3.6015    3.3246   20.2325 C.3     1  UNL1        0.0342
     23 C          -4.1145    3.8592   21.5368 C.ar    1  UNL1        0.0124
     24 C          -5.5781    3.7812   21.8556 C.ar    1  UNL1       -0.0012
     25 C          -6.0911    4.3158   23.1599 C.ar    1  UNL1        0.0003
     26 C          -5.1405    4.9284   24.1453 C.ar    1  UNL1       -0.0012
     27 C          -3.6768    5.0063   23.8265 C.ar    1  UNL1        0.0124
     28 C          -2.7262    5.6189   24.8118 C.3     1  UNL1        0.0342
     29 C          -3.1638    4.4718   22.5222 C.ar    1  UNL1        0.1391
     30 C          -7.5548    4.2378   23.4788 C.2     1  UNL1        0.0109
     31 C          -8.2087    5.3299   24.2722 C.2     1  UNL1        0.0780
     32 C          -9.6724    5.2519   24.5910 C.1     1  UNL1        0.1011
     33 N         -11.1361    5.1739   24.9098 N.1     1  UNL1       -0.1908
@<TRIPOS>BOND
     1    22    23    1
     2    23    24   ar
     3    24    25   ar
     4    25    30    1
     5    30    31    2
     6    31    32    1
     7    32    33    3
     8    25    26   ar
     9    26    27   ar
    10    27    28    1
    11    27    29   ar
    12    29    21    1
    13    21     1    1
    14     1     2   ar
    15     2     3   ar
    16     3    10    1
    17    10    12    1
    18    12    13   ar
    19    13    14   ar
    20    14    15   ar
    21    15    19    1
    22    19    20    3
    23    15    16   ar
    24    16    17    1
    25    16    18   ar
    26     3     4   ar
    27     4     5   ar
    28     5     6   ar
    29     6     7   ar
    30     7     8   ar
    31     8     9   ar
    32    29    23   ar
    33     9     1   ar
    34    18    12   ar
    35     9     5   ar
    36    10    11    1
@<TRIPOS>MOLECULE
*****
 33 36 0 0 0
SMALL
GASTEIGER

@<TRIPOS>ATOM
      1 C          -0.5864    4.1933   22.1611 C.ar    1  UNL1        0.2394
      2 N          -0.4737    2.7144   21.9375 N.ar    1  UNL1       -0.1779
      3 C          -0.4191    2.1690   20.5413 C.ar    1  UNL1        0.2232
      4 N          -0.4772    3.1025   19.3685 N.ar    1  UNL1       -0.2128
      5 C          -0.5898    4.5814   19.5921 C.ar    1  UNL1        0.0952
      6 C          -0.6667    5.7375   18.6395 C.ar    1  UNL1        0.0268
      7 C          -0.7688    6.9974   19.4470 C.ar    1  UNL1        0.0372
      8 S          -0.7550    6.6201   20.8987 S.2     1  UNL1       -0.0803
      9 C          -0.6444    5.1268   20.9884 C.ar    1  UNL1        0.1008
     10 N          -0.3065    0.6899   20.3177 N.pl3   1  UNL1       -0.2824
     11 H          -1.0649    0.1003   20.5332 H       1  UNL1        0.1551
     12 C           0.9617    0.1093   19.7659 C.ar    1  UNL1        0.0528
     13 C           1.5050    0.6019   18.4574 C.ar    1  UNL1        0.0155
     14 C           2.7731    0.0212   17.9055 C.ar    1  UNL1        0.0138
     15 C           3.4981   -1.0521   18.6621 C.ar    1  UNL1        0.0959
     16 C           2.9548   -1.5447   19.9706 C.ar    1  UNL1        0.1509
     17 F           3.6797   -2.6181   20.7274 F       1  UNL1       -0.2034
     18 C           1.6866   -0.9640   20.5225 C.ar    1  UNL1        0.0450
     19 C           4.7663   -1.6328   18.1103 C.1     1  UNL1        0.1027
     20 N           6.0344   -2.2135   17.5585 N.1     1  UNL1       -0.1908
     21 O          -0.6409    4.7388   23.5573 O.3     1  UNL1       -0.4362
     22 C          -2.9143    3.4001   24.9856 C.3     1  UNL1        0.0342
     23 C          -1.5034    3.1693   25.4396 C.ar    1  UNL1        0.0124
     24 C          -1.2291    2.2691   26.6077 C.ar    1  UNL1       -0.0012
     25 C           0.1819    2.0383   27.0616 C.ar    1  UNL1        0.0003
     26 C           1.3185    2.7076   26.3475 C.ar    1  UNL1       -0.0012
     27 C           1.0443    3.6078   25.1793 C.ar    1  UNL1        0.0124
     28 C           2.1808    4.2771   24.4652 C.3     1  UNL1        0.0342
     29 C          -0.3667    3.8386   24.7254 C.ar    1  UNL1        0.1391
     30 C           0.4561    1.1381   28.2298 C.2     1  UNL1        0.0109
     31 C           1.8695    0.8714   28.6555 C.2     1  UNL1        0.0780
     32 C           2.1437   -0.0288   29.8237 C.1     1  UNL1        0.1011
     33 N           2.4179   -0.9289   30.9918 N.1     1  UNL1       -0.1908
@<TRIPOS>BOND
     1    22    23    1
     2    23    24   ar
     3    24    25   ar
     4    25    30    1
     5    30    31    2
     6    31    32    1
     7    32    33    3
     8    25    26   ar
     9    26    27   ar
    10    27    28    1
    11    27    29   ar
    12    29    21    1
    13    21     1    1
    14     1     2   ar
    15     2     3   ar
    16     3    10    1
    17    10    12    1
    18    12    13   ar
    19    13    14   ar
    20    14    15   ar
    21    15    19    1
    22    19    20    3
    23    15    16   ar
    24    16    17    1
    25    16    18   ar
    26     3     4   ar
    27     4     5   ar
    28     5     6   ar
    29     6     7   ar
    30     7     8   ar
    31     8     9   ar
    32    29    23   ar
    33     9     1   ar
    34    18    12   ar
    35     9     5   ar
    36    10    11    1
@<TRIPOS>MOLECULE
*****
 33 36 0 0 0
SMALL
GASTEIGER

@<TRIPOS>ATOM
      1 C          -0.1222    3.3726   22.7083 C.ar    1  UNL1        0.2394
      2 N          -0.1560    3.5278   24.1999 N.ar    1  UNL1       -0.1779
      3 C          -1.4695    3.6728   24.9093 C.ar    1  UNL1        0.2232
      4 N          -2.7495    3.6625   24.1272 N.ar    1  UNL1       -0.2128
      5 C          -2.7157    3.5073   22.6356 C.ar    1  UNL1        0.0952
      6 C          -3.8060    3.4612   21.6064 C.ar    1  UNL1        0.0268
      7 C          -3.1661    3.2878   20.2609 C.ar    1  UNL1        0.0372
      8 S          -1.6804    3.2267   20.4585 S.2     1  UNL1       -0.0803
      9 C          -1.4021    3.3623   21.9262 C.ar    1  UNL1        0.1008
     10 N          -1.5033    3.8280   26.4009 N.pl3   1  UNL1       -0.2824
     11 H          -2.0374    4.5473   26.8090 H       1  UNL1        0.1551
     12 C          -0.7233    2.8872   27.2707 C.ar    1  UNL1        0.0528
     13 C           0.6014    3.3100   27.8334 C.ar    1  UNL1        0.0155
     14 C           1.3814    2.3692   28.7032 C.ar    1  UNL1        0.0138
     15 C           0.8368    1.0057   29.0103 C.ar    1  UNL1        0.0959
     16 C          -0.4878    0.5830   28.4476 C.ar    1  UNL1        0.1509
     17 F          -1.0326   -0.7805   28.7547 F       1  UNL1       -0.2034
     18 C          -1.2679    1.5238   27.5778 C.ar    1  UNL1        0.0450
     19 C           1.6168    0.0649   29.8801 C.1     1  UNL1        0.1027
     20 N           2.3967   -0.8759   30.7499 N.1     1  UNL1       -0.1908
     21 O           1.1915    3.2277   21.9989 O.3     1  UNL1       -0.4362
     22 C           2.2791    1.6041   24.2752 C.3     1  UNL1        0.0342
     23 C           2.3028    1.0513   22.8810 C.ar    1  UNL1        0.0124
     24 C           2.8704   -0.3134   22.6250 C.ar    1  UNL1       -0.0012
     25 C           2.8941   -0.8663   21.2307 C.ar    1  UNL1        0.0003
     26 C           2.3503   -0.0546   20.0927 C.ar    1  UNL1       -0.0012
     27 C           1.7828    1.3101   20.3487 C.ar    1  UNL1        0.0124
     28 C           1.2390    2.1219   19.2106 C.3     1  UNL1        0.0342
     29 C           1.7590    1.8630   21.7428 C.ar    1  UNL1        0.1391
     30 C           3.4617   -2.2311   20.9747 C.2     1  UNL1        0.0109
     31 C           3.4258   -2.8109   19.5918 C.2     1  UNL1        0.0780
     32 C           3.9934   -4.1756   19.3358 C.1     1  UNL1        0.1011
     33 N           4.5609   -5.5402   19.0797 N.1     1  UNL1       -0.1908
@<TRIPOS>BOND
     1    22    23    1
     2    23    24   ar
     3    24    25   ar
     4    25    30    1
     5    30    31    2
     6    31    32    1
     7    32    33    3
     8    25    26   ar
     9    26    27   ar
    10    27    28    1
    11    27    29   ar
    12    29    21    1
    13    21     1    1
    14     1     2   ar
    15     2     3   ar
    16     3    10    1
    17    10    12    1
    18    12    13   ar
    19    13    14   ar
    20    14    15   ar
    21    15    19    1
    22    19    20    3
    23    15    16   ar
    24    16    17    1
    25    16    18   ar
    26     3     4   ar
    27     4     5   ar
    28     5     6   ar
    29     6     7   ar
    30     7     8   ar
    31     8     9   ar
    32    29    23   ar
    33     9     1   ar
    34    18    12   ar
    35     9     5   ar
    36    10    11    1
@<TRIPOS>MOLECULE
*****
 33 36 0 0 0
SMALL
GASTEIGER

@<TRIPOS>ATOM
      1 C           2.5099   -0.2514   29.9040 C.ar    1  UNL1        0.2394
      2 N           2.7906   -0.7021   28.5011 N.ar    1  UNL1       -0.1779
      3 C           4.1093   -1.3332   28.1658 C.ar    1  UNL1        0.2232
      4 N           5.1475   -1.5136   29.2334 N.ar    1  UNL1       -0.2128
      5 C           4.8668   -1.0629   30.6362 C.ar    1  UNL1        0.0952
      6 C           5.6903   -1.1096   31.8891 C.ar    1  UNL1        0.0268
      7 C           4.8804   -0.5073   32.9987 C.ar    1  UNL1        0.0372
      8 S           3.5564   -0.0884   32.4317 S.2     1  UNL1       -0.0803
      9 C           3.5480   -0.4318   30.9716 C.ar    1  UNL1        0.1008
     10 N           4.3900   -1.7839   26.7628 N.pl3   1  UNL1       -0.2824
     11 H           5.0075   -2.5333   26.6008 H       1  UNL1        0.1551
     12 C           3.7297   -1.0927   25.6068 C.ar    1  UNL1        0.0528
     13 C           3.8958   -1.6313   24.2167 C.ar    1  UNL1        0.0155
     14 C           3.2356   -0.9402   23.0607 C.ar    1  UNL1        0.0138
     15 C           2.4092    0.2895   23.2947 C.ar    1  UNL1        0.0959
     16 C           2.2431    0.8281   24.6848 C.ar    1  UNL1        0.1509
     17 F           1.4167    2.0579   24.9190 F       1  UNL1       -0.2034
     18 C           2.9033    0.1370   25.8408 C.ar    1  UNL1        0.0450
     19 C           1.7489    0.9808   22.1387 C.1     1  UNL1        0.1027
     20 N           1.0887    1.6720   20.9828 N.1     1  UNL1       -0.1908
     21 O           1.1911    0.3797   30.2393 O.3     1  UNL1       -0.4362
     22 C           2.2249    3.1467   29.7145 C.3     1  UNL1        0.0342
     23 C           1.0212    2.6429   28.9748 C.ar    1  UNL1        0.0124
     24 C           0.3343    3.5226   27.9726 C.ar    1  UNL1       -0.0012
     25 C          -0.8695    3.0189   27.2328 C.ar    1  UNL1        0.0003
     26 C          -1.3864    1.6355   27.4953 C.ar    1  UNL1       -0.0012
     27 C          -0.6995    0.7557   28.4974 C.ar    1  UNL1        0.0124
     28 C          -1.2164   -0.6277   28.7598 C.3     1  UNL1        0.0342
     29 C           0.5042    1.2594   29.2371 C.ar    1  UNL1        0.1391
     30 C          -1.5564    3.8987   26.2307 C.2     1  UNL1        0.0109
     31 C          -2.1186    3.3056   24.9729 C.2     1  UNL1        0.0780
     32 C          -2.8055    4.1854   23.9707 C.1     1  UNL1        0.1011
     33 N          -3.4923    5.0651   22.9685 N.1     1  UNL1       -0.1908
@<TRIPOS>BOND
     1    22    23    1
     2    23    24   ar
     3    24    25   ar
     4    25    30    1
     5    30    31    2
     6    31    32    1
     7    32    33    3
     8    25    26   ar
     9    26    27   ar
    10    27    28    1
    11    27    29   ar
    12    29    21    1
    13    21     1    1
    14     1     2   ar
    15     2     3   ar
    16     3    10    1
    17    10    12    1
    18    12    13   ar
    19    13    14   ar
    20    14    15   ar
    21    15    19    1
    22    19    20    3
    23    15    16   ar
    24    16    17    1
    25    16    18   ar
    26     3     4   ar
    27     4     5   ar
    28     5     6   ar
    29     6     7   ar
    30     7     8   ar
    31     8     9   ar
    32    29    23   ar
    33     9     1   ar
    34    18    12   ar
    35     9     5   ar
    36    10    11    1
