@<TRIPOS>MOLECULE
*****
 44 47 0 0 0
SMALL
GASTEIGER

@<TRIPOS>ATOM
      1 C           2.2567    1.8342   25.0377 C.ar    1  UNL1        0.0439
      2 C           2.5960    0.9051   23.9101 C.ar    1  UNL1        0.0142
      3 C           3.2443   -0.4168   24.1967 C.ar    1  UNL1        0.0014
      4 C           3.5534   -0.8096   25.6110 C.ar    1  UNL1        0.0043
      5 C           3.2140    0.1195   26.7387 C.ar    1  UNL1        0.0506
      6 C           2.5657    1.4414   26.4520 C.ar    1  UNL1       -0.0042
      7 C           2.2263    2.3705   27.5797 C.3     1  UNL1        0.0325
      8 C           3.5837   -1.3460   23.0691 C.ar    1  UNL1        0.0002
      9 C           4.4805   -2.5236   23.3116 C.ar    1  UNL1        0.0031
     10 C           4.8199   -3.4527   22.1841 C.ar    1  UNL1        0.0369
     11 C           4.2624   -3.2043   20.8138 C.ar    1  UNL1        0.1387
     12 C           3.3655   -2.0266   20.5712 C.ar    1  UNL1        0.0369
     13 C           3.0262   -1.0975   21.6989 C.ar    1  UNL1        0.0031
     14 O           4.6018   -4.1334   19.6862 O.3     1  UNL1       -0.4727
     15 C           4.9442   -3.5794   18.3350 C.3     1  UNL1        0.2373
     16 C           5.9332   -2.4583   18.2127 C.3     1  UNL1        0.1894
     17 O           5.5849   -1.2340   17.4192 O.3     1  UNL1       -0.3471
     18 C           4.1548   -0.9510   17.0659 C.3     1  UNL1        0.1743
     19 C           3.5231   -0.2733   28.1529 C.2     1  UNL1        0.2456
     20 O           2.4698   -0.9278   28.9968 O.2     1  UNL1       -0.2702
     21 N           4.8854   -0.0116   28.7234 N.am    1  UNL1       -0.3001
     22 H           5.5768    0.4179   28.1696 H       1  UNL1        0.1498
     23 C           5.1945   -0.4044   30.1377 C.3     1  UNL1        0.1029
     24 C           5.7625   -1.7612   30.4322 C.3     1  UNL1        0.1164
     25 C           5.6385   -2.3435   31.8089 C.2     1  UNL1       -0.0330
     26 C           4.9463   -1.5692   32.8912 C.3     1  UNL1        0.0269
     27 C           6.2065   -3.7002   32.1034 C.2     1  UNL1        0.0042
     28 C           6.8986   -4.4746   31.0211 C.2     1  UNL1        0.0508
     29 C           7.4667   -5.8312   31.3156 C.3     1  UNL1        0.0493
     30 N           7.0227   -3.8922   29.6443 N.am    1  UNL1       -0.1833
     31 C           6.4547   -2.5355   29.3499 C.2     1  UNL1        0.2503
     32 O           6.5787   -1.9531   27.9731 O.2     1  UNL1       -0.2726
     33 N           1.6083    3.1561   24.7511 N.pl3   1  UNL1       -0.3094
     34 C           0.1177    3.2453   24.6091 C.3     1  UNL1        0.0729
     35 C          -0.4918    3.5415   23.2709 C.3     1  UNL1        0.0211
     36 C          -1.9824    3.6307   23.1288 C.3     1  UNL1        0.0177
     37 C          -2.8635    3.4236   24.3250 C.3     1  UNL1        0.0577
     38 C          -2.2540    3.1273   25.6632 C.3     1  UNL1        0.0177
     39 C          -0.7635    3.0382   25.8052 C.3     1  UNL1        0.0211
     40 N          -4.3541    3.5127   24.1829 N.3     1  UNL1       -0.2716
     41 C          -5.1869    4.0217   25.3219 C.3     1  UNL1        0.0896
     42 C          -5.0119    3.0928   22.9018 C.3     1  UNL1        0.0896
     43 C           1.9615    5.6992   25.1488 C.3     1  UNL1        0.0232
     44 C           2.4505    4.3889   24.6066 C.3     1  UNL1        0.0908
@<TRIPOS>BOND
     1    43    44    1
     2    44    33    1
     3    33     1    1
     4     1     2   ar
     5     2     3   ar
     6     3     8    1
     7     8     9   ar
     8     9    10   ar
     9    10    11   ar
    10    11    14    1
    11    14    15    1
    12    15    16    1
    13    16    17    1
    14    17    18    1
    15    11    12   ar
    16    12    13   ar
    17     3     4   ar
    18     4     5   ar
    19     5    19    1
    20    19    20    2
    21    19    21   am
    22    21    23    1
    23    23    24    1
    24    24    25    1
    25    25    26    1
    26    25    27    2
    27    27    28    1
    28    28    29    1
    29    28    30    2
    30    30    31    1
    31    31    32    2
    32     5     6   ar
    33     6     7    1
    34    34    33    1
    35    34    35    1
    36    35    36    1
    37    36    37    1
    38    37    40    1
    39    40    41    1
    40    40    42    1
    41    37    38    1
    42    38    39    1
    43     6     1   ar
    44    39    34    1
    45    13     8   ar
    46    31    24    1
    47    21    22    1
@<TRIPOS>MOLECULE
*****
 44 47 0 0 0
SMALL
GASTEIGER

@<TRIPOS>ATOM
      1 C           0.7419    3.2156   22.7182 C.ar    1  UNL1        0.0439
      2 C           1.6265    2.2738   21.9563 C.ar    1  UNL1        0.0142
      3 C           1.1646    1.7041   20.6478 C.ar    1  UNL1        0.0014
      4 C          -0.1818    2.0762   20.1013 C.ar    1  UNL1        0.0043
      5 C          -1.0664    3.0180   20.8633 C.ar    1  UNL1        0.0506
      6 C          -0.6045    3.5876   22.1717 C.ar    1  UNL1       -0.0042
      7 C          -1.4891    4.5294   22.9337 C.3     1  UNL1        0.0325
      8 C           2.0492    0.7623   19.8858 C.ar    1  UNL1        0.0002
      9 C           2.7988    1.2472   18.6804 C.ar    1  UNL1        0.0031
     10 C           3.6834    0.3055   17.9184 C.ar    1  UNL1        0.0369
     11 C           3.8183   -1.1212   18.3618 C.ar    1  UNL1        0.1387
     12 C           3.0687   -1.6060   19.5672 C.ar    1  UNL1        0.0369
     13 C           2.1841   -0.6642   20.3292 C.ar    1  UNL1        0.0031
     14 O           4.7029   -2.0629   17.5998 O.3     1  UNL1       -0.4727
     15 C           6.1018   -2.3262   18.0727 C.3     1  UNL1        0.2373
     16 C           6.3413   -3.2539   19.2268 C.3     1  UNL1        0.1894
     17 O           5.2374   -4.1448   19.7144 O.3     1  UNL1       -0.3471
     18 C           4.6484   -5.1781   18.8003 C.3     1  UNL1        0.1743
     19 C          -2.4128    3.3900   20.3168 C.2     1  UNL1        0.2456
     20 O          -2.5222    4.4083   19.2209 O.2     1  UNL1       -0.2702
     21 N          -3.6500    2.7438   20.8661 N.am    1  UNL1       -0.3001
     22 H          -3.5782    2.0754   21.5854 H       1  UNL1        0.1498
     23 C          -4.9964    3.1158   20.3196 C.3     1  UNL1        0.1029
     24 C          -5.8479    4.1180   21.0413 C.3     1  UNL1        0.1164
     25 C          -6.6596    5.1110   20.2635 C.2     1  UNL1       -0.0330
     26 C          -6.6199    5.1019   18.7640 C.3     1  UNL1        0.0269
     27 C          -7.5112    6.1131   20.9851 C.2     1  UNL1        0.0042
     28 C          -7.5509    6.1222   22.4846 C.2     1  UNL1        0.0508
     29 C          -8.4024    7.1243   23.2062 C.3     1  UNL1        0.0493
     30 N          -6.7391    5.1291   23.2624 N.am    1  UNL1       -0.1833
     31 C          -5.8876    4.1271   22.5407 C.2     1  UNL1        0.2503
     32 O          -5.0758    3.1340   23.3185 O.2     1  UNL1       -0.2726
     33 N           1.2038    3.7853   24.0268 N.pl3   1  UNL1       -0.3094
     34 C           0.7941    3.1343   25.3145 C.3     1  UNL1        0.0729
     35 C           0.1214    1.7938   25.2965 C.3     1  UNL1        0.0211
     36 C          -0.2882    1.1428   26.5844 C.3     1  UNL1        0.0177
     37 C          -0.0251    1.8324   27.8902 C.3     1  UNL1        0.0577
     38 C           0.6477    3.1729   27.9082 C.3     1  UNL1        0.0177
     39 C           1.0573    3.8239   26.6204 C.3     1  UNL1        0.0211
     40 N          -0.4347    1.1814   29.1780 N.3     1  UNL1       -0.2716
     41 C          -1.5046    0.1301   29.1798 C.3     1  UNL1        0.0896
     42 C           0.2257    1.5818   30.4640 C.3     1  UNL1        0.0896
     43 C           1.4537    6.3711   24.0606 C.3     1  UNL1        0.0232
     44 C           2.0752    5.0060   24.0474 C.3     1  UNL1        0.0908
@<TRIPOS>BOND
     1    43    44    1
     2    44    33    1
     3    33     1    1
     4     1     2   ar
     5     2     3   ar
     6     3     8    1
     7     8     9   ar
     8     9    10   ar
     9    10    11   ar
    10    11    14    1
    11    14    15    1
    12    15    16    1
    13    16    17    1
    14    17    18    1
    15    11    12   ar
    16    12    13   ar
    17     3     4   ar
    18     4     5   ar
    19     5    19    1
    20    19    20    2
    21    19    21   am
    22    21    23    1
    23    23    24    1
    24    24    25    1
    25    25    26    1
    26    25    27    2
    27    27    28    1
    28    28    29    1
    29    28    30    2
    30    30    31    1
    31    31    32    2
    32     5     6   ar
    33     6     7    1
    34    34    33    1
    35    34    35    1
    36    35    36    1
    37    36    37    1
    38    37    40    1
    39    40    41    1
    40    40    42    1
    41    37    38    1
    42    38    39    1
    43     6     1   ar
    44    39    34    1
    45    13     8   ar
    46    31    24    1
    47    21    22    1
@<TRIPOS>MOLECULE
*****
 44 47 0 0 0
SMALL
GASTEIGER

@<TRIPOS>ATOM
      1 C          -0.5449    3.5172   23.6633 C.ar    1  UNL1        0.0439
      2 C          -0.2109    2.9908   25.0276 C.ar    1  UNL1        0.0142
      3 C           0.4806    1.6676   25.1723 C.ar    1  UNL1        0.0014
      4 C           0.8381    0.8708   23.9527 C.ar    1  UNL1        0.0043
      5 C           0.5041    1.3973   22.5884 C.ar    1  UNL1        0.0506
      6 C          -0.1874    2.7205   22.4437 C.ar    1  UNL1       -0.0042
      7 C          -0.5214    3.2470   21.0794 C.3     1  UNL1        0.0325
      8 C           0.8146    1.1411   26.5366 C.ar    1  UNL1        0.0002
      9 C           2.2219    0.7351   26.8600 C.ar    1  UNL1        0.0031
     10 C           2.5560    0.2087   28.2242 C.ar    1  UNL1        0.0369
     11 C           1.4827    0.0881   29.2652 C.ar    1  UNL1        0.1387
     12 C           0.0753    0.4941   28.9418 C.ar    1  UNL1        0.0369
     13 C          -0.2587    1.0206   27.5775 C.ar    1  UNL1        0.0031
     14 O           1.8167   -0.4383   30.6294 O.3     1  UNL1       -0.4727
     15 C           3.2486   -0.6574   31.0189 C.3     1  UNL1        0.2373
     16 C           3.6471   -0.6181   32.4645 C.3     1  UNL1        0.1894
     17 O           3.9062   -1.8960   33.2059 O.3     1  UNL1       -0.3471
     18 C           5.1565   -2.6796   32.9357 C.3     1  UNL1        0.1743
     19 C           0.8616    0.6005   21.3689 C.2     1  UNL1        0.2456
     20 O          -0.2171   -0.0549   20.5584 O.2     1  UNL1       -0.2702
     21 N           2.2977    0.4592   20.9597 N.am    1  UNL1       -0.3001
     22 H           3.0057    0.8893   21.4917 H       1  UNL1        0.1498
     23 C           2.6553   -0.3376   19.7402 C.3     1  UNL1        0.1029
     24 C           4.0564   -0.8412   19.5574 C.3     1  UNL1        0.1164
     25 C           4.6369   -0.9601   18.1795 C.2     1  UNL1       -0.0330
     26 C           3.8163   -0.5755   16.9842 C.3     1  UNL1        0.0269
     27 C           6.0380   -1.4637   17.9968 C.2     1  UNL1        0.0042
     28 C           6.8586   -1.8484   19.1921 C.2     1  UNL1        0.0508
     29 C           8.2596   -2.3520   19.0094 C.3     1  UNL1        0.0493
     30 N           6.2780   -1.7294   20.5701 N.am    1  UNL1       -0.1833
     31 C           4.8769   -1.2259   20.7527 C.2     1  UNL1        0.2503
     32 O           4.2964   -1.1069   22.1308 O.2     1  UNL1       -0.2726
     33 N          -1.2364    4.8405   23.5186 N.pl3   1  UNL1       -0.3094
     34 C          -2.7133    4.9452   23.7591 C.3     1  UNL1        0.0729
     35 C          -3.5640    3.7098   23.7505 C.3     1  UNL1        0.0211
     36 C          -5.0409    3.8146   23.9910 C.3     1  UNL1        0.0177
     37 C          -5.6670    5.1547   24.2402 C.3     1  UNL1        0.0577
     38 C          -4.8163    6.3901   24.2488 C.3     1  UNL1        0.0177
     39 C          -3.3394    6.2853   24.0083 C.3     1  UNL1        0.0211
     40 N          -7.1439    5.2594   24.4807 N.3     1  UNL1       -0.2716
     41 C          -7.6681    6.1903   25.5336 C.3     1  UNL1        0.0896
     42 C          -8.0966    4.4333   23.6683 C.3     1  UNL1        0.0896
     43 C           1.0352    6.0879   23.3343 C.3     1  UNL1        0.0232
     44 C          -0.4510    6.0590   23.1333 C.3     1  UNL1        0.0908
@<TRIPOS>BOND
     1    43    44    1
     2    44    33    1
     3    33     1    1
     4     1     2   ar
     5     2     3   ar
     6     3     8    1
     7     8     9   ar
     8     9    10   ar
     9    10    11   ar
    10    11    14    1
    11    14    15    1
    12    15    16    1
    13    16    17    1
    14    17    18    1
    15    11    12   ar
    16    12    13   ar
    17     3     4   ar
    18     4     5   ar
    19     5    19    1
    20    19    20    2
    21    19    21   am
    22    21    23    1
    23    23    24    1
    24    24    25    1
    25    25    26    1
    26    25    27    2
    27    27    28    1
    28    28    29    1
    29    28    30    2
    30    30    31    1
    31    31    32    2
    32     5     6   ar
    33     6     7    1
    34    34    33    1
    35    34    35    1
    36    35    36    1
    37    36    37    1
    38    37    40    1
    39    40    41    1
    40    40    42    1
    41    37    38    1
    42    38    39    1
    43     6     1   ar
    44    39    34    1
    45    13     8   ar
    46    31    24    1
    47    21    22    1
@<TRIPOS>MOLECULE
*****
 44 47 0 0 0
SMALL
GASTEIGER

@<TRIPOS>ATOM
      1 C           0.4173    2.4824   22.7148 C.ar    1  UNL1        0.0439
      2 C           0.8471    1.8561   24.0083 C.ar    1  UNL1        0.0142
      3 C          -0.0312    1.9593   25.2198 C.ar    1  UNL1        0.0014
      4 C          -1.3393    2.6888   25.1379 C.ar    1  UNL1        0.0043
      5 C          -1.7691    3.3152   23.8445 C.ar    1  UNL1        0.0506
      6 C          -0.8908    3.2119   22.6330 C.ar    1  UNL1       -0.0042
      7 C          -1.3205    3.8383   21.3395 C.3     1  UNL1        0.0325
      8 C           0.3986    1.3330   26.5133 C.ar    1  UNL1        0.0002
      9 C           1.8579    1.1630   26.8159 C.ar    1  UNL1        0.0031
     10 C           2.2876    0.5367   28.1093 C.ar    1  UNL1        0.0369
     11 C           1.2581    0.0804   29.1002 C.ar    1  UNL1        0.1387
     12 C          -0.2012    0.2504   28.7977 C.ar    1  UNL1        0.0369
     13 C          -0.6310    0.8767   27.5042 C.ar    1  UNL1        0.0031
     14 O           1.6879   -0.5459   30.3937 O.3     1  UNL1       -0.4727
     15 C           2.7961    0.0715   31.1942 C.3     1  UNL1        0.2373
     16 C           3.9100   -0.7854   31.7184 C.3     1  UNL1        0.1894
     17 O           3.8663   -1.2918   33.1296 O.3     1  UNL1       -0.3471
     18 C           4.2860   -2.6993   33.4347 C.3     1  UNL1        0.1743
     19 C          -3.0772    4.0447   23.7626 C.2     1  UNL1        0.2456
     20 O          -3.1034    5.4983   23.3938 O.2     1  UNL1       -0.2702
     21 N          -4.3590    3.3205   24.0496 N.am    1  UNL1       -0.3001
     22 H          -4.3418    2.3664   24.2917 H       1  UNL1        0.1498
     23 C          -5.6671    4.0500   23.9677 C.3     1  UNL1        0.1029
     24 C          -6.1218    4.9055   25.1130 C.3     1  UNL1        0.1164
     25 C          -7.2327    5.8939   24.9161 C.2     1  UNL1       -0.0330
     26 C          -7.8891    6.0268   23.5739 C.3     1  UNL1        0.0269
     27 C          -7.6874    6.7493   26.0614 C.2     1  UNL1        0.0042
     28 C          -7.0310    6.6163   27.4036 C.2     1  UNL1        0.0508
     29 C          -7.4856    7.4717   28.5488 C.3     1  UNL1        0.0493
     30 N          -5.9200    5.6279   27.6005 N.am    1  UNL1       -0.1833
     31 C          -5.4654    4.7725   26.4552 C.2     1  UNL1        0.2503
     32 O          -4.3543    3.7840   26.6521 O.2     1  UNL1       -0.2726
     33 N           1.2956    2.3792   21.5032 N.pl3   1  UNL1       -0.3094
     34 C           1.9700    1.0804   21.1741 C.3     1  UNL1        0.0729
     35 C           3.3951    0.8509   21.5819 C.3     1  UNL1        0.0211
     36 C           4.0694   -0.4480   21.2527 C.3     1  UNL1        0.0177
     37 C           3.3186   -1.5173   20.5159 C.3     1  UNL1        0.0577
     38 C           1.8935   -1.2877   20.1082 C.3     1  UNL1        0.0177
     39 C           1.2191    0.0111   20.4373 C.3     1  UNL1        0.0211
     40 N           3.9929   -2.8161   20.1868 N.3     1  UNL1       -0.2716
     41 C           5.1256   -3.3097   21.0374 C.3     1  UNL1        0.0896
     42 C           3.5346   -3.6213   19.0071 C.3     1  UNL1        0.0896
     43 C           1.7777    3.3892   19.1585 C.3     1  UNL1        0.0232
     44 C           1.4996    3.5749   20.6207 C.3     1  UNL1        0.0908
@<TRIPOS>BOND
     1    43    44    1
     2    44    33    1
     3    33     1    1
     4     1     2   ar
     5     2     3   ar
     6     3     8    1
     7     8     9   ar
     8     9    10   ar
     9    10    11   ar
    10    11    14    1
    11    14    15    1
    12    15    16    1
    13    16    17    1
    14    17    18    1
    15    11    12   ar
    16    12    13   ar
    17     3     4   ar
    18     4     5   ar
    19     5    19    1
    20    19    20    2
    21    19    21   am
    22    21    23    1
    23    23    24    1
    24    24    25    1
    25    25    26    1
    26    25    27    2
    27    27    28    1
    28    28    29    1
    29    28    30    2
    30    30    31    1
    31    31    32    2
    32     5     6   ar
    33     6     7    1
    34    34    33    1
    35    34    35    1
    36    35    36    1
    37    36    37    1
    38    37    40    1
    39    40    41    1
    40    40    42    1
    41    37    38    1
    42    38    39    1
    43     6     1   ar
    44    39    34    1
    45    13     8   ar
    46    31    24    1
    47    21    22    1
@<TRIPOS>MOLECULE
*****
 44 47 0 0 0
SMALL
GASTEIGER

@<TRIPOS>ATOM
      1 C          -0.4492    1.9754   27.3045 C.ar    1  UNL1        0.0439
      2 C          -1.7819    2.6604   27.2365 C.ar    1  UNL1        0.0142
      3 C          -2.2309    3.3019   25.9571 C.ar    1  UNL1        0.0014
      4 C          -1.3473    3.2583   24.7458 C.ar    1  UNL1        0.0043
      5 C          -0.0146    2.5733   24.8139 C.ar    1  UNL1        0.0506
      6 C           0.4344    1.9318   26.0932 C.ar    1  UNL1       -0.0042
      7 C           1.7672    1.2467   26.1613 C.3     1  UNL1        0.0325
      8 C          -3.5636    3.9869   25.8890 C.ar    1  UNL1        0.0002
      9 C          -3.9245    5.0283   26.9065 C.ar    1  UNL1        0.0031
     10 C          -5.2571    5.7134   26.8385 C.ar    1  UNL1        0.0369
     11 C          -6.2290    5.3571   25.7528 C.ar    1  UNL1        0.1387
     12 C          -5.8682    4.3157   24.7353 C.ar    1  UNL1        0.0369
     13 C          -4.5355    3.6306   24.8034 C.ar    1  UNL1        0.0031
     14 O          -7.5617    6.0421   25.6848 O.3     1  UNL1       -0.4727
     15 C          -8.4555    5.8277   24.4994 C.3     1  UNL1        0.2373
     16 C          -9.9288    6.0846   24.6149 C.3     1  UNL1        0.1894
     17 O         -10.7928    5.1516   25.4105 O.3     1  UNL1       -0.3471
     18 C         -11.2741    3.8695   24.7984 C.3     1  UNL1        0.1743
     19 C           0.8691    2.5297   23.6025 C.2     1  UNL1        0.2456
     20 O           1.8641    3.6257   23.3603 O.2     1  UNL1       -0.2702
     21 N           0.7577    1.3902   22.6335 N.am    1  UNL1       -0.3001
     22 H           0.1046    0.6709   22.7925 H       1  UNL1        0.1498
     23 C           1.6413    1.3467   21.4222 C.3     1  UNL1        0.1029
     24 C           2.2859    0.0564   21.0101 C.3     1  UNL1        0.1164
     25 C           3.2859   -0.6041   21.9121 C.2     1  UNL1       -0.0330
     26 C           3.6414    0.0256   23.2263 C.3     1  UNL1        0.0269
     27 C           3.9305   -1.8944   21.5000 C.2     1  UNL1        0.0042
     28 C           3.5751   -2.5241   20.1858 C.2     1  UNL1        0.0508
     29 C           4.2196   -3.8143   19.7737 C.3     1  UNL1        0.0493
     30 N           2.5750   -1.8636   19.2838 N.am    1  UNL1       -0.1833
     31 C           1.9305   -0.5734   19.6959 C.2     1  UNL1        0.2503
     32 O           0.9304    0.0872   18.7938 O.2     1  UNL1       -0.2726
     33 N          -0.0001    1.3338   28.5840 N.pl3   1  UNL1       -0.3094
     34 C           0.6591    2.1617   29.6470 C.3     1  UNL1        0.0729
     35 C           0.7850    3.6460   29.4713 C.3     1  UNL1        0.0211
     36 C           1.4442    4.4739   30.5344 C.3     1  UNL1        0.0177
     37 C           1.9776    3.8174   31.7731 C.3     1  UNL1        0.0577
     38 C           1.8517    2.3330   31.9488 C.3     1  UNL1        0.0177
     39 C           1.1925    1.5052   30.8858 C.3     1  UNL1        0.0211
     40 N           2.6368    4.6452   32.8362 N.3     1  UNL1       -0.2716
     41 C           4.1142    4.5295   33.0684 C.3     1  UNL1        0.0896
     42 C           1.8186    5.5889   33.6670 C.3     1  UNL1        0.0896
     43 C          -1.5998   -0.6807   28.9480 C.3     1  UNL1        0.0232
     44 C          -0.2102   -0.1355   28.8003 C.3     1  UNL1        0.0908
@<TRIPOS>BOND
     1    43    44    1
     2    44    33    1
     3    33     1    1
     4     1     2   ar
     5     2     3   ar
     6     3     8    1
     7     8     9   ar
     8     9    10   ar
     9    10    11   ar
    10    11    14    1
    11    14    15    1
    12    15    16    1
    13    16    17    1
    14    17    18    1
    15    11    12   ar
    16    12    13   ar
    17     3     4   ar
    18     4     5   ar
    19     5    19    1
    20    19    20    2
    21    19    21   am
    22    21    23    1
    23    23    24    1
    24    24    25    1
    25    25    26    1
    26    25    27    2
    27    27    28    1
    28    28    29    1
    29    28    30    2
    30    30    31    1
    31    31    32    2
    32     5     6   ar
    33     6     7    1
    34    34    33    1
    35    34    35    1
    36    35    36    1
    37    36    37    1
    38    37    40    1
    39    40    41    1
    40    40    42    1
    41    37    38    1
    42    38    39    1
    43     6     1   ar
    44    39    34    1
    45    13     8   ar
    46    31    24    1
    47    21    22    1
@<TRIPOS>MOLECULE
*****
 44 47 0 0 0
SMALL
GASTEIGER

@<TRIPOS>ATOM
      1 C           1.5626    2.1327   21.4462 C.ar    1  UNL1        0.0439
      2 C           1.6406    1.7703   22.8997 C.ar    1  UNL1        0.0142
      3 C           0.4689    2.0264   23.8004 C.ar    1  UNL1        0.0014
      4 C          -0.7809    2.6450   23.2477 C.ar    1  UNL1        0.0043
      5 C          -0.8589    3.0074   21.7943 C.ar    1  UNL1        0.0506
      6 C           0.3128    2.7512   20.8935 C.ar    1  UNL1       -0.0042
      7 C           0.2348    3.1136   19.4400 C.3     1  UNL1        0.0325
      8 C           0.5468    1.6640   25.2539 C.ar    1  UNL1        0.0002
      9 C           1.8470    1.2033   25.8433 C.ar    1  UNL1        0.0031
     10 C           1.9250    0.8409   27.2967 C.ar    1  UNL1        0.0369
     11 C           0.7028    0.9392   28.1609 C.ar    1  UNL1        0.1387
     12 C          -0.5973    1.4000   27.5716 C.ar    1  UNL1        0.0369
     13 C          -0.6753    1.7624   26.1180 C.ar    1  UNL1        0.0031
     14 O           0.7809    0.5768   29.6143 O.3     1  UNL1       -0.4727
     15 C           2.0770    0.7225   30.3551 C.3     1  UNL1        0.2373
     16 C           2.9994   -0.4525   30.4909 C.3     1  UNL1        0.1894
     17 O           3.0580   -1.2147   31.7815 O.3     1  UNL1       -0.3471
     18 C           3.9555   -0.7469   32.8887 C.3     1  UNL1        0.1743
     19 C          -2.1087    3.6259   21.2415 C.2     1  UNL1        0.2456
     20 O          -2.2322    5.1183   21.1553 O.2     1  UNL1       -0.2702
     21 N          -3.2351    2.7520   20.7751 N.am    1  UNL1       -0.3001
     22 H          -3.1541    1.7725   20.8316 H       1  UNL1        0.1498
     23 C          -4.4848    3.3705   20.2223 C.3     1  UNL1        0.1029
     24 C          -5.4399    4.0776   21.1378 C.3     1  UNL1        0.1164
     25 C          -6.2131    5.2641   20.6436 C.2     1  UNL1       -0.0330
     26 C          -6.0313    5.7437   19.2340 C.3     1  UNL1        0.0269
     27 C          -7.1682    5.9712   21.5591 C.2     1  UNL1        0.0042
     28 C          -7.3501    5.4916   22.9686 C.2     1  UNL1        0.0508
     29 C          -8.3051    6.1986   23.8841 C.3     1  UNL1        0.0493
     30 N          -6.5768    4.3050   23.4628 N.am    1  UNL1       -0.1833
     31 C          -5.6218    3.5980   22.5474 C.2     1  UNL1        0.2503
     32 O          -4.8485    2.4114   23.0415 O.2     1  UNL1       -0.2726
     33 N           2.7344    1.8766   20.5454 N.pl3   1  UNL1       -0.3094
     34 C           3.2560    0.4810   20.3718 C.3     1  UNL1        0.0729
     35 C           4.5843    0.0989   20.9545 C.3     1  UNL1        0.0211
     36 C           5.1059   -1.2968   20.7809 C.3     1  UNL1        0.0177
     37 C           4.2991   -2.3103   20.0245 C.3     1  UNL1        0.0577
     38 C           2.9708   -1.9281   19.4418 C.3     1  UNL1        0.0177
     39 C           2.4493   -0.5325   19.6154 C.3     1  UNL1        0.0211
     40 N           4.8207   -3.7059   19.8509 N.3     1  UNL1       -0.2716
     41 C           6.2530   -4.0165   20.1705 C.3     1  UNL1        0.0896
     42 C           3.9101   -4.7910   19.3576 C.3     1  UNL1        0.0896
     43 C           3.8361    2.8400   18.3988 C.3     1  UNL1        0.0232
     44 C           3.3845    3.0162   19.8183 C.3     1  UNL1        0.0908
@<TRIPOS>BOND
     1    43    44    1
     2    44    33    1
     3    33     1    1
     4     1     2   ar
     5     2     3   ar
     6     3     8    1
     7     8     9   ar
     8     9    10   ar
     9    10    11   ar
    10    11    14    1
    11    14    15    1
    12    15    16    1
    13    16    17    1
    14    17    18    1
    15    11    12   ar
    16    12    13   ar
    17     3     4   ar
    18     4     5   ar
    19     5    19    1
    20    19    20    2
    21    19    21   am
    22    21    23    1
    23    23    24    1
    24    24    25    1
    25    25    26    1
    26    25    27    2
    27    27    28    1
    28    28    29    1
    29    28    30    2
    30    30    31    1
    31    31    32    2
    32     5     6   ar
    33     6     7    1
    34    34    33    1
    35    34    35    1
    36    35    36    1
    37    36    37    1
    38    37    40    1
    39    40    41    1
    40    40    42    1
    41    37    38    1
    42    38    39    1
    43     6     1   ar
    44    39    34    1
    45    13     8   ar
    46    31    24    1
    47    21    22    1
@<TRIPOS>MOLECULE
*****
 44 47 0 0 0
SMALL
GASTEIGER

@<TRIPOS>ATOM
      1 C           0.3241    1.6377   27.1923 C.ar    1  UNL1        0.0439
      2 C          -0.7762    2.3755   26.4888 C.ar    1  UNL1        0.0142
      3 C          -0.6519    2.6925   25.0280 C.ar    1  UNL1        0.0014
      4 C           0.5727    2.2718   24.2707 C.ar    1  UNL1        0.0043
      5 C           1.6730    1.5341   24.9743 C.ar    1  UNL1        0.0506
      6 C           1.5487    1.2170   26.4351 C.ar    1  UNL1       -0.0042
      7 C           2.6490    0.4793   27.1387 C.3     1  UNL1        0.0325
      8 C          -1.7523    3.4302   24.3243 C.ar    1  UNL1        0.0002
      9 C          -3.1546    3.3677   24.8529 C.ar    1  UNL1        0.0031
     10 C          -4.2550    4.1054   24.1493 C.ar    1  UNL1        0.0369
     11 C          -3.9529    4.9057   22.9171 C.ar    1  UNL1        0.1387
     12 C          -2.5505    4.9683   22.3885 C.ar    1  UNL1        0.0369
     13 C          -1.4502    4.2305   23.0921 C.ar    1  UNL1        0.0031
     14 O          -5.0532    5.6434   22.2135 O.3     1  UNL1       -0.4727
     15 C          -5.5891    5.1270   20.9111 C.3     1  UNL1        0.2373
     16 C          -5.3661    3.6953   20.5232 C.3     1  UNL1        0.1894
     17 O          -4.4809    3.3630   19.3588 O.3     1  UNL1       -0.3471
     18 C          -3.5030    4.3784   18.8462 C.3     1  UNL1        0.1743
     19 C           2.8975    1.1134   24.2170 C.2     1  UNL1        0.2456
     20 O           3.9857    2.1075   23.9387 O.2     1  UNL1       -0.2702
     21 N           3.0340   -0.3015   23.7381 N.am    1  UNL1       -0.3001
     22 H           2.3198   -0.9541   23.9207 H       1  UNL1        0.1498
     23 C           4.2585   -0.7222   22.9808 C.3     1  UNL1        0.1029
     24 C           4.1822   -1.8561   22.0017 C.3     1  UNL1        0.1164
     25 C           3.5891   -1.6343   20.6420 C.2     1  UNL1       -0.0330
     26 C           3.0722   -0.2786   20.2613 C.3     1  UNL1        0.0269
     27 C           3.5128   -2.7682   19.6629 C.2     1  UNL1        0.0042
     28 C           4.0296   -4.1239   20.0436 C.2     1  UNL1        0.0508
     29 C           3.9534   -5.2577   19.0646 C.3     1  UNL1        0.0493
     30 N           4.6228   -4.3457   21.4034 N.am    1  UNL1       -0.1833
     31 C           4.6991   -3.2118   22.3824 C.2     1  UNL1        0.2503
     32 O           5.2923   -3.4336   23.7423 O.2     1  UNL1       -0.2726
     33 N           0.1999    1.3207   28.6532 N.pl3   1  UNL1       -0.3094
     34 C           0.5028    2.3736   29.6776 C.3     1  UNL1        0.0729
     35 C           0.5873    2.0055   31.1293 C.3     1  UNL1        0.0211
     36 C           0.8903    3.0585   32.1537 C.3     1  UNL1        0.0177
     37 C           1.1088    4.4797   31.7264 C.3     1  UNL1        0.0577
     38 C           1.0244    4.8478   30.2747 C.3     1  UNL1        0.0177
     39 C           0.7214    3.7949   29.2504 C.3     1  UNL1        0.0211
     40 N           1.4118    5.5326   32.7508 N.3     1  UNL1       -0.2716
     41 C           1.4874    6.9746   32.3445 C.3     1  UNL1        0.0896
     42 C           1.6392    5.1437   34.1816 C.3     1  UNL1        0.0896
     43 C          -1.6594   -0.4708   28.9425 C.3     1  UNL1        0.0232
     44 C          -0.2274   -0.0494   29.0896 C.3     1  UNL1        0.0908
@<TRIPOS>BOND
     1    43    44    1
     2    44    33    1
     3    33     1    1
     4     1     2   ar
     5     2     3   ar
     6     3     8    1
     7     8     9   ar
     8     9    10   ar
     9    10    11   ar
    10    11    14    1
    11    14    15    1
    12    15    16    1
    13    16    17    1
    14    17    18    1
    15    11    12   ar
    16    12    13   ar
    17     3     4   ar
    18     4     5   ar
    19     5    19    1
    20    19    20    2
    21    19    21   am
    22    21    23    1
    23    23    24    1
    24    24    25    1
    25    25    26    1
    26    25    27    2
    27    27    28    1
    28    28    29    1
    29    28    30    2
    30    30    31    1
    31    31    32    2
    32     5     6   ar
    33     6     7    1
    34    34    33    1
    35    34    35    1
    36    35    36    1
    37    36    37    1
    38    37    40    1
    39    40    41    1
    40    40    42    1
    41    37    38    1
    42    38    39    1
    43     6     1   ar
    44    39    34    1
    45    13     8   ar
    46    31    24    1
    47    21    22    1
@<TRIPOS>MOLECULE
*****
 44 47 0 0 0
SMALL
GASTEIGER

@<TRIPOS>ATOM
      1 C           1.4652    1.0594   30.4566 C.ar    1  UNL1        0.0439
      2 C           2.4698   -0.0544   30.4590 C.ar    1  UNL1        0.0142
      3 C           3.5010   -0.1320   31.5456 C.ar    1  UNL1        0.0014
      4 C           3.5275    0.9043   32.6297 C.ar    1  UNL1        0.0043
      5 C           2.5230    2.0182   32.6273 C.ar    1  UNL1        0.0506
      6 C           1.4918    2.0957   31.5408 C.ar    1  UNL1       -0.0042
      7 C           0.4871    3.2096   31.5383 C.3     1  UNL1        0.0325
      8 C           4.5057   -1.2459   31.5480 C.ar    1  UNL1        0.0002
      9 C           4.6462   -2.1265   32.7542 C.ar    1  UNL1        0.0031
     10 C           5.6508   -3.2403   32.7567 C.ar    1  UNL1        0.0369
     11 C           6.5149   -3.4736   31.5529 C.ar    1  UNL1        0.1387
     12 C           6.3744   -2.5931   30.3468 C.ar    1  UNL1        0.0369
     13 C           5.3697   -1.4792   30.3443 C.ar    1  UNL1        0.0031
     14 O           7.5195   -4.5875   31.5554 O.3     1  UNL1       -0.4727
     15 C           8.7870   -4.4562   30.7639 C.3     1  UNL1        0.2373
     16 C           9.0345   -5.3559   29.5896 C.3     1  UNL1        0.1894
     17 O           8.0781   -6.4703   29.2839 O.3     1  UNL1       -0.3471
     18 C           8.0472   -7.0771   27.9124 C.3     1  UNL1        0.1743
     19 C           2.5495    3.0545   33.7115 C.2     1  UNL1        0.2456
     20 O           3.1551    4.4011   33.4472 O.2     1  UNL1       -0.2702
     21 N           1.9705    2.7442   35.0599 N.am    1  UNL1       -0.3001
     22 H           1.5730    1.8603   35.2334 H       1  UNL1        0.1498
     23 C           1.9970    3.7805   36.1441 C.3     1  UNL1        0.1029
     24 C           2.9861    3.6668   37.2662 C.3     1  UNL1        0.1164
     25 C           4.0327    4.7249   37.4535 C.2     1  UNL1       -0.0330
     26 C           4.0903    5.8966   36.5187 C.3     1  UNL1        0.0269
     27 C           5.0217    4.6112   38.5755 C.2     1  UNL1        0.0042
     28 C           4.9641    3.4395   39.5103 C.2     1  UNL1        0.0508
     29 C           5.9530    3.3258   40.6323 C.3     1  UNL1        0.0493
     30 N           3.9174    2.3814   39.3229 N.am    1  UNL1       -0.1833
     31 C           2.9285    2.4951   38.2009 C.2     1  UNL1        0.2503
     32 O           1.8818    1.4370   38.0135 O.2     1  UNL1       -0.2726
     33 N           0.4340    1.1371   29.3700 N.pl3   1  UNL1       -0.3094
     34 C           0.7562    1.8279   28.0782 C.3     1  UNL1        0.0729
     35 C           0.2719    3.2265   27.8345 C.3     1  UNL1        0.0211
     36 C           0.5942    3.9173   26.5426 C.3     1  UNL1        0.0177
     37 C           1.4007    3.2096   25.4944 C.3     1  UNL1        0.0577
     38 C           1.8850    1.8110   25.7381 C.3     1  UNL1        0.0177
     39 C           1.5628    1.1202   27.0300 C.3     1  UNL1        0.0211
     40 N           1.7229    3.9004   24.2026 N.3     1  UNL1       -0.2716
     41 C           1.3997    5.3549   24.0289 C.3     1  UNL1        0.0896
     42 C           2.3684    3.1369   23.0844 C.3     1  UNL1        0.0896
     43 C          -1.3834   -0.5865   28.6798 C.3     1  UNL1        0.0232
     44 C          -0.9194    0.5238   29.5753 C.3     1  UNL1        0.0908
@<TRIPOS>BOND
     1    43    44    1
     2    44    33    1
     3    33     1    1
     4     1     2   ar
     5     2     3   ar
     6     3     8    1
     7     8     9   ar
     8     9    10   ar
     9    10    11   ar
    10    11    14    1
    11    14    15    1
    12    15    16    1
    13    16    17    1
    14    17    18    1
    15    11    12   ar
    16    12    13   ar
    17     3     4   ar
    18     4     5   ar
    19     5    19    1
    20    19    20    2
    21    19    21   am
    22    21    23    1
    23    23    24    1
    24    24    25    1
    25    25    26    1
    26    25    27    2
    27    27    28    1
    28    28    29    1
    29    28    30    2
    30    30    31    1
    31    31    32    2
    32     5     6   ar
    33     6     7    1
    34    34    33    1
    35    34    35    1
    36    35    36    1
    37    36    37    1
    38    37    40    1
    39    40    41    1
    40    40    42    1
    41    37    38    1
    42    38    39    1
    43     6     1   ar
    44    39    34    1
    45    13     8   ar
    46    31    24    1
    47    21    22    1
@<TRIPOS>MOLECULE
*****
 44 47 0 0 0
SMALL
GASTEIGER

@<TRIPOS>ATOM
      1 C           1.3918    2.4203   23.1025 C.ar    1  UNL1        0.0439
      2 C           1.7140    1.7511   24.4057 C.ar    1  UNL1        0.0142
      3 C           0.6989    1.7316   25.5098 C.ar    1  UNL1        0.0014
      4 C          -0.6383    2.3814   25.3108 C.ar    1  UNL1        0.0043
      5 C          -0.9605    3.0506   24.0076 C.ar    1  UNL1        0.0506
      6 C           0.0546    3.0701   22.9035 C.ar    1  UNL1       -0.0042
      7 C          -0.2675    3.7393   21.6002 C.3     1  UNL1        0.0325
      8 C           1.0211    1.0624   26.8131 C.ar    1  UNL1        0.0002
      9 C           2.4422    0.7195   27.1490 C.ar    1  UNL1        0.0031
     10 C           2.7644    0.0503   28.4521 C.ar    1  UNL1        0.0369
     11 C           1.6654   -0.2761   29.4195 C.ar    1  UNL1        0.1387
     12 C           0.2443    0.0668   29.0836 C.ar    1  UNL1        0.0369
     13 C          -0.0779    0.7360   27.7804 C.ar    1  UNL1        0.0031
     14 O           1.9876   -0.9453   30.7227 O.3     1  UNL1       -0.4727
     15 C           3.3581   -0.8094   31.3169 C.3     1  UNL1        0.2373
     16 C           3.6830    0.3645   32.1923 C.3     1  UNL1        0.1894
     17 O           2.5831    1.1020   32.8967 O.3     1  UNL1       -0.3471
     18 C           1.9371    2.2879   32.2436 C.3     1  UNL1        0.1743
     19 C          -2.2977    3.7004   23.8086 C.2     1  UNL1        0.2456
     20 O          -2.5039    5.1307   24.2108 O.2     1  UNL1       -0.2702
     21 N          -3.4288    2.9199   23.2075 N.am    1  UNL1       -0.3001
     22 H          -3.2935    1.9811   22.9435 H       1  UNL1        0.1498
     23 C          -4.7660    3.5697   23.0084 C.3     1  UNL1        0.1029
     24 C          -5.2083    3.9692   21.6319 C.3     1  UNL1        0.1164
     25 C          -6.4247    4.8289   21.4550 C.2     1  UNL1       -0.0330
     26 C          -7.1989    5.2889   22.6545 C.3     1  UNL1        0.0269
     27 C          -6.8670    5.2284   20.0784 C.2     1  UNL1        0.0042
     28 C          -6.0928    4.7683   18.8789 C.2     1  UNL1        0.0508
     29 C          -6.5350    5.1679   17.5024 C.3     1  UNL1        0.0493
     30 N          -4.8763    3.9087   19.0559 N.am    1  UNL1       -0.1833
     31 C          -4.4341    3.5092   20.4323 C.2     1  UNL1        0.2503
     32 O          -3.2176    2.6495   20.6093 O.2     1  UNL1       -0.2726
     33 N           2.4069    2.4398   21.9982 N.pl3   1  UNL1       -0.3094
     34 C           2.8854    1.1518   21.3965 C.3     1  UNL1        0.0729
     35 C           4.3380    0.7846   21.4679 C.3     1  UNL1        0.0211
     36 C           4.8164   -0.5034   20.8662 C.3     1  UNL1        0.0177
     37 C           3.8423   -1.4242   20.1931 C.3     1  UNL1        0.0577
     38 C           2.3897   -1.0571   20.1217 C.3     1  UNL1        0.0177
     39 C           1.9112    0.2309   20.7234 C.3     1  UNL1        0.0211
     40 N           4.3208   -2.7122   19.5913 N.3     1  UNL1       -0.2716
     41 C           3.3540   -3.8346   19.3555 C.3     1  UNL1        0.0896
     42 C           5.7660   -2.8779   19.2254 C.3     1  UNL1        0.0896
     43 C           3.4683    4.7648   22.4649 C.3     1  UNL1        0.0232
     44 C           2.9435    3.7473   21.4958 C.3     1  UNL1        0.0908
@<TRIPOS>BOND
     1    43    44    1
     2    44    33    1
     3    33     1    1
     4     1     2   ar
     5     2     3   ar
     6     3     8    1
     7     8     9   ar
     8     9    10   ar
     9    10    11   ar
    10    11    14    1
    11    14    15    1
    12    15    16    1
    13    16    17    1
    14    17    18    1
    15    11    12   ar
    16    12    13   ar
    17     3     4   ar
    18     4     5   ar
    19     5    19    1
    20    19    20    2
    21    19    21   am
    22    21    23    1
    23    23    24    1
    24    24    25    1
    25    25    26    1
    26    25    27    2
    27    27    28    1
    28    28    29    1
    29    28    30    2
    30    30    31    1
    31    31    32    2
    32     5     6   ar
    33     6     7    1
    34    34    33    1
    35    34    35    1
    36    35    36    1
    37    36    37    1
    38    37    40    1
    39    40    41    1
    40    40    42    1
    41    37    38    1
    42    38    39    1
    43     6     1   ar
    44    39    34    1
    45    13     8   ar
    46    31    24    1
    47    21    22    1
