@<TRIPOS>MOLECULE
*****
 32 35 0 0 0
SMALL
GASTEIGER

@<TRIPOS>ATOM
      1 C          -9.8432  -16.4844   23.6456 C.3     1  UNL1        0.0071
      2 C         -10.1068  -17.9322   23.9362 C.3     1  UNL1        0.0177
      3 C         -10.6212  -18.8331   22.8528 C.3     1  UNL1        0.0721
      4 N         -10.8720  -18.2863   21.4788 N.3     1  UNL1       -0.2724
      5 C         -10.6084  -16.8385   21.1881 C.3     1  UNL1        0.0721
      6 C         -10.0941  -15.9376   22.2715 C.3     1  UNL1        0.0177
      7 C          -9.3289  -15.5835   24.7290 C.3     1  UNL1        0.0270
      8 C          -5.4061  -15.4227   24.1492 C.ar    1  UNL1        0.1384
      9 C          -4.9126  -15.3633   25.5644 C.ar    1  UNL1        0.0374
     10 C          -5.8911  -15.3774   26.7011 C.ar    1  UNL1        0.0095
     11 C          -7.3632  -15.4508   26.4226 C.ar    1  UNL1        0.0308
     12 BR         -8.3418  -15.4649   27.5595 Br      1  UNL1       -0.0493
     13 C          -7.8568  -15.5101   25.0074 C.ar    1  UNL1       -0.0130
     14 C          -6.8782  -15.4961   23.8707 C.ar    1  UNL1        0.0331
     15 O          -4.4276  -15.4086   23.0124 O.3     1  UNL1       -0.4728
     16 C          -3.2754  -16.3690   23.0026 C.3     1  UNL1        0.2373
     17 C          -2.2605  -16.3118   21.8996 C.3     1  UNL1        0.1894
     18 C          -1.7563  -17.5955   19.6978 C.3     1  UNL1        0.1743
     19 O          -2.6483  -16.6975   20.5029 O.3     1  UNL1       -0.3471
     20 C         -11.3864  -19.1872   20.3954 C.3     1  UNL1        0.0768
     21 C         -10.4987  -19.5592   19.2449 C.3     1  UNL1        0.0446
     22 C          -9.0563  -19.8919   19.4876 C.ar    1  UNL1       -0.0070
     23 C          -8.3001  -19.1976   20.5812 C.ar    1  UNL1        0.0367
     24 C          -6.8577  -19.5303   20.8238 C.ar    1  UNL1        0.1721
     25 C          -6.1715  -20.5574   19.9728 C.ar    1  UNL1        0.1732
     26 C          -6.9278  -21.2518   18.8791 C.ar    1  UNL1        0.0511
     27 C          -8.3701  -20.9190   18.6365 C.ar    1  UNL1        0.0570
     28 CL         -9.1263  -21.6134   17.5429 Cl      1  UNL1       -0.0825
     29 O          -4.7292  -20.8901   20.2154 O.3     1  UNL1       -0.4683
     30 C          -3.9730  -20.1958   21.3090 C.3     1  UNL1        0.2526
     31 C          -4.6592  -19.1687   22.1601 C.3     1  UNL1        0.2526
     32 O          -6.1016  -18.8359   21.9175 O.3     1  UNL1       -0.4684
@<TRIPOS>BOND
     1    18    19    1
     2    19    17    1
     3    17    16    1
     4    16    15    1
     5    15     8    1
     6     8     9   ar
     7     9    10   ar
     8    10    11   ar
     9    11    12    1
    10    11    13   ar
    11    13     7    1
    12     7     1    1
    13     1     2    1
    14     2     3    1
    15     3     4    1
    16     4    20    1
    17    20    21    1
    18    21    22    1
    19    22    23   ar
    20    23    24   ar
    21    24    25   ar
    22    25    26   ar
    23    26    27   ar
    24    27    28    1
    25    25    29    1
    26    29    30    1
    27    30    31    1
    28    31    32    1
    29     4     5    1
    30     5     6    1
    31    13    14   ar
    32    14     8   ar
    33     6     1    1
    34    27    22   ar
    35    32    24    1
@<TRIPOS>MOLECULE
*****
 32 35 0 0 0
SMALL
GASTEIGER

@<TRIPOS>ATOM
      1 C          -3.6386  -16.8894   23.6857 C.3     1  UNL1        0.0071
      2 C          -3.9168  -17.4221   25.0600 C.3     1  UNL1        0.0177
      3 C          -5.0852  -16.9019   25.8437 C.3     1  UNL1        0.0721
      4 N          -5.9754  -15.8490   25.2532 N.3     1  UNL1       -0.2724
      5 C          -5.6973  -15.3162   23.8788 C.3     1  UNL1        0.0721
      6 C          -4.5289  -15.8364   23.0951 C.3     1  UNL1        0.0177
      7 C          -2.4703  -17.4096   22.9019 C.3     1  UNL1        0.0270
      8 C          -3.9542  -19.9227   20.2127 C.ar    1  UNL1        0.1384
      9 C          -3.1504  -19.5499   19.0024 C.ar    1  UNL1        0.0374
     10 C          -2.1199  -18.4636   19.0919 C.ar    1  UNL1        0.0095
     11 C          -1.8932  -17.7502   20.3918 C.ar    1  UNL1        0.0308
     12 BR         -0.8626  -16.6639   20.4813 Br      1  UNL1       -0.0493
     13 C          -2.6970  -18.1230   21.6021 C.ar    1  UNL1       -0.0130
     14 C          -3.7275  -19.2093   21.5125 C.ar    1  UNL1        0.0331
     15 O          -4.9848  -21.0090   20.1231 O.3     1  UNL1       -0.4728
     16 C          -6.4368  -20.6825   20.3102 C.3     1  UNL1        0.2373
     17 C          -6.9605  -19.3356   19.9083 C.3     1  UNL1        0.1894
     18 C          -6.7722  -18.4882   22.3571 C.3     1  UNL1        0.1743
     19 O          -6.9636  -18.2068   20.8962 O.3     1  UNL1       -0.3471
     20 C          -7.1438  -15.3288   26.0369 C.3     1  UNL1        0.0768
     21 C          -8.4787  -15.1640   25.3730 C.3     1  UNL1        0.0446
     22 C          -9.0744  -16.2995   24.5944 C.ar    1  UNL1       -0.0070
     23 C          -9.3020  -16.1588   23.1185 C.ar    1  UNL1        0.0367
     24 C          -9.8977  -17.2942   22.3399 C.ar    1  UNL1        0.1721
     25 C         -10.2656  -18.5703   23.0373 C.ar    1  UNL1        0.1732
     26 C         -10.0379  -18.7109   24.5133 C.ar    1  UNL1        0.0511
     27 C          -9.4423  -17.5755   25.2918 C.ar    1  UNL1        0.0570
     28 CL         -9.2146  -17.7161   26.7678 Cl      1  UNL1       -0.0825
     29 O         -10.8612  -19.7057   22.2588 O.3     1  UNL1       -0.4683
     30 C         -11.0889  -19.5650   20.7829 C.3     1  UNL1        0.2526
     31 C         -10.7210  -18.2890   20.0855 C.3     1  UNL1        0.2526
     32 O         -10.1254  -17.1536   20.8640 O.3     1  UNL1       -0.4684
@<TRIPOS>BOND
     1    18    19    1
     2    19    17    1
     3    17    16    1
     4    16    15    1
     5    15     8    1
     6     8     9   ar
     7     9    10   ar
     8    10    11   ar
     9    11    12    1
    10    11    13   ar
    11    13     7    1
    12     7     1    1
    13     1     2    1
    14     2     3    1
    15     3     4    1
    16     4    20    1
    17    20    21    1
    18    21    22    1
    19    22    23   ar
    20    23    24   ar
    21    24    25   ar
    22    25    26   ar
    23    26    27   ar
    24    27    28    1
    25    25    29    1
    26    29    30    1
    27    30    31    1
    28    31    32    1
    29     4     5    1
    30     5     6    1
    31    13    14   ar
    32    14     8   ar
    33     6     1    1
    34    27    22   ar
    35    32    24    1
@<TRIPOS>MOLECULE
*****
 32 35 0 0 0
SMALL
GASTEIGER

@<TRIPOS>ATOM
      1 C          -6.7240  -19.4817   20.2723 C.3     1  UNL1        0.0071
      2 C          -7.6749  -20.1451   19.3207 C.3     1  UNL1        0.0177
      3 C          -9.1121  -19.7176   19.2766 C.3     1  UNL1        0.0721
      4 N          -9.5982  -18.6268   20.1842 N.3     1  UNL1       -0.2724
      5 C          -8.6473  -17.9634   21.1358 C.3     1  UNL1        0.0721
      6 C          -7.2102  -18.3908   21.1799 C.3     1  UNL1        0.0177
      7 C          -5.2869  -19.9091   20.3164 C.3     1  UNL1        0.0270
      8 C          -3.5441  -18.0390   23.3520 C.ar    1  UNL1        0.1384
      9 C          -2.3011  -17.5219   22.6905 C.ar    1  UNL1        0.0374
     10 C          -2.0535  -17.8005   21.2376 C.ar    1  UNL1        0.0095
     11 C          -3.0487  -18.5963   20.4462 C.ar    1  UNL1        0.0308
     12 BR         -2.8009  -18.8749   18.9933 Br      1  UNL1       -0.0493
     13 C          -4.2916  -19.1134   21.1078 C.ar    1  UNL1       -0.0130
     14 C          -4.5393  -18.8348   22.5607 C.ar    1  UNL1        0.0331
     15 O          -3.7918  -17.7604   24.8050 O.3     1  UNL1       -0.4728
     16 C          -4.6471  -16.5967   25.2103 C.3     1  UNL1        0.2373
     17 C          -5.1998  -15.6725   24.1661 C.3     1  UNL1        0.1894
     18 C          -7.2060  -14.9817   22.6669 C.3     1  UNL1        0.1743
     19 O          -6.4633  -16.0300   23.4411 O.3     1  UNL1       -0.3471
     20 C         -11.0353  -18.1993   20.1401 C.3     1  UNL1        0.0768
     21 C         -11.7704  -17.9072   21.4146 C.3     1  UNL1        0.0446
     22 C         -11.0329  -17.8996   22.7209 C.ar    1  UNL1       -0.0070
     23 C         -10.5269  -16.6069   23.2889 C.ar    1  UNL1        0.0367
     24 C          -9.7895  -16.5992   24.5952 C.ar    1  UNL1        0.1721
     25 C          -9.5581  -17.8844   25.3333 C.ar    1  UNL1        0.1732
     26 C         -10.0641  -19.1772   24.7651 C.ar    1  UNL1        0.0511
     27 C         -10.8015  -19.1848   23.4590 C.ar    1  UNL1        0.0570
     28 CL        -11.3075  -20.4776   22.8908 Cl      1  UNL1       -0.0825
     29 O          -8.8207  -17.8768   26.6394 O.3     1  UNL1       -0.4683
     30 C          -8.3147  -16.5841   27.2075 C.3     1  UNL1        0.2526
     31 C          -8.5461  -15.2989   26.4694 C.3     1  UNL1        0.2526
     32 O          -9.2835  -15.3065   25.1632 O.3     1  UNL1       -0.4684
@<TRIPOS>BOND
     1    18    19    1
     2    19    17    1
     3    17    16    1
     4    16    15    1
     5    15     8    1
     6     8     9   ar
     7     9    10   ar
     8    10    11   ar
     9    11    12    1
    10    11    13   ar
    11    13     7    1
    12     7     1    1
    13     1     2    1
    14     2     3    1
    15     3     4    1
    16     4    20    1
    17    20    21    1
    18    21    22    1
    19    22    23   ar
    20    23    24   ar
    21    24    25   ar
    22    25    26   ar
    23    26    27   ar
    24    27    28    1
    25    25    29    1
    26    29    30    1
    27    30    31    1
    28    31    32    1
    29     4     5    1
    30     5     6    1
    31    13    14   ar
    32    14     8   ar
    33     6     1    1
    34    27    22   ar
    35    32    24    1
@<TRIPOS>MOLECULE
*****
 32 35 0 0 0
SMALL
GASTEIGER

@<TRIPOS>ATOM
      1 C           6.8274   -3.9542   22.5474 C.3     1  UNL1        0.0071
      2 C           5.4836   -3.5318   23.0629 C.3     1  UNL1        0.0177
      3 C           4.3780   -3.2116   22.1010 C.3     1  UNL1        0.0721
      4 N           4.6162   -3.3139   20.6236 N.3     1  UNL1       -0.2724
      5 C           5.9600   -3.7362   20.1080 C.3     1  UNL1        0.0721
      6 C           7.0656   -4.0564   21.0699 C.3     1  UNL1        0.0177
      7 C           7.9329   -4.2743   23.5092 C.3     1  UNL1        0.0270
      8 C           6.8031   -5.9094   26.9443 C.ar    1  UNL1        0.1384
      9 C           7.2784   -7.3197   26.7568 C.ar    1  UNL1        0.0374
     10 C           7.9718   -7.7149   25.4868 C.ar    1  UNL1        0.0095
     11 C           8.1900   -6.6997   24.4043 C.ar    1  UNL1        0.0308
     12 BR          8.8834   -7.0950   23.1342 Br      1  UNL1       -0.0493
     13 C           7.7147   -5.2895   24.5917 C.ar    1  UNL1       -0.0130
     14 C           7.0213   -4.8943   25.8618 C.ar    1  UNL1        0.0331
     15 O           6.1097   -5.5142   28.2144 O.3     1  UNL1       -0.4728
     16 C           6.9015   -4.9514   29.3573 C.3     1  UNL1        0.2373
     17 C           7.0751   -5.7505   30.6148 C.3     1  UNL1        0.1894
     18 C           6.4959   -3.6768   32.0690 C.3     1  UNL1        0.1743
     19 O           6.6920   -5.1582   31.9386 O.3     1  UNL1       -0.3471
     20 C           3.5107   -2.9937   19.6617 C.3     1  UNL1        0.0768
     21 C           3.6947   -1.9098   18.6413 C.3     1  UNL1        0.0446
     22 C           3.0555   -0.5686   18.8482 C.ar    1  UNL1       -0.0070
     23 C           1.7794   -0.4584   19.6288 C.ar    1  UNL1        0.0367
     24 C           1.1402    0.8828   19.8356 C.ar    1  UNL1        0.1721
     25 C           1.7771    2.1137   19.2618 C.ar    1  UNL1        0.1732
     26 C           3.0533    2.0034   18.4812 C.ar    1  UNL1        0.0511
     27 C           3.6924    0.6623   18.2744 C.ar    1  UNL1        0.0570
     28 CL          4.9686    0.5520   17.4937 Cl      1  UNL1       -0.0825
     29 O           1.1380    3.4548   19.4686 O.3     1  UNL1       -0.4683
     30 C          -0.1381    3.5651   20.2492 C.3     1  UNL1        0.2526
     31 C          -0.7751    2.3342   20.8230 C.3     1  UNL1        0.2526
     32 O          -0.1359    0.9931   20.6162 O.3     1  UNL1       -0.4684
@<TRIPOS>BOND
     1    18    19    1
     2    19    17    1
     3    17    16    1
     4    16    15    1
     5    15     8    1
     6     8     9   ar
     7     9    10   ar
     8    10    11   ar
     9    11    12    1
    10    11    13   ar
    11    13     7    1
    12     7     1    1
    13     1     2    1
    14     2     3    1
    15     3     4    1
    16     4    20    1
    17    20    21    1
    18    21    22    1
    19    22    23   ar
    20    23    24   ar
    21    24    25   ar
    22    25    26   ar
    23    26    27   ar
    24    27    28    1
    25    25    29    1
    26    29    30    1
    27    30    31    1
    28    31    32    1
    29     4     5    1
    30     5     6    1
    31    13    14   ar
    32    14     8   ar
    33     6     1    1
    34    27    22   ar
    35    32    24    1
@<TRIPOS>MOLECULE
*****
 32 35 0 0 0
SMALL
GASTEIGER

@<TRIPOS>ATOM
      1 C           4.3177   -2.9858   20.6251 C.3     1  UNL1        0.0071
      2 C           5.6767   -3.5135   20.2720 C.3     1  UNL1        0.0177
      3 C           6.6769   -3.7937   21.3542 C.3     1  UNL1        0.0721
      4 N           6.3181   -3.5463   22.7895 N.3     1  UNL1       -0.2724
      5 C           4.9591   -3.0186   23.1426 C.3     1  UNL1        0.0721
      6 C           3.9589   -2.7384   22.0604 C.3     1  UNL1        0.0177
      7 C           3.3175   -2.7056   19.5430 C.3     1  UNL1        0.0270
      8 C           0.9879    0.4683   20.0417 C.ar    1  UNL1        0.1384
      9 C           1.6095    1.4312   19.0740 C.ar    1  UNL1        0.0374
     10 C           2.8005    1.0151   18.2627 C.ar    1  UNL1        0.0095
     11 C           3.3699   -0.3638   18.4190 C.ar    1  UNL1        0.0308
     12 BR          4.5609   -0.7799   17.6076 Br      1  UNL1       -0.0493
     13 C           2.7482   -1.3267   19.3866 C.ar    1  UNL1       -0.0130
     14 C           1.5572   -0.9106   20.1980 C.ar    1  UNL1        0.0331
     15 O          -0.2032    0.8844   20.8531 O.3     1  UNL1       -0.4728
     16 C          -0.3589    2.3146   21.2777 C.3     1  UNL1        0.2373
     17 C          -1.5934    3.0787   20.9007 C.3     1  UNL1        0.1894
     18 C          -3.0652    4.0242   18.9797 C.3     1  UNL1        0.1743
     19 O          -1.7134    3.6822   19.5327 O.3     1  UNL1       -0.3471
     20 C           7.3183   -3.8265   23.8716 C.3     1  UNL1        0.0768
     21 C           7.4735   -5.2190   24.4072 C.3     1  UNL1        0.0446
     22 C           7.4830   -5.4561   25.8883 C.ar    1  UNL1       -0.0070
     23 C           7.0207   -4.3783   26.8234 C.ar    1  UNL1        0.0367
     24 C           7.0302   -4.6155   28.3046 C.ar    1  UNL1        0.1721
     25 C           7.5022   -5.9305   28.8505 C.ar    1  UNL1        0.1732
     26 C           7.9645   -7.0083   27.9153 C.ar    1  UNL1        0.0511
     27 C           7.9550   -6.7711   26.4343 C.ar    1  UNL1        0.0570
     28 CL          8.4174   -7.8490   25.4991 Cl      1  UNL1       -0.0825
     29 O           7.5117   -6.1677   30.3316 O.3     1  UNL1       -0.4683
     30 C           7.0493   -5.0899   31.2667 C.3     1  UNL1        0.2526
     31 C           6.5774   -3.7749   30.7208 C.3     1  UNL1        0.2526
     32 O           6.5678   -3.5377   29.2397 O.3     1  UNL1       -0.4684
@<TRIPOS>BOND
     1    18    19    1
     2    19    17    1
     3    17    16    1
     4    16    15    1
     5    15     8    1
     6     8     9   ar
     7     9    10   ar
     8    10    11   ar
     9    11    12    1
    10    11    13   ar
    11    13     7    1
    12     7     1    1
    13     1     2    1
    14     2     3    1
    15     3     4    1
    16     4    20    1
    17    20    21    1
    18    21    22    1
    19    22    23   ar
    20    23    24   ar
    21    24    25   ar
    22    25    26   ar
    23    26    27   ar
    24    27    28    1
    25    25    29    1
    26    29    30    1
    27    30    31    1
    28    31    32    1
    29     4     5    1
    30     5     6    1
    31    13    14   ar
    32    14     8   ar
    33     6     1    1
    34    27    22   ar
    35    32    24    1
@<TRIPOS>MOLECULE
*****
 32 35 0 0 0
SMALL
GASTEIGER

@<TRIPOS>ATOM
      1 C         -13.0914   -2.8659   19.4079 C.3     1  UNL1        0.0071
      2 C         -14.5541   -2.5640   19.5464 C.3     1  UNL1        0.0177
      3 C         -15.0808   -1.2130   19.1620 C.3     1  UNL1        0.0721
      4 N         -14.1446   -0.1641   18.6393 N.3     1  UNL1       -0.2724
      5 C         -12.6819   -0.4660   18.5009 C.3     1  UNL1        0.0721
      6 C         -12.1552   -1.8169   18.8852 C.3     1  UNL1        0.0177
      7 C         -12.5648   -4.2168   19.7923 C.3     1  UNL1        0.0270
      8 C         -13.2721   -6.9533   17.0063 C.ar    1  UNL1        0.1384
      9 C         -11.8733   -7.3447   16.6319 C.ar    1  UNL1        0.0374
     10 C         -10.7051   -6.6935   17.3109 C.ar    1  UNL1        0.0095
     11 C         -10.9356   -5.6509   18.3644 C.ar    1  UNL1        0.0308
     12 BR         -9.7672   -4.9997   19.0434 Br      1  UNL1       -0.0493
     13 C         -12.3343   -5.2594   18.7388 C.ar    1  UNL1       -0.0130
     14 C         -13.5025   -5.9106   18.0598 C.ar    1  UNL1        0.0331
     15 O         -14.4404   -7.6044   16.3273 O.3     1  UNL1       -0.4728
     16 C         -15.4406   -8.3785   17.1338 C.3     1  UNL1        0.2373
     17 C         -14.9726   -9.3708   18.1567 C.3     1  UNL1        0.1894
     18 C         -16.9664  -10.9857   18.5654 C.3     1  UNL1        0.1743
     19 O         -15.5379  -10.7602   18.1673 O.3     1  UNL1       -0.3471
     20 C         -14.6713    1.1868   18.2550 C.3     1  UNL1        0.0768
     21 C         -16.0517    1.6000   18.6716 C.3     1  UNL1        0.0446
     22 C         -16.2782    2.1979   20.0285 C.ar    1  UNL1       -0.0070
     23 C         -15.6195    3.4944   20.3962 C.ar    1  UNL1        0.0367
     24 C         -15.8460    4.0923   21.7532 C.ar    1  UNL1        0.1721
     25 C         -16.7312    3.3938   22.7424 C.ar    1  UNL1        0.1732
     26 C         -17.3899    2.0972   22.3746 C.ar    1  UNL1        0.0511
     27 C         -17.1634    1.4993   21.0177 C.ar    1  UNL1        0.0570
     28 CL        -17.8221    0.2028   20.6499 Cl      1  UNL1       -0.0825
     29 O         -16.9577    3.9916   24.0992 O.3     1  UNL1       -0.4683
     30 C         -16.2990    5.2881   24.4670 C.3     1  UNL1        0.2526
     31 C         -15.4138    5.9867   23.4778 C.3     1  UNL1        0.2526
     32 O         -15.1873    5.3888   22.1209 O.3     1  UNL1       -0.4684
@<TRIPOS>BOND
     1    18    19    1
     2    19    17    1
     3    17    16    1
     4    16    15    1
     5    15     8    1
     6     8     9   ar
     7     9    10   ar
     8    10    11   ar
     9    11    12    1
    10    11    13   ar
    11    13     7    1
    12     7     1    1
    13     1     2    1
    14     2     3    1
    15     3     4    1
    16     4    20    1
    17    20    21    1
    18    21    22    1
    19    22    23   ar
    20    23    24   ar
    21    24    25   ar
    22    25    26   ar
    23    26    27   ar
    24    27    28    1
    25    25    29    1
    26    29    30    1
    27    30    31    1
    28    31    32    1
    29     4     5    1
    30     5     6    1
    31    13    14   ar
    32    14     8   ar
    33     6     1    1
    34    27    22   ar
    35    32    24    1
@<TRIPOS>MOLECULE
*****
 32 35 0 0 0
SMALL
GASTEIGER

@<TRIPOS>ATOM
      1 C           4.5150   -3.1493   20.4804 C.3     1  UNL1        0.0071
      2 C           5.9291   -3.4578   20.0863 C.3     1  UNL1        0.0177
      3 C           6.9448   -3.7924   21.1382 C.3     1  UNL1        0.0721
      4 N           6.5465   -3.8185   22.5840 N.3     1  UNL1       -0.2724
      5 C           5.1324   -3.5101   22.9781 C.3     1  UNL1        0.0721
      6 C           4.1167   -3.1755   21.9263 C.3     1  UNL1        0.0177
      7 C           3.4993   -2.8147   19.4286 C.3     1  UNL1        0.0270
      8 C           1.2255    0.3122   20.3240 C.ar    1  UNL1        0.1384
      9 C           1.6775    1.2976   19.2874 C.ar    1  UNL1        0.0374
     10 C           2.7368    0.9122   18.2978 C.ar    1  UNL1        0.0095
     11 C           3.3441   -0.4586   18.3449 C.ar    1  UNL1        0.0308
     12 BR          4.4034   -0.8439   17.3552 Br      1  UNL1       -0.0493
     13 C           2.8920   -1.4439   19.3815 C.ar    1  UNL1       -0.0130
     14 C           1.8327   -1.0585   20.3711 C.ar    1  UNL1        0.0331
     15 O           0.1661    0.6976   21.3137 O.3     1  UNL1       -0.4728
     16 C           0.5510    1.3501   22.6083 C.3     1  UNL1        0.2373
     17 C           1.9292    1.1535   23.1667 C.3     1  UNL1        0.1894
     18 C           3.3872   -0.1972   24.8400 C.3     1  UNL1        0.1743
     19 O           2.2995   -0.1509   23.8080 O.3     1  UNL1       -0.3471
     20 C           7.5622   -4.1532   23.6358 C.3     1  UNL1        0.0768
     21 C           7.5772   -5.5186   24.2565 C.3     1  UNL1        0.0446
     22 C           7.5706   -5.6639   25.7495 C.ar    1  UNL1       -0.0070
     23 C           7.0636   -4.5446   26.6097 C.ar    1  UNL1        0.0367
     24 C           7.0570   -4.6899   28.1027 C.ar    1  UNL1        0.1721
     25 C           7.5574   -5.9545   28.7354 C.ar    1  UNL1        0.1732
     26 C           8.0645   -7.0738   27.8751 C.ar    1  UNL1        0.0511
     27 C           8.0711   -6.9285   26.3822 C.ar    1  UNL1        0.0570
     28 CL          8.5781   -8.0479   25.5219 Cl      1  UNL1       -0.0825
     29 O           7.5508   -6.0998   30.2283 O.3     1  UNL1       -0.4683
     30 C           7.0438   -4.9805   31.0885 C.3     1  UNL1        0.2526
     31 C           6.5433   -3.7159   30.4558 C.3     1  UNL1        0.2526
     32 O           6.5499   -3.5705   28.9629 O.3     1  UNL1       -0.4684
@<TRIPOS>BOND
     1    18    19    1
     2    19    17    1
     3    17    16    1
     4    16    15    1
     5    15     8    1
     6     8     9   ar
     7     9    10   ar
     8    10    11   ar
     9    11    12    1
    10    11    13   ar
    11    13     7    1
    12     7     1    1
    13     1     2    1
    14     2     3    1
    15     3     4    1
    16     4    20    1
    17    20    21    1
    18    21    22    1
    19    22    23   ar
    20    23    24   ar
    21    24    25   ar
    22    25    26   ar
    23    26    27   ar
    24    27    28    1
    25    25    29    1
    26    29    30    1
    27    30    31    1
    28    31    32    1
    29     4     5    1
    30     5     6    1
    31    13    14   ar
    32    14     8   ar
    33     6     1    1
    34    27    22   ar
    35    32    24    1
@<TRIPOS>MOLECULE
*****
 32 35 0 0 0
SMALL
GASTEIGER

@<TRIPOS>ATOM
      1 C           6.8764   -3.8809   22.4732 C.3     1  UNL1        0.0071
      2 C           5.4960   -3.5985   22.9879 C.3     1  UNL1        0.0177
      3 C           4.3953   -3.2499   22.0303 C.3     1  UNL1        0.0721
      4 N           4.6749   -3.1836   20.5581 N.3     1  UNL1       -0.2724
      5 C           6.0553   -3.4659   20.0434 C.3     1  UNL1        0.0721
      6 C           7.1560   -3.8145   21.0009 C.3     1  UNL1        0.0177
      7 C           7.9771   -4.2295   23.4307 C.3     1  UNL1        0.0270
      8 C           6.8460   -5.9990   26.7981 C.ar    1  UNL1        0.1384
      9 C           7.3208   -7.4009   26.5551 C.ar    1  UNL1        0.0374
     10 C           8.0144   -7.7457   25.2706 C.ar    1  UNL1        0.0095
     11 C           8.2332   -6.6886   24.2291 C.ar    1  UNL1        0.0308
     12 BR          8.9268   -7.0334   22.9446 Br      1  UNL1       -0.0493
     13 C           7.7583   -5.2866   24.4722 C.ar    1  UNL1       -0.0130
     14 C           7.0647   -4.9419   25.7567 C.ar    1  UNL1        0.0331
     15 O           6.1524   -5.6541   28.0827 O.3     1  UNL1       -0.4728
     16 C           6.9228   -5.0255   29.2057 C.3     1  UNL1        0.2373
     17 C           6.8633   -5.6205   30.5814 C.3     1  UNL1        0.1894
     18 C           6.5109   -3.5894   32.1627 C.3     1  UNL1        0.1743
     19 O           7.2901   -4.8091   31.7686 O.3     1  UNL1       -0.3471
     20 C           3.5742   -2.8349   19.6006 C.3     1  UNL1        0.0768
     21 C           2.6066   -1.7393   19.9370 C.3     1  UNL1        0.0446
     22 C           2.8347   -0.3511   19.4163 C.ar    1  UNL1       -0.0070
     23 C           4.1718    0.0279   18.8519 C.ar    1  UNL1        0.0367
     24 C           4.3999    1.4161   18.3312 C.ar    1  UNL1        0.1721
     25 C           3.2909    2.4252   18.3750 C.ar    1  UNL1        0.1732
     26 C           1.9538    2.0461   18.9395 C.ar    1  UNL1        0.0511
     27 C           1.7257    0.6580   19.4601 C.ar    1  UNL1        0.0570
     28 CL          0.3886    0.2789   20.0245 Cl      1  UNL1       -0.0825
     29 O           3.5190    3.8133   17.8544 O.3     1  UNL1       -0.4683
     30 C           4.8561    4.1923   17.2900 C.3     1  UNL1        0.2526
     31 C           5.9650    3.1832   17.2462 C.3     1  UNL1        0.2526
     32 O           5.7370    1.7951   17.7668 O.3     1  UNL1       -0.4684
@<TRIPOS>BOND
     1    18    19    1
     2    19    17    1
     3    17    16    1
     4    16    15    1
     5    15     8    1
     6     8     9   ar
     7     9    10   ar
     8    10    11   ar
     9    11    12    1
    10    11    13   ar
    11    13     7    1
    12     7     1    1
    13     1     2    1
    14     2     3    1
    15     3     4    1
    16     4    20    1
    17    20    21    1
    18    21    22    1
    19    22    23   ar
    20    23    24   ar
    21    24    25   ar
    22    25    26   ar
    23    26    27   ar
    24    27    28    1
    25    25    29    1
    26    29    30    1
    27    30    31    1
    28    31    32    1
    29     4     5    1
    30     5     6    1
    31    13    14   ar
    32    14     8   ar
    33     6     1    1
    34    27    22   ar
    35    32    24    1
@<TRIPOS>MOLECULE
*****
 32 35 0 0 0
SMALL
GASTEIGER

@<TRIPOS>ATOM
      1 C           2.0535   -0.2233   19.6315 C.3     1  UNL1        0.0071
      2 C           0.7825   -0.2554   20.4276 C.3     1  UNL1        0.0177
      3 C          -0.0472    0.9867   20.5662 C.3     1  UNL1        0.0721
      4 N           0.3942    2.2607   19.9089 N.3     1  UNL1       -0.2724
      5 C           1.6651    2.2927   19.1129 C.3     1  UNL1        0.0721
      6 C           2.4948    1.0508   18.9742 C.3     1  UNL1        0.0177
      7 C           2.8831   -1.4652   19.4928 C.3     1  UNL1        0.0270
      8 C           4.4114   -1.8139   23.1388 C.ar    1  UNL1        0.1384
      9 C           4.9211   -3.2241   23.0988 C.ar    1  UNL1        0.0374
     10 C           4.7515   -4.0479   21.8569 C.ar    1  UNL1        0.0095
     11 C           4.0721   -3.4616   20.6549 C.ar    1  UNL1        0.0308
     12 BR          3.9025   -4.2856   19.4129 Br      1  UNL1       -0.0493
     13 C           3.5624   -2.0515   20.6948 C.ar    1  UNL1       -0.0130
     14 C           3.7320   -1.2276   21.9368 C.ar    1  UNL1        0.0331
     15 O           4.5810   -0.9900   24.3807 O.3     1  UNL1       -0.4728
     16 C           3.5251   -1.0128   25.4459 C.3     1  UNL1        0.2373
     17 C           3.9159   -1.1622   26.8863 C.3     1  UNL1        0.1894
     18 C           3.1607   -0.6594   29.3209 C.3     1  UNL1        0.1743
     19 O           2.8596   -1.1912   27.9509 O.3     1  UNL1       -0.3471
     20 C          -0.4355    3.5026   20.0476 C.3     1  UNL1        0.0768
     21 C          -1.9307    3.4024   20.1122 C.3     1  UNL1        0.0446
     22 C          -2.6301    3.4659   21.4377 C.ar    1  UNL1       -0.0070
     23 C          -1.8378    3.6714   22.6947 C.ar    1  UNL1        0.0367
     24 C          -2.5372    3.7349   24.0202 C.ar    1  UNL1        0.1721
     25 C          -4.0289    3.5930   24.0886 C.ar    1  UNL1        0.1732
     26 C          -4.8212    3.3875   22.8316 C.ar    1  UNL1        0.0511
     27 C          -4.1218    3.3240   21.5062 C.ar    1  UNL1        0.0570
     28 CL         -4.9141    3.1185   20.2491 Cl      1  UNL1       -0.0825
     29 O          -4.7283    3.6565   25.4141 O.3     1  UNL1       -0.4683
     30 C          -3.9360    3.8620   26.6710 C.3     1  UNL1        0.2526
     31 C          -2.4443    4.0040   26.6026 C.3     1  UNL1        0.2526
     32 O          -1.7449    3.9404   25.2772 O.3     1  UNL1       -0.4684
@<TRIPOS>BOND
     1    18    19    1
     2    19    17    1
     3    17    16    1
     4    16    15    1
     5    15     8    1
     6     8     9   ar
     7     9    10   ar
     8    10    11   ar
     9    11    12    1
    10    11    13   ar
    11    13     7    1
    12     7     1    1
    13     1     2    1
    14     2     3    1
    15     3     4    1
    16     4    20    1
    17    20    21    1
    18    21    22    1
    19    22    23   ar
    20    23    24   ar
    21    24    25   ar
    22    25    26   ar
    23    26    27   ar
    24    27    28    1
    25    25    29    1
    26    29    30    1
    27    30    31    1
    28    31    32    1
    29     4     5    1
    30     5     6    1
    31    13    14   ar
    32    14     8   ar
    33     6     1    1
    34    27    22   ar
    35    32    24    1
