@<TRIPOS>MOLECULE
*****
 33 34 0 0 0
SMALL
GASTEIGER

@<TRIPOS>ATOM
      1 N          -3.0019  -18.2427   22.1013 N.3     1  UNL1       -0.2711
      2 C          -4.0573  -18.4281   23.1509 C.3     1  UNL1        0.0746
      3 C          -4.7721  -17.2358   23.7145 C.3     1  UNL1        0.0460
      4 C          -4.4316  -15.8583   23.2285 C.3     1  UNL1        0.1090
      5 O          -4.4611  -14.3649   23.0903 O.3     1  UNL1       -0.3850
      6 C          -3.3762  -15.6729   22.1788 C.3     1  UNL1        0.0460
      7 C          -2.6614  -16.8651   21.6152 C.3     1  UNL1        0.0746
      8 H          -5.1240  -13.9972   23.6955 H       1  UNL1        0.2103
      9 C          -2.2871  -19.4349   21.5376 C.3     1  UNL1        0.0937
     10 C          -2.8304  -20.1311   20.3252 C.3     1  UNL1        0.1082
     11 N          -6.7619  -20.6664   20.2390 N.am    1  UNL1       -0.2921
     12 C          -5.4210  -19.9964   20.1813 C.2     1  UNL1        0.3007
     13 O          -5.3300  -18.5218   19.9222 O.2     1  UNL1       -0.2528
     14 N          -4.1712  -20.8011   20.3828 N.am    1  UNL1       -0.2875
     15 H          -6.8216  -21.6343   20.4091 H       1  UNL1        0.1508
     16 H          -4.2310  -21.7689   20.5529 H       1  UNL1        0.1510
     17 C          -8.0865  -20.3341   18.6158 C.3     1  UNL1        0.0197
     18 C          -8.0116  -19.8618   20.0375 C.3     1  UNL1        0.0583
     19 C          -7.9367  -19.3895   21.4592 C.3     1  UNL1        0.0197
     20 C          -9.2615  -19.0571   19.8361 C.3     1  UNL1        0.0197
     21 C          -5.4972  -15.5250   24.2302 C.3     1  UNL1        0.1166
     22 N          -6.8478  -16.1698   24.1310 N.am    1  UNL1       -0.2986
     23 C          -7.7896  -15.7731   23.0329 C.2     1  UNL1        0.2460
     24 O          -7.3805  -14.7316   22.0341 O.2     1  UNL1       -0.2701
     25 H          -7.1163  -16.8535   24.7866 H       1  UNL1        0.1498
     26 C          -9.1402  -16.4180   22.9337 C.ar    1  UNL1        0.0550
     27 C          -9.5578  -17.4436   23.9455 C.ar    1  UNL1        0.0160
     28 C         -10.9084  -18.0884   23.8463 C.ar    1  UNL1        0.0587
     29 CL        -11.3260  -19.1142   24.8581 Cl      1  UNL1       -0.0822
     30 C         -11.8416  -17.7077   22.7353 C.ar    1  UNL1        0.0228
     31 C         -11.4240  -16.6819   21.7235 C.ar    1  UNL1        0.0587
     32 CL        -12.3572  -16.3012   20.6126 Cl      1  UNL1       -0.0822
     33 C         -10.0734  -16.0371   21.8227 C.ar    1  UNL1        0.0160
@<TRIPOS>BOND
     1    17    18    1
     2    18    19    1
     3    18    20    1
     4    18    11    1
     5    11    12   am
     6    12    13    2
     7    12    14   am
     8    14    10    1
     9    10     9    1
    10     9     1    1
    11     1     2    1
    12     2     3    1
    13     3     4    1
    14     4     5    1
    15     4    21    1
    16    21    22    1
    17    22    23   am
    18    23    24    2
    19    23    26    1
    20    26    27   ar
    21    27    28   ar
    22    28    29    1
    23    28    30   ar
    24    30    31   ar
    25    31    32    1
    26    31    33   ar
    27     4     6    1
    28     6     7    1
    29     7     1    1
    30    33    26   ar
    31    11    15    1
    32    14    16    1
    33     5     8    1
    34    22    25    1
@<TRIPOS>MOLECULE
*****
 33 34 0 0 0
SMALL
GASTEIGER

@<TRIPOS>ATOM
      1 N          -2.9977  -18.2436   22.0998 N.3     1  UNL1       -0.2711
      2 C          -4.0549  -18.4347   23.1466 C.3     1  UNL1        0.0746
      3 C          -4.7758  -17.2462   23.7103 C.3     1  UNL1        0.0460
      4 C          -4.4395  -15.8666   23.2272 C.3     1  UNL1        0.1090
      5 O          -4.4746  -14.3731   23.0912 O.3     1  UNL1       -0.3850
      6 C          -3.3823  -15.6755   22.1804 C.3     1  UNL1        0.0460
      7 C          -2.6615  -16.8640   21.6167 C.3     1  UNL1        0.0746
      8 H          -5.1404  -14.0090   23.6954 H       1  UNL1        0.2103
      9 C          -2.2769  -19.4322   21.5361 C.3     1  UNL1        0.0937
     10 C          -2.8138  -20.1278   20.3205 C.3     1  UNL1        0.1082
     11 N          -6.7422  -20.6823   20.2212 N.am    1  UNL1       -0.2921
     12 C          -5.4046  -20.0056   20.1687 C.2     1  UNL1        0.3007
     13 O          -5.3199  -18.5303   19.9117 O.2     1  UNL1       -0.2528
     14 N          -4.1514  -20.8044   20.3731 N.am    1  UNL1       -0.2875
     15 H          -6.7977  -21.6506   20.3899 H       1  UNL1        0.1508
     16 H          -4.2070  -21.7728   20.5417 H       1  UNL1        0.1510
     17 C          -8.0728  -20.3679   18.5994 C.3     1  UNL1        0.0197
     18 C          -7.9953  -19.8836   20.0169 C.3     1  UNL1        0.0583
     19 C          -7.9178  -19.3992   21.4344 C.3     1  UNL1        0.0197
     20 C          -9.2484  -19.0848   19.8125 C.3     1  UNL1        0.0197
     21 C          -5.5089  -15.5391   24.2268 C.3     1  UNL1        0.1166
     22 N          -6.8567  -16.1891   24.1234 N.am    1  UNL1       -0.2986
     23 C          -7.7999  -15.7898   23.0277 C.2     1  UNL1        0.2460
     24 O          -7.3953  -14.7403   22.0353 O.2     1  UNL1       -0.2701
     25 H          -7.1222  -16.8779   24.7748 H       1  UNL1        0.1498
     26 C          -9.1478  -16.4398   22.9243 C.ar    1  UNL1        0.0550
     27 C         -10.0823  -16.0564   21.8154 C.ar    1  UNL1        0.0160
     28 C         -11.4301  -16.7064   21.7120 C.ar    1  UNL1        0.0587
     29 CL        -12.3647  -16.3230   20.6031 Cl      1  UNL1       -0.0822
     30 C         -11.8435  -17.7400   22.7174 C.ar    1  UNL1        0.0228
     31 C         -10.9089  -18.1235   23.8263 C.ar    1  UNL1        0.0587
     32 CL        -11.3223  -19.1571   24.8317 Cl      1  UNL1       -0.0822
     33 C          -9.5611  -17.4734   23.9297 C.ar    1  UNL1        0.0160
@<TRIPOS>BOND
     1    17    18    1
     2    18    19    1
     3    18    20    1
     4    18    11    1
     5    11    12   am
     6    12    13    2
     7    12    14   am
     8    14    10    1
     9    10     9    1
    10     9     1    1
    11     1     2    1
    12     2     3    1
    13     3     4    1
    14     4     5    1
    15     4    21    1
    16    21    22    1
    17    22    23   am
    18    23    24    2
    19    23    26    1
    20    26    27   ar
    21    27    28   ar
    22    28    29    1
    23    28    30   ar
    24    30    31   ar
    25    31    32    1
    26    31    33   ar
    27     4     6    1
    28     6     7    1
    29     7     1    1
    30    33    26   ar
    31    11    15    1
    32    14    16    1
    33     5     8    1
    34    22    25    1
@<TRIPOS>MOLECULE
*****
 33 34 0 0 0
SMALL
GASTEIGER

@<TRIPOS>ATOM
      1 N          -3.2803  -18.6477   21.0413 N.3     1  UNL1       -0.2711
      2 C          -4.3969  -18.5631   22.0392 C.3     1  UNL1        0.0746
      3 C          -5.5889  -19.4643   21.9092 C.3     1  UNL1        0.0460
      4 C          -5.6643  -20.4502   20.7812 C.3     1  UNL1        0.1090
      5 O          -6.1909  -21.5379   19.8926 O.3     1  UNL1       -0.3850
      6 C          -4.5476  -20.5348   19.7833 C.3     1  UNL1        0.0460
      7 C          -3.3556  -19.6336   19.9134 C.3     1  UNL1        0.0746
      8 H          -7.0524  -21.8369   20.2234 H       1  UNL1        0.2103
      9 C          -2.0883  -17.7465   21.1714 C.3     1  UNL1        0.0937
     10 C          -2.0789  -16.6598   22.2052 C.3     1  UNL1        0.1082
     11 N          -5.4517  -15.1126   23.6127 N.am    1  UNL1       -0.2921
     12 C          -4.2605  -16.0112   23.4582 C.2     1  UNL1        0.3007
     13 O          -4.0599  -17.1595   24.4020 O.2     1  UNL1       -0.2528
     14 N          -3.2700  -15.7613   22.3597 N.am    1  UNL1       -0.2875
     15 H          -5.5833  -14.3589   22.9931 H       1  UNL1        0.1508
     16 H          -3.4017  -15.0075   21.7402 H       1  UNL1        0.1510
     17 C          -7.4161  -15.9072   23.7088 C.3     1  UNL1        0.0197
     18 C          -6.4422  -15.3625   24.7110 C.3     1  UNL1        0.0583
     19 C          -5.4682  -14.8177   25.7133 C.3     1  UNL1        0.0197
     20 C          -7.4327  -15.6123   25.8095 C.3     1  UNL1        0.0197
     21 C          -6.9639  -20.7433   21.4706 C.3     1  UNL1        0.1166
     22 N          -8.1363  -19.8269   21.2820 N.am    1  UNL1       -0.2986
     23 C          -9.1604  -19.6857   22.3688 C.2     1  UNL1        0.2460
     24 O          -9.0120  -20.4610   23.6443 O.2     1  UNL1       -0.2701
     25 H          -8.2336  -19.3181   20.4448 H       1  UNL1        0.1498
     26 C         -10.3328  -18.7693   22.1802 C.ar    1  UNL1        0.0550
     27 C         -10.3535  -17.8047   21.0317 C.ar    1  UNL1        0.0160
     28 C         -11.5259  -16.8883   20.8431 C.ar    1  UNL1        0.0587
     29 CL        -11.5467  -15.9236   19.6945 Cl      1  UNL1       -0.0822
     30 C         -12.6776  -16.9364   21.8029 C.ar    1  UNL1        0.0228
     31 C         -12.6568  -17.9011   22.9515 C.ar    1  UNL1        0.0587
     32 CL        -13.8085  -17.9492   23.9113 Cl      1  UNL1       -0.0822
     33 C         -11.4844  -18.8175   23.1401 C.ar    1  UNL1        0.0160
@<TRIPOS>BOND
     1    17    18    1
     2    18    19    1
     3    18    20    1
     4    18    11    1
     5    11    12   am
     6    12    13    2
     7    12    14   am
     8    14    10    1
     9    10     9    1
    10     9     1    1
    11     1     2    1
    12     2     3    1
    13     3     4    1
    14     4     5    1
    15     4    21    1
    16    21    22    1
    17    22    23   am
    18    23    24    2
    19    23    26    1
    20    26    27   ar
    21    27    28   ar
    22    28    29    1
    23    28    30   ar
    24    30    31   ar
    25    31    32    1
    26    31    33   ar
    27     4     6    1
    28     6     7    1
    29     7     1    1
    30    33    26   ar
    31    11    15    1
    32    14    16    1
    33     5     8    1
    34    22    25    1
@<TRIPOS>MOLECULE
*****
 33 34 0 0 0
SMALL
GASTEIGER

@<TRIPOS>ATOM
      1 N          -4.9972  -20.3984   20.4980 N.3     1  UNL1       -0.2711
      2 C          -5.3755  -19.6699   21.7534 C.3     1  UNL1        0.0746
      3 C          -4.3392  -18.8954   22.5125 C.3     1  UNL1        0.0460
      4 C          -2.9245  -18.8495   22.0162 C.3     1  UNL1        0.1090
      5 O          -1.4651  -18.5095   21.9475 O.3     1  UNL1       -0.3850
      6 C          -2.5461  -19.5780   20.7608 C.3     1  UNL1        0.0460
      7 C          -3.5825  -20.3525   20.0017 C.3     1  UNL1        0.0746
      8 H          -1.2279  -17.9487   22.7026 H       1  UNL1        0.2103
      9 C          -6.0336  -21.1728   19.7390 C.3     1  UNL1        0.0937
     10 C          -7.3022  -20.5012   19.3037 C.3     1  UNL1        0.1082
     11 N          -9.7824  -17.8939   20.9770 N.am    1  UNL1       -0.2921
     12 C          -9.2793  -19.0979   20.2374 C.2     1  UNL1        0.3007
     13 O         -10.2502  -20.1028   19.6918 O.2     1  UNL1       -0.2528
     14 N          -7.8053  -19.2971   20.0434 N.am    1  UNL1       -0.2875
     15 H          -9.1452  -17.2343   21.3351 H       1  UNL1        0.1508
     16 H          -7.1681  -18.6376   20.4015 H       1  UNL1        0.1510
     17 C         -11.2176  -18.5837   22.3786 C.3     1  UNL1        0.0197
     18 C         -11.2564  -17.6946   21.1711 C.3     1  UNL1        0.0583
     19 C         -11.2952  -16.8056   19.9636 C.3     1  UNL1        0.0197
     20 C         -12.7304  -17.4953   21.3651 C.3     1  UNL1        0.0197
     21 C          -2.7960  -18.0029   23.2478 C.3     1  UNL1        0.1166
     22 N          -4.0163  -17.6475   24.0442 N.am    1  UNL1       -0.2986
     23 C          -4.6889  -16.3231   23.8354 C.2     1  UNL1        0.2460
     24 O          -4.1410  -15.3541   22.8301 O.2     1  UNL1       -0.2701
     25 H          -4.3759  -18.2836   24.7041 H       1  UNL1        0.1498
     26 C          -5.9092  -15.9678   24.6319 C.ar    1  UNL1        0.0550
     27 C          -7.2726  -16.1311   24.0282 C.ar    1  UNL1        0.0160
     28 C          -8.4930  -15.7757   24.8247 C.ar    1  UNL1        0.0587
     29 CL         -9.8564  -15.9390   24.2209 Cl      1  UNL1       -0.0822
     30 C          -8.3500  -15.2570   26.2248 C.ar    1  UNL1        0.0228
     31 C          -6.9865  -15.0937   26.8286 C.ar    1  UNL1        0.0587
     32 CL         -6.8436  -14.5750   28.2287 Cl      1  UNL1       -0.0822
     33 C          -5.7662  -15.4491   26.0321 C.ar    1  UNL1        0.0160
@<TRIPOS>BOND
     1    17    18    1
     2    18    19    1
     3    18    20    1
     4    18    11    1
     5    11    12   am
     6    12    13    2
     7    12    14   am
     8    14    10    1
     9    10     9    1
    10     9     1    1
    11     1     2    1
    12     2     3    1
    13     3     4    1
    14     4     5    1
    15     4    21    1
    16    21    22    1
    17    22    23   am
    18    23    24    2
    19    23    26    1
    20    26    27   ar
    21    27    28   ar
    22    28    29    1
    23    28    30   ar
    24    30    31   ar
    25    31    32    1
    26    31    33   ar
    27     4     6    1
    28     6     7    1
    29     7     1    1
    30    33    26   ar
    31    11    15    1
    32    14    16    1
    33     5     8    1
    34    22    25    1
@<TRIPOS>MOLECULE
*****
 33 34 0 0 0
SMALL
GASTEIGER

@<TRIPOS>ATOM
      1 N           8.6473   -7.7582   26.7912 N.3     1  UNL1       -0.2711
      2 C           7.8963   -6.5543   27.2774 C.3     1  UNL1        0.0746
      3 C           7.3877   -5.5406   26.2957 C.3     1  UNL1        0.0460
      4 C           7.6300   -5.7309   24.8277 C.3     1  UNL1        0.1090
      5 O           7.6091   -5.4718   23.3504 O.3     1  UNL1       -0.3850
      6 C           8.3810   -6.9349   24.3415 C.3     1  UNL1        0.0460
      7 C           8.8896   -7.9485   25.3232 C.3     1  UNL1        0.0746
      8 H           7.1374   -4.6428   23.1742 H       1  UNL1        0.2103
      9 C           9.1559   -8.7719   27.7729 C.3     1  UNL1        0.0937
     10 C           8.4355  -10.0762   27.9454 C.3     1  UNL1        0.1082
     11 N           4.7480  -11.5157   27.6617 N.am    1  UNL1       -0.2921
     12 C           6.2130  -11.4216   27.9699 C.2     1  UNL1        0.3007
     13 O           6.9204  -12.5786   28.6107 O.2     1  UNL1       -0.2528
     14 N           6.9705  -10.1703   27.6372 N.am    1  UNL1       -0.2875
     15 H           4.2837  -10.7563   27.2411 H       1  UNL1        0.1508
     16 H           6.5062   -9.4109   27.2166 H       1  UNL1        0.1510
     17 C           4.2481  -13.2903   26.6125 C.3     1  UNL1        0.0197
     18 C           3.9905  -12.7669   27.9944 C.3     1  UNL1        0.0583
     19 C           3.7328  -12.2435   29.3762 C.3     1  UNL1        0.0197
     20 C           3.2329  -14.0181   28.3271 C.3     1  UNL1        0.0197
     21 C           6.8718   -4.4369   24.8009 C.3     1  UNL1        0.1166
     22 N           6.1027   -4.0435   23.5747 N.am    1  UNL1       -0.2986
     23 C           5.0942   -2.9355   23.6452 C.2     1  UNL1        0.2460
     24 O           4.8547   -2.2208   24.9420 O.2     1  UNL1       -0.2701
     25 H           6.2600   -4.5126   22.7235 H       1  UNL1        0.1498
     26 C           4.3251   -2.5421   22.4189 C.ar    1  UNL1        0.0550
     27 C           4.4198   -3.3749   21.1750 C.ar    1  UNL1        0.0160
     28 C           3.6508   -2.9816   19.9487 C.ar    1  UNL1        0.0587
     29 CL          3.7455   -3.8144   18.7047 Cl      1  UNL1       -0.0822
     30 C           2.7870   -1.7554   19.9663 C.ar    1  UNL1        0.0228
     31 C           2.6923   -0.9225   21.2103 C.ar    1  UNL1        0.0587
     32 CL          1.8285    0.3036   21.2279 Cl      1  UNL1       -0.0822
     33 C           3.4613   -1.3159   22.4366 C.ar    1  UNL1        0.0160
@<TRIPOS>BOND
     1    17    18    1
     2    18    19    1
     3    18    20    1
     4    18    11    1
     5    11    12   am
     6    12    13    2
     7    12    14   am
     8    14    10    1
     9    10     9    1
    10     9     1    1
    11     1     2    1
    12     2     3    1
    13     3     4    1
    14     4     5    1
    15     4    21    1
    16    21    22    1
    17    22    23   am
    18    23    24    2
    19    23    26    1
    20    26    27   ar
    21    27    28   ar
    22    28    29    1
    23    28    30   ar
    24    30    31   ar
    25    31    32    1
    26    31    33   ar
    27     4     6    1
    28     6     7    1
    29     7     1    1
    30    33    26   ar
    31    11    15    1
    32    14    16    1
    33     5     8    1
    34    22    25    1
@<TRIPOS>MOLECULE
*****
 33 34 0 0 0
SMALL
GASTEIGER

@<TRIPOS>ATOM
      1 N           8.4011   -7.5697   27.2931 N.3     1  UNL1       -0.2711
      2 C           8.5041   -7.3902   25.8075 C.3     1  UNL1        0.0746
      3 C           7.8320   -6.2245   25.1445 C.3     1  UNL1        0.0460
      4 C           7.0570   -5.2383   25.9672 C.3     1  UNL1        0.1090
      5 O           6.2163   -4.0460   26.3160 O.3     1  UNL1       -0.3850
      6 C           6.9540   -5.4179   27.4528 C.3     1  UNL1        0.0460
      7 C           7.6261   -6.5836   28.1158 C.3     1  UNL1        0.0746
      8 H           6.0085   -3.5497   25.5090 H       1  UNL1        0.2103
      9 C           9.0732   -8.7354   27.9560 C.3     1  UNL1        0.0937
     10 C           8.4092  -10.0804   27.9611 C.3     1  UNL1        0.1082
     11 N           4.7499  -11.5692   27.5830 N.am    1  UNL1       -0.2921
     12 C           6.1996  -11.4471   27.9481 C.2     1  UNL1        0.3007
     13 O           6.8896  -12.5695   28.6651 O.2     1  UNL1       -0.2528
     14 N           6.9594  -10.2025   27.5961 N.am    1  UNL1       -0.2875
     15 H           4.2970  -10.8326   27.1124 H       1  UNL1        0.1508
     16 H           6.5066   -9.4659   27.1254 H       1  UNL1        0.1510
     17 C           3.6457  -12.2256   29.2712 C.3     1  UNL1        0.0197
     18 C           3.9901  -12.8137   27.9350 C.3     1  UNL1        0.0583
     19 C           4.3344  -13.4019   26.5988 C.3     1  UNL1        0.0197
     20 C           3.2302  -14.0583   28.2869 C.3     1  UNL1        0.0197
     21 C           6.8680   -4.6447   24.6027 C.3     1  UNL1        0.1166
     22 N           5.8722   -3.5423   24.3957 N.am    1  UNL1       -0.2986
     23 C           5.2311   -3.3529   23.0530 C.2     1  UNL1        0.2460
     24 O           5.5859   -4.2660   21.9171 O.2     1  UNL1       -0.2701
     25 H           5.6393   -2.9430   25.1413 H       1  UNL1        0.1498
     26 C           4.2352   -2.2505   22.8460 C.ar    1  UNL1        0.0550
     27 C           3.8007   -1.4048   24.0062 C.ar    1  UNL1        0.0160
     28 C           2.8048   -0.3024   23.7993 C.ar    1  UNL1        0.0587
     29 CL          2.3703    0.5434   24.9595 Cl      1  UNL1       -0.0822
     30 C           2.2435   -0.0455   22.4322 C.ar    1  UNL1        0.0228
     31 C           2.6780   -0.8912   21.2720 C.ar    1  UNL1        0.0587
     32 CL          2.1167   -0.6344   19.9049 Cl      1  UNL1       -0.0822
     33 C           3.6739   -1.9937   21.4789 C.ar    1  UNL1        0.0160
@<TRIPOS>BOND
     1    17    18    1
     2    18    19    1
     3    18    20    1
     4    18    11    1
     5    11    12   am
     6    12    13    2
     7    12    14   am
     8    14    10    1
     9    10     9    1
    10     9     1    1
    11     1     2    1
    12     2     3    1
    13     3     4    1
    14     4     5    1
    15     4    21    1
    16    21    22    1
    17    22    23   am
    18    23    24    2
    19    23    26    1
    20    26    27   ar
    21    27    28   ar
    22    28    29    1
    23    28    30   ar
    24    30    31   ar
    25    31    32    1
    26    31    33   ar
    27     4     6    1
    28     6     7    1
    29     7     1    1
    30    33    26   ar
    31    11    15    1
    32    14    16    1
    33     5     8    1
    34    22    25    1
@<TRIPOS>MOLECULE
*****
 33 34 0 0 0
SMALL
GASTEIGER

@<TRIPOS>ATOM
      1 N          -3.8948  -19.7132   20.2856 N.3     1  UNL1       -0.2711
      2 C          -4.2826  -19.2249   21.6498 C.3     1  UNL1        0.0746
      3 C          -3.5853  -18.0394   22.2483 C.3     1  UNL1        0.0460
      4 C          -2.5001  -17.3422   21.4826 C.3     1  UNL1        0.1090
      5 O          -1.4192  -16.3565   21.1507 O.3     1  UNL1       -0.3850
      6 C          -2.1123  -17.8305   20.1184 C.3     1  UNL1        0.0460
      7 C          -2.8096  -19.0161   19.5199 C.3     1  UNL1        0.0746
      8 H          -1.3101  -15.7357   21.8880 H       1  UNL1        0.2103
      9 C          -4.5921  -20.8988   19.6871 C.3     1  UNL1        0.0937
     10 C          -5.9934  -21.2340   20.1041 C.3     1  UNL1        0.1082
     11 N          -9.2739  -19.0006   20.0976 N.am    1  UNL1       -0.2921
     12 C          -8.1260  -19.8315   20.5893 C.2     1  UNL1        0.3007
     13 O          -7.9626  -20.0910   22.0576 O.2     1  UNL1       -0.2528
     14 N          -7.1414  -20.4030   19.6125 N.am    1  UNL1       -0.2875
     15 H          -9.3812  -18.8303   19.1339 H       1  UNL1        0.1508
     16 H          -7.2486  -20.2328   18.6488 H       1  UNL1        0.1510
     17 C          -9.3716  -17.2353   21.2699 C.3     1  UNL1        0.0197
     18 C         -10.2585  -18.4291   21.0743 C.3     1  UNL1        0.0583
     19 C         -11.1455  -19.6228   20.8787 C.3     1  UNL1        0.0197
     20 C         -11.2432  -17.8575   22.0510 C.3     1  UNL1        0.0197
     21 C          -2.5125  -16.5115   22.7316 C.3     1  UNL1        0.1166
     22 N          -3.7115  -16.5301   23.6327 N.am    1  UNL1       -0.2986
     23 C          -4.7268  -15.4288   23.5531 C.2     1  UNL1        0.2460
     24 O          -4.5430  -14.3089   22.5722 O.2     1  UNL1       -0.2701
     25 H          -3.8321  -17.2651   24.2765 H       1  UNL1        0.1498
     26 C          -5.9257  -15.4473   24.4542 C.ar    1  UNL1        0.0550
     27 C          -5.7455  -15.4166   25.9431 C.ar    1  UNL1        0.0160
     28 C          -6.9444  -15.4352   26.8442 C.ar    1  UNL1        0.0587
     29 CL         -6.7642  -15.4045   28.3331 Cl      1  UNL1       -0.0822
     30 C          -8.3237  -15.4844   26.2566 C.ar    1  UNL1        0.0228
     31 C          -8.5039  -15.5151   24.7677 C.ar    1  UNL1        0.0587
     32 CL         -9.8831  -15.5643   24.1802 Cl      1  UNL1       -0.0822
     33 C          -7.3050  -15.4966   23.8666 C.ar    1  UNL1        0.0160
@<TRIPOS>BOND
     1    17    18    1
     2    18    19    1
     3    18    20    1
     4    18    11    1
     5    11    12   am
     6    12    13    2
     7    12    14   am
     8    14    10    1
     9    10     9    1
    10     9     1    1
    11     1     2    1
    12     2     3    1
    13     3     4    1
    14     4     5    1
    15     4    21    1
    16    21    22    1
    17    22    23   am
    18    23    24    2
    19    23    26    1
    20    26    27   ar
    21    27    28   ar
    22    28    29    1
    23    28    30   ar
    24    30    31   ar
    25    31    32    1
    26    31    33   ar
    27     4     6    1
    28     6     7    1
    29     7     1    1
    30    33    26   ar
    31    11    15    1
    32    14    16    1
    33     5     8    1
    34    22    25    1
@<TRIPOS>MOLECULE
*****
 33 34 0 0 0
SMALL
GASTEIGER

@<TRIPOS>ATOM
      1 N           8.1487   -6.6796   26.5026 N.3     1  UNL1       -0.2711
      2 C           8.2986   -5.7601   25.3270 C.3     1  UNL1        0.0746
      3 C           7.5758   -4.4459   25.3057 C.3     1  UNL1        0.0460
      4 C           6.7032   -4.0511   26.4600 C.3     1  UNL1        0.1090
      5 O           5.7699   -3.2391   27.3084 O.3     1  UNL1       -0.3850
      6 C           6.5532   -4.9706   27.6356 C.3     1  UNL1        0.0460
      7 C           7.2760   -6.2848   27.6569 C.3     1  UNL1        0.0746
      8 H           5.5613   -2.4075   26.8547 H       1  UNL1        0.2103
      9 C           8.8714   -7.9938   26.5239 C.3     1  UNL1        0.0937
     10 C           8.3270   -9.1362   27.3291 C.3     1  UNL1        0.1082
     11 N           4.9224  -11.1608   27.5742 N.am    1  UNL1       -0.2921
     12 C           6.3865  -10.8384   27.6244 C.2     1  UNL1        0.3007
     13 O           7.3742  -11.8957   28.0198 O.2     1  UNL1       -0.2528
     14 N           6.8629   -9.4586   27.2790 N.am    1  UNL1       -0.2875
     15 H           4.2742  -10.4668   27.3147 H       1  UNL1        0.1508
     16 H           6.2146   -8.7646   27.0195 H       1  UNL1        0.1510
     17 C           4.4149  -12.1663   29.3718 C.3     1  UNL1        0.0197
     18 C           4.4460  -12.5405   27.9196 C.3     1  UNL1        0.0583
     19 C           4.4771  -12.9147   26.4674 C.3     1  UNL1        0.0197
     20 C           3.9696  -13.9203   28.2649 C.3     1  UNL1        0.0197
     21 C           6.5290   -2.8496   25.5790 C.3     1  UNL1        0.1166
     22 N           6.0509   -3.0177   24.1672 N.am    1  UNL1       -0.2986
     23 C           4.7593   -2.3909   23.7331 C.2     1  UNL1        0.2460
     24 O           3.9457   -1.5958   24.7108 O.2     1  UNL1       -0.2701
     25 H           6.5850   -3.5396   23.5256 H       1  UNL1        0.1498
     26 C           4.2812   -2.5590   22.3213 C.ar    1  UNL1        0.0550
     27 C           4.6245   -3.8027   21.5563 C.ar    1  UNL1        0.0160
     28 C           4.1464   -3.9709   20.1446 C.ar    1  UNL1        0.0587
     29 CL          4.4897   -5.2147   19.3795 Cl      1  UNL1       -0.0822
     30 C           3.3250   -2.8953   19.4977 C.ar    1  UNL1        0.0228
     31 C           2.9817   -1.6515   20.2627 C.ar    1  UNL1        0.0587
     32 CL          2.1604   -0.5759   19.6158 Cl      1  UNL1       -0.0822
     33 C           3.4598   -1.4833   21.6745 C.ar    1  UNL1        0.0160
@<TRIPOS>BOND
     1    17    18    1
     2    18    19    1
     3    18    20    1
     4    18    11    1
     5    11    12   am
     6    12    13    2
     7    12    14   am
     8    14    10    1
     9    10     9    1
    10     9     1    1
    11     1     2    1
    12     2     3    1
    13     3     4    1
    14     4     5    1
    15     4    21    1
    16    21    22    1
    17    22    23   am
    18    23    24    2
    19    23    26    1
    20    26    27   ar
    21    27    28   ar
    22    28    29    1
    23    28    30   ar
    24    30    31   ar
    25    31    32    1
    26    31    33   ar
    27     4     6    1
    28     6     7    1
    29     7     1    1
    30    33    26   ar
    31    11    15    1
    32    14    16    1
    33     5     8    1
    34    22    25    1
@<TRIPOS>MOLECULE
*****
 33 34 0 0 0
SMALL
GASTEIGER

@<TRIPOS>ATOM
      1 N           7.0518   -5.3655   29.0146 N.3     1  UNL1       -0.2711
      2 C           6.6319   -3.9520   28.7392 C.3     1  UNL1        0.0746
      3 C           6.5282   -3.4624   27.3252 C.3     1  UNL1        0.0460
      4 C           6.8443   -4.3862   26.1865 C.3     1  UNL1        0.1090
      5 O           7.0380   -4.8785   24.7829 O.3     1  UNL1       -0.3850
      6 C           7.2642   -5.7996   26.4619 C.3     1  UNL1        0.0460
      7 C           7.3679   -6.2892   27.8759 C.3     1  UNL1        0.0746
      8 H           6.8406   -4.1624   24.1590 H       1  UNL1        0.2103
      9 C           7.1555   -5.8551   30.4286 C.3     1  UNL1        0.0937
     10 C           7.3626   -4.8778   31.5475 C.3     1  UNL1        0.1082
     11 N           4.6777   -2.5179   33.2715 N.am    1  UNL1       -0.2921
     12 C           5.8447   -2.9695   32.4444 C.2     1  UNL1        0.3007
     13 O           6.6609   -1.9643   31.6872 O.2     1  UNL1       -0.2528
     14 N           6.1956   -4.4263   32.3746 N.am    1  UNL1       -0.2875
     15 H           4.1420   -3.1777   33.7685 H       1  UNL1        0.1508
     16 H           5.6599   -5.0860   32.8716 H       1  UNL1        0.1510
     17 C           3.6350   -1.1642   32.0145 C.3     1  UNL1        0.0197
     18 C           4.3268   -1.0613   33.3414 C.3     1  UNL1        0.0583
     19 C           5.0186   -0.9583   34.6683 C.3     1  UNL1        0.0197
     20 C           3.9760    0.3955   33.4113 C.3     1  UNL1        0.0197
     21 C           6.4917   -3.1436   25.4237 C.3     1  UNL1        0.1166
     22 N           5.9903   -3.2461   24.0138 N.am    1  UNL1       -0.2986
     23 C           4.7586   -2.4970   23.5993 C.2     1  UNL1        0.2460
     24 O           4.0284   -1.6453   24.5950 O.2     1  UNL1       -0.2701
     25 H           6.4696   -3.8051   23.3603 H       1  UNL1        0.1498
     26 C           4.2572   -2.5995   22.1894 C.ar    1  UNL1        0.0550
     27 C           3.4042   -1.5073   21.6155 C.ar    1  UNL1        0.0160
     28 C           2.9028   -1.6098   20.2055 C.ar    1  UNL1        0.0587
     29 CL          2.0496   -0.5175   19.6316 Cl      1  UNL1       -0.0822
     30 C           3.2544   -2.8044   19.3694 C.ar    1  UNL1        0.0228
     31 C           4.1075   -3.8967   19.9433 C.ar    1  UNL1        0.0587
     32 CL          4.4591   -5.0913   19.1071 Cl      1  UNL1       -0.0822
     33 C           4.6089   -3.7942   21.3533 C.ar    1  UNL1        0.0160
@<TRIPOS>BOND
     1    17    18    1
     2    18    19    1
     3    18    20    1
     4    18    11    1
     5    11    12   am
     6    12    13    2
     7    12    14   am
     8    14    10    1
     9    10     9    1
    10     9     1    1
    11     1     2    1
    12     2     3    1
    13     3     4    1
    14     4     5    1
    15     4    21    1
    16    21    22    1
    17    22    23   am
    18    23    24    2
    19    23    26    1
    20    26    27   ar
    21    27    28   ar
    22    28    29    1
    23    28    30   ar
    24    30    31   ar
    25    31    32    1
    26    31    33   ar
    27     4     6    1
    28     6     7    1
    29     7     1    1
    30    33    26   ar
    31    11    15    1
    32    14    16    1
    33     5     8    1
    34    22    25    1
