@<TRIPOS>MOLECULE
*****
 31 36 0 0 0
SMALL
GASTEIGER

@<TRIPOS>ATOM
      1 C           7.3927   -5.3210   23.5945 C.3     1  UNL1        0.0325
      2 C           6.7548   -4.2649   24.4475 C.ar    1  UNL1       -0.0062
      3 C           5.9680   -3.1590   23.8088 C.ar    1  UNL1       -0.0062
      4 C           5.3301   -2.1028   24.6618 C.ar    1  UNL1       -0.0004
      5 C           5.4789   -2.1525   26.1535 C.ar    1  UNL1        0.0045
      6 C           6.2657   -3.2584   26.7924 C.ar    1  UNL1        0.0518
      7 C           6.4145   -3.3082   28.2841 C.ar    1  UNL1        0.1704
      8 O           5.9028   -2.4139   29.3742 O.2     1  UNL1       -0.4368
      9 C           6.3734   -2.9670   30.6867 C.ar    1  UNL1        0.2217
     10 N           7.1759   -4.2032   30.4078 N.ar    1  UNL1       -0.2060
     11 C           7.2013   -4.4141   28.9229 C.ar    1  UNL1        0.1744
     12 C           7.8392   -5.4702   28.0699 C.ar    1  UNL1        0.2816
     13 O           8.6260   -6.5761   28.7086 O.2     1  UNL1       -0.2652
     14 N           7.6904   -5.4204   26.5781 N.ar    1  UNL1       -0.2963
     15 C           6.9037   -4.3146   25.9394 C.ar    1  UNL1        0.0614
     16 C           5.8192   -3.1092   22.3170 C.2     1  UNL1       -0.0179
     17 C           4.6113   -3.7122   21.6633 C.2     1  UNL1       -0.0024
     18 C           4.4623   -3.6624   20.1716 C.2     1  UNL1        0.0203
     19 C           5.5214   -3.0097   19.3335 C.2     1  UNL1        0.1007
     20 N           5.6478   -2.8103   17.8522 N.2     1  UNL1       -0.1482
     21 N           6.9340   -2.0840   17.5904 N.2     1  UNL1       -0.1467
     22 C           7.6023   -1.8346   18.9099 C.2     1  UNL1        0.1197
     23 C           6.7293   -2.4067   19.9872 C.2     1  UNL1        0.0225
     24 C           6.8782   -2.4564   21.4790 C.3     1  UNL1        0.0558
     25 C           6.0910   -2.3860   32.0405 C.3     1  UNL1        0.1518
     26 N           4.9733   -2.9376   32.8751 N.3     1  UNL1       -0.3134
     27 H           4.0816   -2.7467   32.4181 H       1  UNL1        0.1193
     28 H           4.9856   -2.4959   33.7944 H       1  UNL1        0.1193
     29 C           8.3284   -6.4766   25.7251 C.3     1  UNL1        0.0885
     30 C           8.2264   -7.7554   24.9477 C.3     1  UNL1        0.0246
     31 C           9.5354   -7.0271   25.0251 C.3     1  UNL1        0.0246
@<TRIPOS>BOND
     1     1     2    1
     2     2     3   ar
     3     3    16    1
     4    16    17    2
     5    17    18    1
     6    18    19    2
     7    19    20    1
     8    20    21    2
     9    21    22    1
    10    22    23    2
    11    23    24    1
    12     3     4   ar
    13     4     5   ar
    14     5     6   ar
    15     6     7   ar
    16     7     8   ar
    17     8     9   ar
    18     9    25    1
    19    25    26    1
    20     9    10   ar
    21    10    11   ar
    22    11    12   ar
    23    12    13    2
    24    12    14   ar
    25    14    29    1
    26    29    30    1
    27    30    31    1
    28    14    15   ar
    29    15     2   ar
    30    24    16    1
    31    15     6   ar
    32    23    19    1
    33    11     7   ar
    34    31    29    1
    35    26    27    1
    36    26    28    1
@<TRIPOS>MOLECULE
*****
 31 36 0 0 0
SMALL
GASTEIGER

@<TRIPOS>ATOM
      1 C           5.3094   -2.1683   24.4095 C.3     1  UNL1        0.0325
      2 C           6.2045   -3.3477   24.6496 C.ar    1  UNL1       -0.0062
      3 C           6.7049   -4.1578   23.4906 C.ar    1  UNL1       -0.0062
      4 C           7.6000   -5.3373   23.7307 C.ar    1  UNL1       -0.0004
      5 C           7.9947   -5.7067   25.1298 C.ar    1  UNL1        0.0045
      6 C           7.4944   -4.8967   26.2890 C.ar    1  UNL1        0.0518
      7 C           7.8891   -5.2660   27.6881 C.ar    1  UNL1        0.1704
      8 O           8.7520   -6.3668   28.2301 O.2     1  UNL1       -0.4368
      9 C           8.7849   -6.2370   29.7241 C.ar    1  UNL1        0.2217
     10 N           7.9424   -5.0561   30.1055 N.ar    1  UNL1       -0.2060
     11 C           7.3887   -4.4559   28.8472 C.ar    1  UNL1        0.1744
     12 C           6.4936   -3.2765   28.6071 C.ar    1  UNL1        0.2816
     13 O           5.9933   -2.4664   29.7661 O.2     1  UNL1       -0.2652
     14 N           6.0989   -2.9071   27.2079 N.ar    1  UNL1       -0.2963
     15 C           6.5992   -3.7171   26.0489 C.ar    1  UNL1        0.0614
     16 C           6.3101   -3.7885   22.0914 C.2     1  UNL1       -0.0179
     17 C           4.9125   -4.0486   21.6130 C.2     1  UNL1       -0.0024
     18 C           4.5176   -3.6792   20.2138 C.2     1  UNL1        0.0203
     19 C           5.5205   -3.0498   19.2929 C.2     1  UNL1        0.1007
     20 N           5.4226   -2.5817   17.8712 N.2     1  UNL1       -0.1482
     21 N           6.7597   -2.0323   17.4709 N.2     1  UNL1       -0.1467
     22 C           7.6841   -2.1608   18.6452 C.2     1  UNL1        0.1197
     23 C           6.9182   -2.7897   19.7713 C.2     1  UNL1        0.0225
     24 C           7.3131   -3.1590   21.1706 C.3     1  UNL1        0.0558
     25 C           9.5296   -7.1313   30.6706 C.3     1  UNL1        0.1518
     26 N           9.4189   -6.9148   32.1507 N.3     1  UNL1       -0.3134
     27 H           9.8399   -6.0186   32.3957 H       1  UNL1        0.1193
     28 H           9.9061   -7.6647   32.6413 H       1  UNL1        0.1193
     29 C           5.2038   -1.7276   26.9678 C.3     1  UNL1        0.0885
     30 C           5.0295   -0.2604   26.7091 C.3     1  UNL1        0.0246
     31 C           3.8275   -1.1520   26.8107 C.3     1  UNL1        0.0246
@<TRIPOS>BOND
     1     1     2    1
     2     2     3   ar
     3     3    16    1
     4    16    17    2
     5    17    18    1
     6    18    19    2
     7    19    20    1
     8    20    21    2
     9    21    22    1
    10    22    23    2
    11    23    24    1
    12     3     4   ar
    13     4     5   ar
    14     5     6   ar
    15     6     7   ar
    16     7     8   ar
    17     8     9   ar
    18     9    25    1
    19    25    26    1
    20     9    10   ar
    21    10    11   ar
    22    11    12   ar
    23    12    13    2
    24    12    14   ar
    25    14    29    1
    26    29    30    1
    27    30    31    1
    28    14    15   ar
    29    15     2   ar
    30    24    16    1
    31    15     6   ar
    32    23    19    1
    33    11     7   ar
    34    31    29    1
    35    26    27    1
    36    26    28    1
@<TRIPOS>MOLECULE
*****
 31 36 0 0 0
SMALL
GASTEIGER

@<TRIPOS>ATOM
      1 C           4.3280   -0.8469   23.8416 C.3     1  UNL1        0.0325
      2 C           5.1153   -1.9021   24.5604 C.ar    1  UNL1       -0.0062
      3 C           5.7862   -2.9965   23.7842 C.ar    1  UNL1       -0.0062
      4 C           6.5735   -4.0517   24.5030 C.ar    1  UNL1       -0.0004
      5 C           6.6900   -4.0126   25.9980 C.ar    1  UNL1        0.0045
      6 C           6.0192   -2.9183   26.7742 C.ar    1  UNL1        0.0518
      7 C           6.1357   -2.8791   28.2691 C.ar    1  UNL1        0.1704
      8 O           6.8393   -3.7752   29.2448 O.2     1  UNL1       -0.4368
      9 C           6.6033   -3.2347   30.6240 C.ar    1  UNL1        0.2217
     10 N           5.7539   -2.0045   30.5007 N.ar    1  UNL1       -0.2060
     11 C           5.4649   -1.7847   29.0453 C.ar    1  UNL1        0.1744
     12 C           4.6776   -0.7295   28.3265 C.ar    1  UNL1        0.2816
     13 O           4.0067    0.3648   29.1026 O.2     1  UNL1       -0.2652
     14 N           4.5611   -0.7687   26.8315 N.ar    1  UNL1       -0.2963
     15 C           5.2318   -1.8630   26.0554 C.ar    1  UNL1        0.0614
     16 C           5.6697   -3.0356   22.2893 C.2     1  UNL1       -0.0179
     17 C           4.5201   -3.7521   21.6451 C.2     1  UNL1       -0.0024
     18 C           4.4035   -3.7914   20.1502 C.2     1  UNL1        0.0203
     19 C           5.4366   -3.1140   19.2993 C.2     1  UNL1        0.1007
     20 N           5.5847   -2.9850   17.8123 N.2     1  UNL1       -0.1482
     21 N           6.8258   -2.1888   17.5374 N.2     1  UNL1       -0.1467
     22 C           7.4449   -1.8257   18.8545 C.2     1  UNL1        0.1197
     23 C           6.5862   -2.3975   19.9435 C.2     1  UNL1        0.0225
     24 C           6.7028   -2.3583   21.4385 C.3     1  UNL1        0.0558
     25 C           7.1251   -3.8213   31.9021 C.3     1  UNL1        0.1518
     26 N           6.4799   -5.0437   32.4847 N.3     1  UNL1       -0.3134
     27 H           5.5282   -4.8200   32.7756 H       1  UNL1        0.1193
     28 H           7.0170   -5.3595   33.2923 H       1  UNL1        0.1193
     29 C           3.7737    0.2866   26.1128 C.3     1  UNL1        0.0885
     30 C           2.4848    0.7606   25.5095 C.3     1  UNL1        0.0246
     31 C           3.6991    1.6404   25.4712 C.3     1  UNL1        0.0246
@<TRIPOS>BOND
     1     1     2    1
     2     2     3   ar
     3     3    16    1
     4    16    17    2
     5    17    18    1
     6    18    19    2
     7    19    20    1
     8    20    21    2
     9    21    22    1
    10    22    23    2
    11    23    24    1
    12     3     4   ar
    13     4     5   ar
    14     5     6   ar
    15     6     7   ar
    16     7     8   ar
    17     8     9   ar
    18     9    25    1
    19    25    26    1
    20     9    10   ar
    21    10    11   ar
    22    11    12   ar
    23    12    13    2
    24    12    14   ar
    25    14    29    1
    26    29    30    1
    27    30    31    1
    28    14    15   ar
    29    15     2   ar
    30    24    16    1
    31    15     6   ar
    32    23    19    1
    33    11     7   ar
    34    31    29    1
    35    26    27    1
    36    26    28    1
@<TRIPOS>MOLECULE
*****
 31 36 0 0 0
SMALL
GASTEIGER

@<TRIPOS>ATOM
      1 C         -13.2434   -2.5203   18.7401 C.3     1  UNL1        0.0325
      2 C         -14.5520   -3.2038   19.0052 C.ar    1  UNL1       -0.0062
      3 C         -15.7748   -2.3903   19.3103 C.ar    1  UNL1       -0.0062
      4 C         -17.0834   -3.0739   19.5754 C.ar    1  UNL1       -0.0004
      5 C         -17.1693   -4.5708   19.5355 C.ar    1  UNL1        0.0045
      6 C         -15.9465   -5.3844   19.2304 C.ar    1  UNL1        0.0518
      7 C         -16.0324   -6.8814   19.1905 C.ar    1  UNL1        0.1704
      8 O         -17.1759   -7.8273   19.4084 O.2     1  UNL1       -0.4368
      9 C         -16.6599   -9.2254   19.2380 C.ar    1  UNL1        0.2217
     10 N         -15.1974   -9.1436   18.9147 N.ar    1  UNL1       -0.2060
     11 C         -14.8096   -7.6949   18.8854 C.ar    1  UNL1        0.1744
     12 C         -13.5010   -7.0113   18.6202 C.ar    1  UNL1        0.2816
     13 O         -12.2782   -7.8248   18.3151 O.2     1  UNL1       -0.2652
     14 N         -13.4151   -5.5143   18.6602 N.ar    1  UNL1       -0.2963
     15 C         -14.6378   -4.7009   18.9653 C.ar    1  UNL1        0.0614
     16 C         -15.6890   -0.8934   19.3503 C.2     1  UNL1       -0.0179
     17 C         -16.4358   -0.1271   20.4015 C.2     1  UNL1       -0.0024
     18 C         -16.3500    1.3699   20.4415 C.2     1  UNL1        0.0203
     19 C         -15.5174    2.1007   19.4303 C.2     1  UNL1        0.1007
     20 N         -15.2439    3.5607   19.2218 N.2     1  UNL1       -0.1482
     21 N         -14.3280    3.6969   18.0417 N.2     1  UNL1       -0.1467
     22 C         -14.0354    2.3210   17.5208 C.2     1  UNL1        0.1197
     23 C         -14.7706    1.3345   18.3790 C.2     1  UNL1        0.0225
     24 C         -14.8563   -0.1626   18.3390 C.3     1  UNL1        0.0558
     25 C         -17.4650  -10.4843   19.3680 C.3     1  UNL1        0.1518
     26 N         -16.8452  -11.8088   19.0338 N.3     1  UNL1       -0.3134
     27 H         -16.6341  -11.8434   18.0365 H       1  UNL1        0.1193
     28 H         -17.4960  -12.5579   19.2698 H       1  UNL1        0.1193
     29 C         -12.1064   -4.8308   18.3950 C.3     1  UNL1        0.0885
     30 C         -11.1748   -4.1297   17.4514 C.3     1  UNL1        0.0246
     31 C         -10.7714   -4.3482   18.8795 C.3     1  UNL1        0.0246
@<TRIPOS>BOND
     1     1     2    1
     2     2     3   ar
     3     3    16    1
     4    16    17    2
     5    17    18    1
     6    18    19    2
     7    19    20    1
     8    20    21    2
     9    21    22    1
    10    22    23    2
    11    23    24    1
    12     3     4   ar
    13     4     5   ar
    14     5     6   ar
    15     6     7   ar
    16     7     8   ar
    17     8     9   ar
    18     9    25    1
    19    25    26    1
    20     9    10   ar
    21    10    11   ar
    22    11    12   ar
    23    12    13    2
    24    12    14   ar
    25    14    29    1
    26    29    30    1
    27    30    31    1
    28    14    15   ar
    29    15     2   ar
    30    24    16    1
    31    15     6   ar
    32    23    19    1
    33    11     7   ar
    34    31    29    1
    35    26    27    1
    36    26    28    1
@<TRIPOS>MOLECULE
*****
 31 36 0 0 0
SMALL
GASTEIGER

@<TRIPOS>ATOM
      1 C           3.9445   -0.7868   23.6053 C.3     1  UNL1        0.0325
      2 C           2.7153   -0.0251   23.2068 C.ar    1  UNL1       -0.0062
      3 C           2.3271    0.0691   21.7609 C.ar    1  UNL1       -0.0062
      4 C           1.0979    0.8308   21.3624 C.ar    1  UNL1       -0.0004
      5 C           0.2568    1.4983   22.4097 C.ar    1  UNL1        0.0045
      6 C           0.6448    1.4042   23.8556 C.ar    1  UNL1        0.0518
      7 C          -0.1963    2.0717   24.9030 C.ar    1  UNL1        0.1704
      8 O          -1.4530    2.8856   24.8124 O.2     1  UNL1       -0.4368
      9 C          -1.8416    3.2944   26.2023 C.ar    1  UNL1        0.2217
     10 N          -0.8250    2.7332   27.1519 N.ar    1  UNL1       -0.2060
     11 C           0.1919    1.9775   26.3488 C.ar    1  UNL1        0.1744
     12 C           1.4211    1.2158   26.7473 C.ar    1  UNL1        0.2816
     13 O           1.8092    1.1217   28.1932 O.2     1  UNL1       -0.2652
     14 N           2.2622    0.5483   25.7000 N.ar    1  UNL1       -0.2963
     15 C           1.8741    0.6425   24.2542 C.ar    1  UNL1        0.0614
     16 C           3.1682   -0.5984   20.7136 C.2     1  UNL1       -0.0179
     17 C           2.8763   -2.0122   20.3062 C.2     1  UNL1       -0.0024
     18 C           3.7174   -2.6798   19.2588 C.2     1  UNL1        0.0203
     19 C           4.8504   -1.9336   18.6188 C.2     1  UNL1        0.1007
     20 N           5.8441   -2.3273   17.5665 N.2     1  UNL1       -0.1482
     21 N           6.7502   -1.1568   17.3235 N.2     1  UNL1       -0.1467
     22 C           6.3164   -0.0397   18.2257 C.2     1  UNL1        0.1197
     23 C           5.1423   -0.5198   19.0263 C.2     1  UNL1        0.0225
     24 C           4.3012    0.1478   20.0737 C.3     1  UNL1        0.0558
     25 C          -3.0369    4.1195   26.5770 C.3     1  UNL1        0.1518
     26 N          -4.4121    3.6713   26.1795 N.3     1  UNL1       -0.3134
     27 H          -4.4979    3.6980   25.1634 H       1  UNL1        0.1193
     28 H          -5.1057    4.2926   26.5957 H       1  UNL1        0.1193
     29 C           3.4915   -0.2134   26.0986 C.3     1  UNL1        0.0885
     30 C           4.1400   -1.4874   26.5527 C.3     1  UNL1        0.0246
     31 C           4.9721   -0.2585   26.3348 C.3     1  UNL1        0.0246
@<TRIPOS>BOND
     1     1     2    1
     2     2     3   ar
     3     3    16    1
     4    16    17    2
     5    17    18    1
     6    18    19    2
     7    19    20    1
     8    20    21    2
     9    21    22    1
    10    22    23    2
    11    23    24    1
    12     3     4   ar
    13     4     5   ar
    14     5     6   ar
    15     6     7   ar
    16     7     8   ar
    17     8     9   ar
    18     9    25    1
    19    25    26    1
    20     9    10   ar
    21    10    11   ar
    22    11    12   ar
    23    12    13    2
    24    12    14   ar
    25    14    29    1
    26    29    30    1
    27    30    31    1
    28    14    15   ar
    29    15     2   ar
    30    24    16    1
    31    15     6   ar
    32    23    19    1
    33    11     7   ar
    34    31    29    1
    35    26    27    1
    36    26    28    1
@<TRIPOS>MOLECULE
*****
 31 36 0 0 0
SMALL
GASTEIGER

@<TRIPOS>ATOM
      1 C         -16.4381   -1.2316   18.9143 C.3     1  UNL1        0.0325
      2 C         -14.9565   -1.4117   18.7653 C.ar    1  UNL1       -0.0062
      3 C         -14.0785   -0.2229   18.5082 C.ar    1  UNL1       -0.0062
      4 C         -12.5969   -0.4031   18.3592 C.ar    1  UNL1       -0.0004
      5 C         -11.9931   -1.7719   18.4672 C.ar    1  UNL1        0.0045
      6 C         -12.8709   -2.9607   18.7243 C.ar    1  UNL1        0.0518
      7 C         -12.2672   -4.3296   18.8324 C.ar    1  UNL1        0.1704
      8 O         -10.8508   -4.8127   18.7304 O.2     1  UNL1       -0.4368
      9 C         -10.8534   -6.3001   18.9245 C.ar    1  UNL1        0.2217
     10 N         -12.2714   -6.7362   19.1464 N.ar    1  UNL1       -0.2060
     11 C         -13.1452   -5.5183   19.0894 C.ar    1  UNL1        0.1744
     12 C         -14.6268   -5.3382   19.2384 C.ar    1  UNL1        0.2816
     13 O         -15.5048   -6.5270   19.4955 O.2     1  UNL1       -0.2652
     14 N         -15.2305   -3.9694   19.1304 N.ar    1  UNL1       -0.2963
     15 C         -14.3527   -2.7807   18.8733 C.ar    1  UNL1        0.0614
     16 C         -14.6822    1.1459   18.4001 C.2     1  UNL1       -0.0179
     17 C         -14.8018    1.8092   17.0601 C.2     1  UNL1       -0.0024
     18 C         -15.4055    3.1781   16.9520 C.2     1  UNL1        0.0203
     19 C         -15.8897    3.8837   18.1839 C.2     1  UNL1        0.1007
     20 N         -16.5240    5.2278   18.3869 N.2     1  UNL1       -0.1482
     21 N         -16.7964    5.3952   19.8525 N.2     1  UNL1       -0.1467
     22 C         -16.3305    4.1546   20.5552 C.2     1  UNL1        0.1197
     23 C         -15.7701    3.2205   19.5240 C.2     1  UNL1        0.0225
     24 C         -15.1663    1.8515   19.6321 C.3     1  UNL1        0.0558
     25 C          -9.6494   -7.1944   18.9008 C.3     1  UNL1        0.1518
     26 N          -9.7074   -8.5116   18.1855 N.3     1  UNL1       -0.3134
     27 H         -10.3680   -9.1272   18.6598 H       1  UNL1        0.1193
     28 H          -8.7819   -8.9403   18.1869 H       1  UNL1        0.1193
     29 C         -16.7123   -3.7893   19.2794 C.3     1  UNL1        0.0885
     30 C         -17.9035   -3.4790   20.1366 C.3     1  UNL1        0.0246
     31 C         -18.0874   -3.7878   18.6802 C.3     1  UNL1        0.0246
@<TRIPOS>BOND
     1     1     2    1
     2     2     3   ar
     3     3    16    1
     4    16    17    2
     5    17    18    1
     6    18    19    2
     7    19    20    1
     8    20    21    2
     9    21    22    1
    10    22    23    2
    11    23    24    1
    12     3     4   ar
    13     4     5   ar
    14     5     6   ar
    15     6     7   ar
    16     7     8   ar
    17     8     9   ar
    18     9    25    1
    19    25    26    1
    20     9    10   ar
    21    10    11   ar
    22    11    12   ar
    23    12    13    2
    24    12    14   ar
    25    14    29    1
    26    29    30    1
    27    30    31    1
    28    14    15   ar
    29    15     2   ar
    30    24    16    1
    31    15     6   ar
    32    23    19    1
    33    11     7   ar
    34    31    29    1
    35    26    27    1
    36    26    28    1
@<TRIPOS>MOLECULE
*****
 31 36 0 0 0
SMALL
GASTEIGER

@<TRIPOS>ATOM
      1 C          -0.4874    2.7201   24.2444 C.3     1  UNL1        0.0325
      2 C           0.6426    1.8182   23.8447 C.ar    1  UNL1       -0.0062
      3 C           1.4142    1.0729   24.8931 C.ar    1  UNL1       -0.0062
      4 C           2.5441    0.1710   24.4934 C.ar    1  UNL1       -0.0004
      5 C           2.9025    0.0143   23.0453 C.ar    1  UNL1        0.0045
      6 C           2.1309    0.7596   21.9968 C.ar    1  UNL1        0.0518
      7 C           2.4892    0.6029   20.5487 C.ar    1  UNL1        0.1704
      8 O           3.5449   -0.2087   19.8581 O.2     1  UNL1       -0.4368
      9 C           3.4256    0.0350   18.3828 C.ar    1  UNL1        0.2217
     10 N           2.2963    0.9972   18.1617 N.ar    1  UNL1       -0.2060
     11 C           1.7176    1.3482   19.5003 C.ar    1  UNL1        0.1744
     12 C           0.5877    2.2501   19.9000 C.ar    1  UNL1        0.2816
     13 O          -0.1840    2.9954   18.8516 O.2     1  UNL1       -0.2652
     14 N           0.2293    2.4067   21.3481 N.ar    1  UNL1       -0.2963
     15 C           1.0009    1.6615   22.3965 C.ar    1  UNL1        0.0614
     16 C           1.0559    1.2296   26.3412 C.2     1  UNL1       -0.0179
     17 C           1.9200    2.0616   27.2418 C.2     1  UNL1       -0.0024
     18 C           1.5618    2.2183   28.6899 C.2     1  UNL1        0.0203
     19 C           0.3394    1.5430   29.2375 C.2     1  UNL1        0.1007
     20 N          -0.2615    1.5153   30.6116 N.2     1  UNL1       -0.1482
     21 N          -1.4970    0.6662   30.5602 N.2     1  UNL1       -0.1467
     22 C          -1.6597    0.1691   29.1544 C.2     1  UNL1        0.1197
     23 C          -0.5247    0.7110   28.3369 C.2     1  UNL1        0.0225
     24 C          -0.1665    0.5543   26.8887 C.3     1  UNL1        0.0558
     25 C           4.2849   -0.5762   17.3160 C.3     1  UNL1        0.1518
     26 N           3.6558   -1.3698   16.2095 N.3     1  UNL1       -0.3134
     27 H           3.2345   -2.2152   16.5944 H       1  UNL1        0.1193
     28 H           4.3691   -1.6259   15.5268 H       1  UNL1        0.1193
     29 C          -0.9007    3.3087   21.7477 C.3     1  UNL1        0.0885
     30 C          -1.3969    4.6583   22.1749 C.3     1  UNL1        0.0246
     31 C          -2.3617    3.5213   22.0128 C.3     1  UNL1        0.0246
@<TRIPOS>BOND
     1     1     2    1
     2     2     3   ar
     3     3    16    1
     4    16    17    2
     5    17    18    1
     6    18    19    2
     7    19    20    1
     8    20    21    2
     9    21    22    1
    10    22    23    2
    11    23    24    1
    12     3     4   ar
    13     4     5   ar
    14     5     6   ar
    15     6     7   ar
    16     7     8   ar
    17     8     9   ar
    18     9    25    1
    19    25    26    1
    20     9    10   ar
    21    10    11   ar
    22    11    12   ar
    23    12    13    2
    24    12    14   ar
    25    14    29    1
    26    29    30    1
    27    30    31    1
    28    14    15   ar
    29    15     2   ar
    30    24    16    1
    31    15     6   ar
    32    23    19    1
    33    11     7   ar
    34    31    29    1
    35    26    27    1
    36    26    28    1
@<TRIPOS>MOLECULE
*****
 31 36 0 0 0
SMALL
GASTEIGER

@<TRIPOS>ATOM
      1 C         -17.5003   -2.8654   19.2392 C.3     1  UNL1        0.0325
      2 C         -16.0041   -2.7611   19.2185 C.ar    1  UNL1       -0.0062
      3 C         -15.3445   -1.4175   19.3169 C.ar    1  UNL1       -0.0062
      4 C         -13.8483   -1.3133   19.2962 C.ar    1  UNL1       -0.0004
      5 C         -13.0116   -2.5525   19.1772 C.ar    1  UNL1        0.0045
      6 C         -13.6712   -3.8962   19.0788 C.ar    1  UNL1        0.0518
      7 C         -12.8346   -5.1355   18.9598 C.ar    1  UNL1        0.1704
      8 O         -11.3498   -5.3435   18.9135 O.2     1  UNL1       -0.4368
      9 C         -11.0918   -6.8156   18.7865 C.ar    1  UNL1        0.2217
     10 N         -12.4170   -7.5175   18.7543 N.ar    1  UNL1       -0.2060
     11 C         -13.4942   -6.4791   18.8614 C.ar    1  UNL1        0.1744
     12 C         -14.9904   -6.5833   18.8820 C.ar    1  UNL1        0.2816
     13 O         -15.6500   -7.9269   18.7837 O.2     1  UNL1       -0.2652
     14 N         -15.8270   -5.3440   19.0011 N.ar    1  UNL1       -0.2963
     15 C         -15.1675   -4.0005   19.0995 C.ar    1  UNL1        0.0614
     16 C         -16.1811   -0.1782   19.4359 C.2     1  UNL1       -0.0179
     17 C         -16.5445    0.6022   18.2076 C.2     1  UNL1       -0.0024
     18 C         -17.3811    1.8415   18.3265 C.2     1  UNL1        0.0203
     19 C         -17.8543    2.3005   19.6739 C.2     1  UNL1        0.1007
     20 N         -18.6858    3.4741   20.0995 N.2     1  UNL1       -0.1482
     21 N         -18.8363    3.4191   21.5909 N.2     1  UNL1       -0.1467
     22 C         -18.0978    2.2115   22.0871 C.2     1  UNL1        0.1197
     23 C         -17.4909    1.5201   20.9023 C.2     1  UNL1        0.0225
     24 C         -16.6543    0.2807   20.7833 C.3     1  UNL1        0.0558
     25 C          -9.7449   -7.4709   18.7058 C.3     1  UNL1        0.1518
     26 N          -9.6012   -8.8115   18.0483 N.3     1  UNL1       -0.3134
     27 H         -10.1001   -9.5135   18.5949 H       1  UNL1        0.1193
     28 H          -8.6134   -9.0603   17.9958 H       1  UNL1        0.1193
     29 C         -17.3233   -5.4484   19.0217 C.3     1  UNL1        0.0885
     30 C         -18.6391   -5.3982   18.3033 C.3     1  UNL1        0.0246
     31 C         -18.5990   -5.6794   19.7761 C.3     1  UNL1        0.0246
@<TRIPOS>BOND
     1     1     2    1
     2     2     3   ar
     3     3    16    1
     4    16    17    2
     5    17    18    1
     6    18    19    2
     7    19    20    1
     8    20    21    2
     9    21    22    1
    10    22    23    2
    11    23    24    1
    12     3     4   ar
    13     4     5   ar
    14     5     6   ar
    15     6     7   ar
    16     7     8   ar
    17     8     9   ar
    18     9    25    1
    19    25    26    1
    20     9    10   ar
    21    10    11   ar
    22    11    12   ar
    23    12    13    2
    24    12    14   ar
    25    14    29    1
    26    29    30    1
    27    30    31    1
    28    14    15   ar
    29    15     2   ar
    30    24    16    1
    31    15     6   ar
    32    23    19    1
    33    11     7   ar
    34    31    29    1
    35    26    27    1
    36    26    28    1
@<TRIPOS>MOLECULE
*****
 31 36 0 0 0
SMALL
GASTEIGER

@<TRIPOS>ATOM
      1 C           0.7445    2.6208   23.7766 C.3     1  UNL1        0.0325
      2 C          -0.7117    2.9789   23.7433 C.ar    1  UNL1       -0.0062
      3 C          -1.4882    3.0820   25.0225 C.ar    1  UNL1       -0.0062
      4 C          -2.9444    3.4401   24.9892 C.ar    1  UNL1       -0.0004
      5 C          -3.6243    3.6951   23.6767 C.ar    1  UNL1        0.0045
      6 C          -2.8479    3.5920   22.3974 C.ar    1  UNL1        0.0518
      7 C          -3.5277    3.8470   21.0848 C.ar    1  UNL1        0.1704
      8 O          -4.9406    4.2154   20.7412 O.2     1  UNL1       -0.4368
      9 C          -5.0373    4.3401   19.2495 C.ar    1  UNL1        0.2217
     10 N          -3.6843    4.0486   18.6713 N.ar    1  UNL1       -0.2060
     11 C          -2.7513    3.7438   19.8056 C.ar    1  UNL1        0.1744
     12 C          -1.2950    3.3857   19.8389 C.ar    1  UNL1        0.2816
     13 O          -0.5186    3.2826   18.5596 O.2     1  UNL1       -0.2652
     14 N          -0.6152    3.1308   21.1514 N.ar    1  UNL1       -0.2963
     15 C          -1.3916    3.2339   22.4306 C.ar    1  UNL1        0.0614
     16 C          -0.8084    2.8271   26.3351 C.2     1  UNL1       -0.0179
     17 C          -0.2953    3.9773   27.1499 C.2     1  UNL1       -0.0024
     18 C           0.3845    3.7224   28.4624 C.2     1  UNL1        0.0203
     19 C           0.5513    2.3173   28.9603 C.2     1  UNL1        0.1007
     20 N           1.1747    1.7612   30.2061 N.2     1  UNL1       -0.1482
     21 N           1.0469    0.2673   30.1614 N.2     1  UNL1       -0.1467
     22 C           0.3445   -0.0999   28.8878 C.2     1  UNL1        0.1197
     23 C           0.0382    1.1671   28.1455 C.2     1  UNL1        0.0225
     24 C          -0.6416    1.4219   26.8329 C.3     1  UNL1        0.0558
     25 C          -6.2706    4.6940   18.4725 C.3     1  UNL1        0.1518
     26 N          -7.5239    3.8887   18.6471 N.3     1  UNL1       -0.3134
     27 H          -7.3704    2.9414   18.3014 H       1  UNL1        0.1193
     28 H          -8.2831    4.3232   18.1225 H       1  UNL1        0.1193
     29 C           0.8411    2.7727   21.1846 C.3     1  UNL1        0.0885
     30 C           2.2800    3.1897   21.2584 C.3     1  UNL1        0.0246
     31 C           1.9244    1.7353   21.1684 C.3     1  UNL1        0.0246
@<TRIPOS>BOND
     1     1     2    1
     2     2     3   ar
     3     3    16    1
     4    16    17    2
     5    17    18    1
     6    18    19    2
     7    19    20    1
     8    20    21    2
     9    21    22    1
    10    22    23    2
    11    23    24    1
    12     3     4   ar
    13     4     5   ar
    14     5     6   ar
    15     6     7   ar
    16     7     8   ar
    17     8     9   ar
    18     9    25    1
    19    25    26    1
    20     9    10   ar
    21    10    11   ar
    22    11    12   ar
    23    12    13    2
    24    12    14   ar
    25    14    29    1
    26    29    30    1
    27    30    31    1
    28    14    15   ar
    29    15     2   ar
    30    24    16    1
    31    15     6   ar
    32    23    19    1
    33    11     7   ar
    34    31    29    1
    35    26    27    1
    36    26    28    1
