@<TRIPOS>MOLECULE
*****
 31 34 0 0 0
SMALL
GASTEIGER

@<TRIPOS>ATOM
      1 C          -7.6823  -18.3033   21.6453 C.ar    1  UNL1        0.0424
      2 C          -7.5505  -17.3950   22.8317 C.ar    1  UNL1        0.0779
      3 N          -8.8742  -16.7243   23.0511 N.ar    1  UNL1       -0.3253
      4 C          -9.8239  -17.2180   22.0003 C.ar    1  UNL1        0.0707
      5 C         -11.2643  -16.9051   21.7224 C.ar    1  UNL1        0.0734
      6 CL        -12.0010  -15.9292   22.5912 Cl      1  UNL1       -0.0807
      7 C         -11.9680  -17.5681   20.5756 C.ar    1  UNL1        0.0129
      8 C         -11.2314  -18.5440   19.7067 C.ar    1  UNL1        0.0010
      9 C          -9.7910  -18.8569   19.9846 C.ar    1  UNL1        0.0016
     10 C          -9.0873  -18.1939   21.1314 C.ar    1  UNL1        0.0200
     11 C          -4.4408  -19.9407   20.2749 C.ar    1  UNL1        0.0822
     12 C          -5.4239  -21.0617   20.1103 C.ar    1  UNL1        0.0530
     13 S          -6.7578  -20.5848   20.6036 S.2     1  UNL1       -0.0662
     14 C          -6.5991  -19.1690   21.0731 C.ar    1  UNL1        0.1119
     15 N          -5.1673  -18.7710   20.8700 N.ar    1  UNL1       -0.2412
     16 C          -2.9869  -19.9822   19.9088 C.3     1  UNL1        0.1192
     17 N          -2.0375  -18.9784   20.4928 N.3     1  UNL1       -0.2668
     18 C          -1.8942  -17.5878   18.3029 C.3     1  UNL1        0.0174
     19 C          -1.2798  -18.0497   19.5909 C.3     1  UNL1        0.0580
     20 C           0.0925  -17.5829   19.9771 C.3     1  UNL1        0.0174
     21 C          -1.8458  -18.9034   21.9786 C.3     1  UNL1        0.1045
     22 C          -2.5025  -17.8079   22.7651 C.3     1  UNL1        0.1544
     23 O          -3.1852  -16.6784   22.0524 O.3     1  UNL1       -0.3805
     24 H          -2.5267  -16.1572   21.5670 H       1  UNL1        0.2105
     25 C          -9.1922  -15.7336   24.1316 C.3     1  UNL1        0.1062
     26 C          -8.2119  -15.4936   25.2414 C.3     1  UNL1        0.0276
     27 C          -8.6622  -15.5722   26.6700 C.3     1  UNL1        0.0341
     28 C          -7.6820  -15.3322   27.7797 C.3     1  UNL1        0.1422
     29 O          -6.2514  -15.0136   27.4608 O.3     1  UNL1       -0.3538
     30 C          -5.8010  -14.9350   26.0321 C.3     1  UNL1        0.1422
     31 C          -6.7812  -15.1750   24.9224 C.3     1  UNL1        0.0341
@<TRIPOS>BOND
     1    18    19    1
     2    19    20    1
     3    19    17    1
     4    17    21    1
     5    21    22    1
     6    22    23    1
     7    17    16    1
     8    16    11    1
     9    11    12   ar
    10    12    13   ar
    11    13    14   ar
    12    14     1    1
    13     1     2   ar
    14     2     3   ar
    15     3    25    1
    16    25    26    1
    17    26    27    1
    18    27    28    1
    19    28    29    1
    20    29    30    1
    21    30    31    1
    22     3     4   ar
    23     4     5   ar
    24     5     6    1
    25     5     7   ar
    26     7     8   ar
    27     8     9   ar
    28     9    10   ar
    29    14    15   ar
    30    15    11   ar
    31    10     1   ar
    32    31    26    1
    33    10     4   ar
    34    23    24    1
@<TRIPOS>MOLECULE
*****
 31 34 0 0 0
SMALL
GASTEIGER

@<TRIPOS>ATOM
      1 C          -6.9311  -18.9889   21.2645 C.ar    1  UNL1        0.0424
      2 C          -5.7555  -19.7791   20.7709 C.ar    1  UNL1        0.0779
      3 N          -4.5320  -19.2835   21.4833 N.ar    1  UNL1       -0.3253
      4 C          -4.9515  -18.1871   22.4171 C.ar    1  UNL1        0.0707
      5 C          -4.1748  -17.3310   23.3731 C.ar    1  UNL1        0.0734
      6 CL         -2.6921  -17.5131   23.5083 Cl      1  UNL1       -0.0807
      7 C          -4.8809  -16.2928   24.1937 C.ar    1  UNL1        0.0129
      8 C          -6.3637  -16.1108   24.0585 C.ar    1  UNL1        0.0010
      9 C          -7.1403  -16.9668   23.1025 C.ar    1  UNL1        0.0016
     10 C          -6.4342  -18.0050   22.2818 C.ar    1  UNL1        0.0200
     11 C         -10.7804  -19.1150   20.7818 C.ar    1  UNL1        0.0822
     12 C         -10.3062  -19.6995   19.4843 C.ar    1  UNL1        0.0530
     13 S          -8.8066  -19.7234   19.5072 S.2     1  UNL1       -0.0662
     14 C          -8.3539  -19.1537   20.8188 C.ar    1  UNL1        0.1119
     15 N          -9.5737  -18.7777   21.6066 N.ar    1  UNL1       -0.2412
     16 C         -12.2100  -18.9048   21.1840 C.3     1  UNL1        0.1192
     17 N         -12.5630  -17.8225   22.1607 N.3     1  UNL1       -0.2668
     18 C         -11.7140  -18.5826   24.4955 C.3     1  UNL1        0.0174
     19 C         -12.8388  -18.1669   23.5944 C.3     1  UNL1        0.0580
     20 C         -14.2392  -18.0955   24.1269 C.3     1  UNL1        0.0174
     21 C         -12.6403  -16.3958   21.7038 C.3     1  UNL1        0.1045
     22 C         -11.9923  -15.9849   20.4150 C.3     1  UNL1        0.1544
     23 O         -12.8397  -15.6147   19.2339 O.3     1  UNL1       -0.3805
     24 H         -13.3275  -16.3955   18.9285 H       1  UNL1        0.2105
     25 C          -3.1344  -19.7946   21.2950 C.3     1  UNL1        0.1062
     26 C          -2.1857  -19.0676   20.3885 C.3     1  UNL1        0.0276
     27 C          -0.7667  -18.8378   20.8169 C.3     1  UNL1        0.0341
     28 C           0.1820  -18.1108   19.9106 C.3     1  UNL1        0.1422
     29 O          -0.2884  -17.6138   18.5758 O.3     1  UNL1       -0.3538
     30 C          -1.7074  -17.8436   18.1474 C.3     1  UNL1        0.1422
     31 C          -2.6561  -18.5706   19.0537 C.3     1  UNL1        0.0341
@<TRIPOS>BOND
     1    18    19    1
     2    19    20    1
     3    19    17    1
     4    17    21    1
     5    21    22    1
     6    22    23    1
     7    17    16    1
     8    16    11    1
     9    11    12   ar
    10    12    13   ar
    11    13    14   ar
    12    14     1    1
    13     1     2   ar
    14     2     3   ar
    15     3    25    1
    16    25    26    1
    17    26    27    1
    18    27    28    1
    19    28    29    1
    20    29    30    1
    21    30    31    1
    22     3     4   ar
    23     4     5   ar
    24     5     6    1
    25     5     7   ar
    26     7     8   ar
    27     8     9   ar
    28     9    10   ar
    29    14    15   ar
    30    15    11   ar
    31    10     1   ar
    32    31    26    1
    33    10     4   ar
    34    23    24    1
@<TRIPOS>MOLECULE
*****
 31 34 0 0 0
SMALL
GASTEIGER

@<TRIPOS>ATOM
      1 C          -7.0396  -18.9279   21.6375 C.ar    1  UNL1        0.0424
      2 C          -5.8971  -19.7614   21.1376 C.ar    1  UNL1        0.0779
      3 N          -4.6333  -19.2260   21.7428 N.ar    1  UNL1       -0.3253
      4 C          -4.9947  -18.0617   22.6167 C.ar    1  UNL1        0.0707
      5 C          -4.1618  -17.1455   23.4633 C.ar    1  UNL1        0.0734
      6 CL         -2.6746  -17.3298   23.5284 Cl      1  UNL1       -0.0807
      7 C          -4.8160  -16.0451   24.2448 C.ar    1  UNL1        0.0129
      8 C          -6.3033  -15.8608   24.1798 C.ar    1  UNL1        0.0010
      9 C          -7.1362  -16.7770   23.3332 C.ar    1  UNL1        0.0016
     10 C          -6.4819  -17.8774   22.5516 C.ar    1  UNL1        0.0200
     11 C         -10.9060  -19.2089   21.4426 C.ar    1  UNL1        0.0822
     12 C         -10.5171  -19.5838   20.0432 C.ar    1  UNL1        0.0530
     13 S          -9.0215  -19.5241   19.9459 S.2     1  UNL1       -0.0662
     14 C          -8.4859  -19.1124   21.2851 C.ar    1  UNL1        0.1119
     15 N          -9.6505  -18.9176   22.2101 N.ar    1  UNL1       -0.2412
     16 C         -12.3045  -19.1378   21.9800 C.3     1  UNL1        0.1192
     17 N         -12.8156  -17.8589   22.5742 N.3     1  UNL1       -0.2668
     18 C         -11.6443  -15.5623   22.8961 C.3     1  UNL1        0.0174
     19 C         -12.3655  -16.5408   22.0173 C.3     1  UNL1        0.0580
     20 C         -12.6368  -16.2012   20.5817 C.3     1  UNL1        0.0174
     21 C         -13.7767  -17.8980   23.7251 C.3     1  UNL1        0.1045
     22 C         -13.4199  -18.6465   24.9751 C.3     1  UNL1        0.1544
     23 O         -14.3894  -18.7028   26.1183 O.3     1  UNL1       -0.3805
     24 H         -14.5044  -17.8137   26.4888 H       1  UNL1        0.2105
     25 C          -3.2507  -19.7611   21.5142 C.3     1  UNL1        0.1062
     26 C          -2.3347  -19.0809   20.5402 C.3     1  UNL1        0.0276
     27 C          -2.8704  -18.5779   19.2325 C.3     1  UNL1        0.0341
     28 C          -1.9546  -17.8978   18.2586 C.3     1  UNL1        0.1422
     29 O          -0.5030  -17.7205   18.5925 O.3     1  UNL1       -0.3538
     30 C           0.0327  -18.2234   19.9002 C.3     1  UNL1        0.1422
     31 C          -0.8831  -18.9036   20.8741 C.3     1  UNL1        0.0341
@<TRIPOS>BOND
     1    18    19    1
     2    19    20    1
     3    19    17    1
     4    17    21    1
     5    21    22    1
     6    22    23    1
     7    17    16    1
     8    16    11    1
     9    11    12   ar
    10    12    13   ar
    11    13    14   ar
    12    14     1    1
    13     1     2   ar
    14     2     3   ar
    15     3    25    1
    16    25    26    1
    17    26    27    1
    18    27    28    1
    19    28    29    1
    20    29    30    1
    21    30    31    1
    22     3     4   ar
    23     4     5   ar
    24     5     6    1
    25     5     7   ar
    26     7     8   ar
    27     8     9   ar
    28     9    10   ar
    29    14    15   ar
    30    15    11   ar
    31    10     1   ar
    32    31    26    1
    33    10     4   ar
    34    23    24    1
@<TRIPOS>MOLECULE
*****
 31 34 0 0 0
SMALL
GASTEIGER

@<TRIPOS>ATOM
      1 C          -6.4178  -18.2489   22.3855 C.ar    1  UNL1        0.0424
      2 C          -7.9024  -18.4630   22.3763 C.ar    1  UNL1        0.0779
      3 N          -8.5113  -17.5317   23.3822 N.ar    1  UNL1       -0.3253
      4 C          -7.4030  -16.7419   24.0131 C.ar    1  UNL1        0.0707
      5 C          -7.4049  -15.6764   25.0689 C.ar    1  UNL1        0.0734
      6 CL         -8.6987  -15.2332   25.6848 Cl      1  UNL1       -0.0807
      7 C          -6.1128  -15.0542   25.5087 C.ar    1  UNL1        0.0129
      8 C          -4.8190  -15.4975   24.8927 C.ar    1  UNL1        0.0010
      9 C          -4.8171  -16.5630   23.8369 C.ar    1  UNL1        0.0016
     10 C          -6.1092  -17.1852   23.3971 C.ar    1  UNL1        0.0200
     11 C          -3.3655  -19.5590   20.3773 C.ar    1  UNL1        0.0822
     12 C          -4.3907  -20.6084   20.0642 C.ar    1  UNL1        0.0530
     13 S          -5.6588  -20.2453   20.7783 S.2     1  UNL1       -0.0662
     14 C          -5.4175  -18.9716   21.5329 C.ar    1  UNL1        0.1119
     15 N          -4.0003  -18.5474   21.2850 N.ar    1  UNL1       -0.2412
     16 C          -1.9538  -19.5269   19.8716 C.3     1  UNL1        0.1192
     17 N          -1.3780  -18.2497   19.3356 N.3     1  UNL1       -0.2668
     18 C           0.8869  -17.3740   20.2592 C.3     1  UNL1        0.0174
     19 C          -0.6124  -17.3331   20.2432 C.3     1  UNL1        0.0580
     20 C          -1.3462  -16.3756   21.1347 C.3     1  UNL1        0.0174
     21 C          -1.5678  -17.8892   17.8920 C.3     1  UNL1        0.1045
     22 C          -2.7051  -17.0002   17.4843 C.3     1  UNL1        0.1544
     23 O          -3.7906  -16.6727   18.4664 O.3     1  UNL1       -0.3805
     24 H          -4.2845  -17.4789   18.6832 H       1  UNL1        0.2105
     25 C          -9.9720  -17.4112   23.7012 C.3     1  UNL1        0.1062
     26 C         -10.9627  -17.1706   22.6008 C.3     1  UNL1        0.0276
     27 C         -12.2993  -17.8507   22.6330 C.3     1  UNL1        0.0341
     28 C         -13.2899  -17.6102   21.5327 C.3     1  UNL1        0.1422
     29 O         -12.9440  -16.6895   20.4002 O.3     1  UNL1       -0.3538
     30 C         -11.6074  -16.0093   20.3680 C.3     1  UNL1        0.1422
     31 C         -10.6168  -16.2499   21.4683 C.3     1  UNL1        0.0341
@<TRIPOS>BOND
     1    18    19    1
     2    19    20    1
     3    19    17    1
     4    17    21    1
     5    21    22    1
     6    22    23    1
     7    17    16    1
     8    16    11    1
     9    11    12   ar
    10    12    13   ar
    11    13    14   ar
    12    14     1    1
    13     1     2   ar
    14     2     3   ar
    15     3    25    1
    16    25    26    1
    17    26    27    1
    18    27    28    1
    19    28    29    1
    20    29    30    1
    21    30    31    1
    22     3     4   ar
    23     4     5   ar
    24     5     6    1
    25     5     7   ar
    26     7     8   ar
    27     8     9   ar
    28     9    10   ar
    29    14    15   ar
    30    15    11   ar
    31    10     1   ar
    32    31    26    1
    33    10     4   ar
    34    23    24    1
@<TRIPOS>MOLECULE
*****
 31 34 0 0 0
SMALL
GASTEIGER

@<TRIPOS>ATOM
      1 C          -6.5390  -18.2003   22.5087 C.ar    1  UNL1        0.0424
      2 C          -8.0183  -18.4479   22.5011 C.ar    1  UNL1        0.0779
      3 N          -8.6464  -17.5342   23.5114 N.ar    1  UNL1       -0.3253
      4 C          -7.5552  -16.7220   24.1435 C.ar    1  UNL1        0.0707
      5 C          -7.5793  -15.6607   25.2032 C.ar    1  UNL1        0.0734
      6 CL         -8.8818  -15.2491   25.8230 Cl      1  UNL1       -0.0807
      7 C          -6.3009  -15.0111   25.6433 C.ar    1  UNL1        0.0129
      8 C          -4.9984  -15.4227   25.0235 C.ar    1  UNL1        0.0010
      9 C          -4.9743  -16.4840   23.9638 C.ar    1  UNL1        0.0016
     10 C          -6.2527  -17.1336   23.5238 C.ar    1  UNL1        0.0200
     11 C          -3.4848  -19.3997   20.4353 C.ar    1  UNL1        0.0822
     12 C          -4.4394  -20.5386   20.2307 C.ar    1  UNL1        0.0530
     13 S          -5.6997  -20.2279   20.9825 S.2     1  UNL1       -0.0662
     14 C          -5.5240  -18.8970   21.6517 C.ar    1  UNL1        0.1119
     15 N          -4.1552  -18.3852   21.3136 N.ar    1  UNL1       -0.2412
     16 C          -2.1027  -19.2940   19.8623 C.3     1  UNL1        0.1192
     17 N          -1.5968  -17.9731   19.3630 N.3     1  UNL1       -0.2668
     18 C          -3.1989  -16.5839   17.8620 C.3     1  UNL1        0.0174
     19 C          -2.0035  -17.4784   18.0066 C.3     1  UNL1        0.0580
     20 C          -1.2149  -17.8781   16.7949 C.3     1  UNL1        0.0174
     21 C          -0.6841  -17.1470   20.2200 C.3     1  UNL1        0.1045
     22 C          -1.2399  -16.3731   21.3785 C.3     1  UNL1        0.1544
     23 O          -2.6634  -15.9010   21.3514 O.3     1  UNL1       -0.3805
     24 H          -2.7719  -15.2413   20.6486 H       1  UNL1        0.2105
     25 C         -10.1089  -17.4480   23.8333 C.3     1  UNL1        0.1062
     26 C         -11.1060  -17.2184   22.7363 C.3     1  UNL1        0.0276
     27 C         -10.7774  -16.2877   21.6068 C.3     1  UNL1        0.0341
     28 C         -11.7744  -16.0580   20.5099 C.3     1  UNL1        0.1422
     29 O         -13.1000  -16.7592   20.5425 O.3     1  UNL1       -0.3538
     30 C         -13.4287  -17.6899   21.6720 C.3     1  UNL1        0.1422
     31 C         -12.4317  -17.9195   22.7689 C.3     1  UNL1        0.0341
@<TRIPOS>BOND
     1    18    19    1
     2    19    20    1
     3    19    17    1
     4    17    21    1
     5    21    22    1
     6    22    23    1
     7    17    16    1
     8    16    11    1
     9    11    12   ar
    10    12    13   ar
    11    13    14   ar
    12    14     1    1
    13     1     2   ar
    14     2     3   ar
    15     3    25    1
    16    25    26    1
    17    26    27    1
    18    27    28    1
    19    28    29    1
    20    29    30    1
    21    30    31    1
    22     3     4   ar
    23     4     5   ar
    24     5     6    1
    25     5     7   ar
    26     7     8   ar
    27     8     9   ar
    28     9    10   ar
    29    14    15   ar
    30    15    11   ar
    31    10     1   ar
    32    31    26    1
    33    10     4   ar
    34    23    24    1
@<TRIPOS>MOLECULE
*****
 31 34 0 0 0
SMALL
GASTEIGER

@<TRIPOS>ATOM
      1 C          -7.2571  -18.4176   21.6632 C.ar    1  UNL1        0.0424
      2 C          -8.6957  -18.5032   21.2472 C.ar    1  UNL1        0.0779
      3 N          -9.4717  -17.5052   22.0545 N.ar    1  UNL1       -0.3253
      4 C          -8.5128  -16.8029   22.9695 C.ar    1  UNL1        0.0707
      5 C          -8.7091  -15.7228   23.9916 C.ar    1  UNL1        0.0734
      6 CL        -10.0779  -15.1589   24.2334 Cl      1  UNL1       -0.0807
      7 C          -7.5367  -15.2066   24.7718 C.ar    1  UNL1        0.0129
      8 C          -6.1679  -15.7705   24.5300 C.ar    1  UNL1        0.0010
      9 C          -5.9716  -16.8506   23.5079 C.ar    1  UNL1        0.0016
     10 C          -7.1440  -17.3668   22.7276 C.ar    1  UNL1        0.0200
     11 C          -3.9092  -19.9611   20.4484 C.ar    1  UNL1        0.0822
     12 C          -4.8791  -21.0436   20.0773 C.ar    1  UNL1        0.0530
     13 S          -6.2512  -20.5971   20.4872 S.2     1  UNL1       -0.0662
     14 C          -6.1294  -19.2387   21.1116 C.ar    1  UNL1        0.1119
     15 N          -4.6821  -18.8457   21.0876 N.ar    1  UNL1       -0.2412
     16 C          -2.4270  -19.9891   20.2203 C.3     1  UNL1        0.1192
     17 N          -1.5745  -18.8470   20.6880 N.3     1  UNL1       -0.2668
     18 C           0.4840  -17.4018   20.0368 C.3     1  UNL1        0.0174
     19 C          -0.8495  -17.9942   19.6894 C.3     1  UNL1        0.0580
     20 C          -1.4581  -17.7339   18.3433 C.3     1  UNL1        0.0174
     21 C          -1.4469  -18.5576   22.1543 C.3     1  UNL1        0.1045
     22 C          -2.2442  -17.4471   22.7717 C.3     1  UNL1        0.1544
     23 O          -2.8645  -16.3950   21.9008 O.3     1  UNL1       -0.3805
     24 H          -2.1656  -15.8751   21.4741 H       1  UNL1        0.2105
     25 C         -10.9477  -17.2537   21.9629 C.3     1  UNL1        0.1062
     26 C         -11.8616  -17.7507   23.0437 C.3     1  UNL1        0.0276
     27 C         -11.3040  -18.5285   24.1986 C.3     1  UNL1        0.0341
     28 C         -12.2178  -19.0254   25.2793 C.3     1  UNL1        0.1422
     29 O         -13.6894  -18.7445   25.2050 O.3     1  UNL1       -0.3538
     30 C         -14.2471  -17.9667   24.0500 C.3     1  UNL1        0.1422
     31 C         -13.3332  -17.4697   22.9693 C.3     1  UNL1        0.0341
@<TRIPOS>BOND
     1    18    19    1
     2    19    20    1
     3    19    17    1
     4    17    21    1
     5    21    22    1
     6    22    23    1
     7    17    16    1
     8    16    11    1
     9    11    12   ar
    10    12    13   ar
    11    13    14   ar
    12    14     1    1
    13     1     2   ar
    14     2     3   ar
    15     3    25    1
    16    25    26    1
    17    26    27    1
    18    27    28    1
    19    28    29    1
    20    29    30    1
    21    30    31    1
    22     3     4   ar
    23     4     5   ar
    24     5     6    1
    25     5     7   ar
    26     7     8   ar
    27     8     9   ar
    28     9    10   ar
    29    14    15   ar
    30    15    11   ar
    31    10     1   ar
    32    31    26    1
    33    10     4   ar
    34    23    24    1
@<TRIPOS>MOLECULE
*****
 31 34 0 0 0
SMALL
GASTEIGER

@<TRIPOS>ATOM
      1 C           0.6323    1.1550   20.5676 C.ar    1  UNL1        0.0424
      2 C           1.1013    0.1936   19.5160 C.ar    1  UNL1        0.0779
      3 N           2.0727   -0.7542   20.1547 N.ar    1  UNL1       -0.3253
      4 C           2.2041   -0.3786   21.6009 C.ar    1  UNL1        0.0707
      5 C           3.0193   -0.9587   22.7184 C.ar    1  UNL1        0.0734
      6 CL          3.9096   -2.1386   22.4632 Cl      1  UNL1       -0.0807
      7 C           2.9443   -0.3587   24.0912 C.ar    1  UNL1        0.0129
      8 C           2.0541    0.8212   24.3464 C.ar    1  UNL1        0.0010
      9 C           1.2388    1.4013   23.2289 C.ar    1  UNL1        0.0016
     10 C           1.3138    0.8013   21.8561 C.ar    1  UNL1        0.0200
     11 C          -2.1754    3.8312   20.7127 C.ar    1  UNL1        0.0822
     12 C          -1.5298    4.1591   19.3990 C.ar    1  UNL1        0.0530
     13 S          -0.3995    3.1966   19.1847 S.2     1  UNL1       -0.0662
     14 C          -0.3465    2.2737   20.3660 C.ar    1  UNL1        0.1119
     15 N          -1.4439    2.6659   21.3102 N.ar    1  UNL1       -0.2412
     16 C          -3.3465    4.5434   21.3217 C.3     1  UNL1        0.1192
     17 N          -4.6746    3.8533   21.4220 N.3     1  UNL1       -0.2668
     18 C          -6.8461    5.0387   20.6289 C.3     1  UNL1        0.0174
     19 C          -5.7199    4.0821   20.3709 C.3     1  UNL1        0.0580
     20 C          -5.6391    3.3543   19.0618 C.3     1  UNL1        0.0174
     21 C          -4.9572    2.9344   22.5734 C.3     1  UNL1        0.1045
     22 C          -4.5718    3.3366   23.9661 C.3     1  UNL1        0.1544
     23 O          -5.5491    3.1716   25.0921 O.3     1  UNL1       -0.3805
     24 H          -6.3039    3.7652   24.9548 H       1  UNL1        0.2105
     25 C           2.7873   -1.8800   19.4677 C.3     1  UNL1        0.1062
     26 C           4.0584   -1.6142   18.7167 C.3     1  UNL1        0.0276
     27 C           5.2108   -2.5674   18.8318 C.3     1  UNL1        0.0341
     28 C           6.4818   -2.3017   18.0810 C.3     1  UNL1        0.1422
     29 O           6.6004   -1.0828   17.2149 O.3     1  UNL1       -0.3538
     30 C           5.4480   -0.1296   17.0997 C.3     1  UNL1        0.1422
     31 C           4.1769   -0.3953   17.8506 C.3     1  UNL1        0.0341
@<TRIPOS>BOND
     1    18    19    1
     2    19    20    1
     3    19    17    1
     4    17    21    1
     5    21    22    1
     6    22    23    1
     7    17    16    1
     8    16    11    1
     9    11    12   ar
    10    12    13   ar
    11    13    14   ar
    12    14     1    1
    13     1     2   ar
    14     2     3   ar
    15     3    25    1
    16    25    26    1
    17    26    27    1
    18    27    28    1
    19    28    29    1
    20    29    30    1
    21    30    31    1
    22     3     4   ar
    23     4     5   ar
    24     5     6    1
    25     5     7   ar
    26     7     8   ar
    27     8     9   ar
    28     9    10   ar
    29    14    15   ar
    30    15    11   ar
    31    10     1   ar
    32    31    26    1
    33    10     4   ar
    34    23    24    1
@<TRIPOS>MOLECULE
*****
 31 34 0 0 0
SMALL
GASTEIGER

@<TRIPOS>ATOM
      1 C          -6.6392  -18.6710   21.5085 C.ar    1  UNL1        0.0424
      2 C          -6.3691  -17.7427   22.6554 C.ar    1  UNL1        0.0779
      3 N          -4.8919  -17.7454   22.9158 N.ar    1  UNL1       -0.3253
      4 C          -4.2490  -18.6753   21.9299 C.ar    1  UNL1        0.0707
      5 C          -2.8199  -19.0751   21.7118 C.ar    1  UNL1        0.0734
      6 CL         -1.7400  -18.5030   22.5816 Cl      1  UNL1       -0.0807
      7 C          -2.4706  -20.0469   20.6240 C.ar    1  UNL1        0.0129
      8 C          -3.5505  -20.6190   19.7542 C.ar    1  UNL1        0.0010
      9 C          -4.9797  -20.2193   19.9723 C.ar    1  UNL1        0.0016
     10 C          -5.3290  -19.2474   21.0602 C.ar    1  UNL1        0.0200
     11 C         -10.3843  -19.0842   20.5760 C.ar    1  UNL1        0.0822
     12 C          -9.7203  -19.7782   19.4238 C.ar    1  UNL1        0.0530
     13 S          -8.2366  -19.7079   19.6329 S.2     1  UNL1       -0.0662
     14 C          -7.9836  -18.9704   20.9143 C.ar    1  UNL1        0.1119
     15 N          -9.3108  -18.5850   21.4971 N.ar    1  UNL1       -0.2412
     16 C         -11.8620  -18.9184   20.7725 C.3     1  UNL1        0.1192
     17 N         -12.3809  -17.8692   21.7105 N.3     1  UNL1       -0.2668
     18 C         -13.9909  -17.9643   23.7473 C.3     1  UNL1        0.0174
     19 C         -12.6376  -18.2096   23.1486 C.3     1  UNL1        0.0580
     20 C         -11.5411  -18.7953   23.9879 C.3     1  UNL1        0.0174
     21 C         -12.6431  -16.4795   21.2103 C.3     1  UNL1        0.1045
     22 C         -11.8586  -15.9389   20.0518 C.3     1  UNL1        0.1544
     23 O         -12.5733  -15.4006   18.8478 O.3     1  UNL1       -0.3805
     24 H         -13.0445  -16.1220   18.4022 H       1  UNL1        0.2105
     25 C          -4.1821  -16.9566   23.9760 C.3     1  UNL1        0.1062
     26 C          -4.9585  -16.3569   25.1108 C.3     1  UNL1        0.0276
     27 C          -4.9437  -17.0135   26.4593 C.3     1  UNL1        0.0341
     28 C          -5.7201  -16.4140   27.5941 C.3     1  UNL1        0.1422
     29 O          -6.5113  -15.1577   27.3803 O.3     1  UNL1       -0.3538
     30 C          -6.5261  -14.5010   26.0318 C.3     1  UNL1        0.1422
     31 C          -5.7497  -15.1006   24.8970 C.3     1  UNL1        0.0341
@<TRIPOS>BOND
     1    18    19    1
     2    19    20    1
     3    19    17    1
     4    17    21    1
     5    21    22    1
     6    22    23    1
     7    17    16    1
     8    16    11    1
     9    11    12   ar
    10    12    13   ar
    11    13    14   ar
    12    14     1    1
    13     1     2   ar
    14     2     3   ar
    15     3    25    1
    16    25    26    1
    17    26    27    1
    18    27    28    1
    19    28    29    1
    20    29    30    1
    21    30    31    1
    22     3     4   ar
    23     4     5   ar
    24     5     6    1
    25     5     7   ar
    26     7     8   ar
    27     8     9   ar
    28     9    10   ar
    29    14    15   ar
    30    15    11   ar
    31    10     1   ar
    32    31    26    1
    33    10     4   ar
    34    23    24    1
@<TRIPOS>MOLECULE
*****
 31 34 0 0 0
SMALL
GASTEIGER

@<TRIPOS>ATOM
      1 C         -13.9389   -4.0779   18.4032 C.ar    1  UNL1        0.0424
      2 C         -14.6263   -5.3774   18.1054 C.ar    1  UNL1        0.0779
      3 N         -13.5800   -6.4498   18.0351 N.ar    1  UNL1       -0.3253
      4 C         -12.2458   -5.8131   18.2894 C.ar    1  UNL1        0.0707
      5 C         -10.8576   -6.3788   18.3432 C.ar    1  UNL1        0.0734
      6 CL        -10.6358   -7.8448   18.1157 Cl      1  UNL1       -0.0807
      7 C          -9.6913   -5.4786   18.6245 C.ar    1  UNL1        0.0129
      8 C          -9.9131   -4.0126   18.8520 C.ar    1  UNL1        0.0010
      9 C         -11.3013   -3.4469   18.7982 C.ar    1  UNL1        0.0016
     10 C         -12.4676   -4.3471   18.5169 C.ar    1  UNL1        0.0200
     11 C         -15.7765   -0.8464   19.5196 C.ar    1  UNL1        0.0822
     12 C         -15.4865   -0.5329   18.0817 C.ar    1  UNL1        0.0530
     13 S         -14.7628   -1.7052   17.4885 S.2     1  UNL1       -0.0662
     14 C         -14.6056   -2.7433   18.5598 C.ar    1  UNL1        0.1119
     15 N         -15.2320   -2.2125   19.8150 N.ar    1  UNL1       -0.2412
     16 C         -16.4863    0.0489   20.4914 C.3     1  UNL1        0.1192
     17 N         -17.9853    0.0592   20.5447 N.3     1  UNL1       -0.2668
     18 C         -20.2002    1.1978   21.2848 C.3     1  UNL1        0.0174
     19 C         -18.7015    1.1383   21.3014 C.3     1  UNL1        0.0580
     20 C         -17.9189    2.1579   22.0748 C.3     1  UNL1        0.0174
     21 C         -18.7682   -1.0097   19.8413 C.3     1  UNL1        0.1045
     22 C         -19.0298   -2.3196   20.5236 C.3     1  UNL1        0.1544
     23 O         -17.9061   -3.2887   20.7431 O.3     1  UNL1       -0.3805
     24 H         -17.5867   -3.6129   19.8865 H       1  UNL1        0.2105
     25 C         -13.8247   -7.9037   17.7590 C.3     1  UNL1        0.1062
     26 C         -15.0069   -8.5948   18.3714 C.3     1  UNL1        0.0276
     27 C         -15.4292   -9.9442   17.8706 C.3     1  UNL1        0.0341
     28 C         -16.6113  -10.6353   18.4829 C.3     1  UNL1        0.1422
     29 O         -17.3712   -9.9769   19.5961 O.3     1  UNL1       -0.3538
     30 C         -16.9489   -8.6275   20.0969 C.3     1  UNL1        0.1422
     31 C         -15.7668   -7.9364   19.4846 C.3     1  UNL1        0.0341
@<TRIPOS>BOND
     1    18    19    1
     2    19    20    1
     3    19    17    1
     4    17    21    1
     5    21    22    1
     6    22    23    1
     7    17    16    1
     8    16    11    1
     9    11    12   ar
    10    12    13   ar
    11    13    14   ar
    12    14     1    1
    13     1     2   ar
    14     2     3   ar
    15     3    25    1
    16    25    26    1
    17    26    27    1
    18    27    28    1
    19    28    29    1
    20    29    30    1
    21    30    31    1
    22     3     4   ar
    23     4     5   ar
    24     5     6    1
    25     5     7   ar
    26     7     8   ar
    27     8     9   ar
    28     9    10   ar
    29    14    15   ar
    30    15    11   ar
    31    10     1   ar
    32    31    26    1
    33    10     4   ar
    34    23    24    1
