@<TRIPOS>MOLECULE
*****
 26 28 0 0 0
SMALL
GASTEIGER

@<TRIPOS>ATOM
      1 N           6.5916   -2.9088   30.0338 N.3     1  UNL1       -0.1549
      2 C           5.8082   -2.4932   28.8240 C.3     1  UNL1        0.1002
      3 C           6.1156   -3.0994   27.4868 C.3     1  UNL1        0.0418
      4 C           7.2064   -4.1211   27.3594 C.2     1  UNL1       -0.0331
      5 C           7.5139   -4.7272   26.0222 C.2     1  UNL1        0.0412
      6 C           7.9898   -4.5366   28.5691 C.3     1  UNL1        0.0418
      7 C           7.6824   -3.9304   29.9063 C.3     1  UNL1        0.1002
      8 S           6.2842   -2.3026   31.3710 S.O2    1  UNL1        0.0633
      9 O           6.5809   -3.6150   32.0341 O.2     1  UNL1       -0.1528
     10 O           5.9875   -0.9903   30.7079 O.2     1  UNL1       -0.1528
     11 C           5.0546    0.1220   36.7197 C.3     1  UNL1        0.0310
     12 C           5.3620   -0.4842   35.3825 C.ar    1  UNL1       -0.0218
     13 C           6.7004   -0.2554   34.7452 C.ar    1  UNL1       -0.0029
     14 C           7.0078   -0.8615   33.4080 C.ar    1  UNL1        0.0196
     15 C           5.9768   -1.6965   32.7082 C.ar    1  UNL1        0.1222
     16 C           4.6384   -1.9253   33.3455 C.ar    1  UNL1        0.0196
     17 C           4.3310   -1.3191   34.6827 C.ar    1  UNL1       -0.0029
     18 C           6.7305   -4.3117   24.8124 C.1     1  UNL1       -0.0583
     19 C           5.9470   -3.8961   23.6026 C.1     1  UNL1       -0.0405
     20 C           5.1636   -3.4806   22.3928 C.ar    1  UNL1        0.1224
     21 C           4.3186   -2.2419   22.4355 C.ar    1  UNL1        0.0276
     22 C           3.5352   -1.8264   21.2258 C.ar    1  UNL1        0.0034
     23 C           3.5968   -2.6495   19.9733 C.ar    1  UNL1        0.0148
     24 C           4.4417   -3.8881   19.9305 C.ar    1  UNL1        0.0600
     25 C           4.5033   -4.7111   18.6780 C.3     1  UNL1        0.0521
     26 N           5.2252   -4.3036   21.1403 N.ar    1  UNL1       -0.2414
@<TRIPOS>BOND
     1    11    12    1
     2    12    13   ar
     3    13    14   ar
     4    14    15   ar
     5    15     8    1
     6     8     9    2
     7     8    10    2
     8     8     1    1
     9     1     2    1
    10     2     3    1
    11     3     4    1
    12     4     5    2
    13     5    18    1
    14    18    19    3
    15    19    20    1
    16    20    21   ar
    17    21    22   ar
    18    22    23   ar
    19    23    24   ar
    20    24    25    1
    21    24    26   ar
    22     4     6    1
    23     6     7    1
    24    15    16   ar
    25    16    17   ar
    26    17    12   ar
    27     7     1    1
    28    26    20   ar
@<TRIPOS>MOLECULE
*****
 26 28 0 0 0
SMALL
GASTEIGER

@<TRIPOS>ATOM
      1 N           6.5662   -3.6236   29.8336 N.3     1  UNL1       -0.1549
      2 C           6.2507   -2.9925   28.5099 C.3     1  UNL1        0.1002
      3 C           6.5962   -3.7070   27.2371 C.3     1  UNL1        0.0418
      4 C           7.2571   -5.0525   27.2879 C.2     1  UNL1       -0.0331
      5 C           7.6025   -5.7670   26.0150 C.2     1  UNL1        0.0412
      6 C           7.5726   -5.6836   28.6116 C.3     1  UNL1        0.0418
      7 C           7.2272   -4.9691   29.8844 C.3     1  UNL1        0.1002
      8 S           6.2208   -2.9091   31.1065 S.O2    1  UNL1        0.0633
      9 O           5.7772   -1.7143   30.3154 O.2     1  UNL1       -0.1528
     10 O           6.6644   -4.1038   31.8975 O.2     1  UNL1       -0.1528
     11 C           4.8391   -0.0511   36.1979 C.3     1  UNL1        0.0310
     12 C           5.1845   -0.7656   34.9251 C.ar    1  UNL1       -0.0218
     13 C           6.5216   -0.5470   34.2814 C.ar    1  UNL1       -0.0029
     14 C           6.8670   -1.2614   33.0085 C.ar    1  UNL1        0.0196
     15 C           5.8754   -2.1946   32.3793 C.ar    1  UNL1        0.1222
     16 C           4.5383   -2.4133   33.0231 C.ar    1  UNL1        0.0196
     17 C           4.1929   -1.6988   34.2959 C.ar    1  UNL1       -0.0029
     18 C           7.2871   -5.1360   24.6913 C.1     1  UNL1       -0.0583
     19 C           6.9715   -4.5048   23.3676 C.1     1  UNL1       -0.0405
     20 C           6.6560   -3.8738   22.0439 C.ar    1  UNL1        0.1224
     21 C           7.6090   -2.8867   21.4374 C.ar    1  UNL1        0.0276
     22 C           7.2935   -2.2557   20.1138 C.ar    1  UNL1        0.0034
     23 C           6.0251   -2.6116   19.3965 C.ar    1  UNL1        0.0148
     24 C           5.0722   -3.5985   20.0029 C.ar    1  UNL1        0.0600
     25 C           3.8038   -3.9544   19.2856 C.3     1  UNL1        0.0521
     26 N           5.3876   -4.2297   21.3267 N.ar    1  UNL1       -0.2414
@<TRIPOS>BOND
     1    11    12    1
     2    12    13   ar
     3    13    14   ar
     4    14    15   ar
     5    15     8    1
     6     8     9    2
     7     8    10    2
     8     8     1    1
     9     1     2    1
    10     2     3    1
    11     3     4    1
    12     4     5    2
    13     5    18    1
    14    18    19    3
    15    19    20    1
    16    20    21   ar
    17    21    22   ar
    18    22    23   ar
    19    23    24   ar
    20    24    25    1
    21    24    26   ar
    22     4     6    1
    23     6     7    1
    24    15    16   ar
    25    16    17   ar
    26    17    12   ar
    27     7     1    1
    28    26    20   ar
@<TRIPOS>MOLECULE
*****
 26 28 0 0 0
SMALL
GASTEIGER

@<TRIPOS>ATOM
      1 N           1.9197    0.9975   29.9792 N.3     1  UNL1       -0.1549
      2 C           0.6299    1.7613   29.9254 C.3     1  UNL1        0.1002
      3 C          -0.0429    2.0052   28.6071 C.3     1  UNL1        0.0418
      4 C           0.5740    1.4853   27.3426 C.2     1  UNL1       -0.0331
      5 C          -0.0988    1.7292   26.0244 C.2     1  UNL1        0.0412
      6 C           1.8638    0.7214   27.3964 C.3     1  UNL1        0.0418
      7 C           2.5366    0.4775   28.7147 C.3     1  UNL1        0.1002
      8 S           2.5925    0.7536   31.2975 S.O2    1  UNL1        0.0633
      9 O           2.4130   -0.7245   31.1156 O.2     1  UNL1       -0.1528
     10 O           2.7719    2.2317   31.4793 O.2     1  UNL1       -0.1528
     11 C           5.2837   -0.2219   36.5706 C.3     1  UNL1        0.0310
     12 C           4.6109    0.0220   35.2523 C.ar    1  UNL1       -0.0218
     13 C           3.9498    1.3406   34.9803 C.ar    1  UNL1       -0.0029
     14 C           3.2770    1.5845   33.6620 C.ar    1  UNL1        0.0196
     15 C           3.2653    0.5097   32.6157 C.ar    1  UNL1        0.1222
     16 C           3.9264   -0.8089   32.8878 C.ar    1  UNL1        0.0196
     17 C           4.5992   -1.0528   34.2061 C.ar    1  UNL1       -0.0029
     18 C          -1.3885    2.4930   25.9705 C.1     1  UNL1       -0.0583
     19 C          -2.6784    3.2569   25.9168 C.1     1  UNL1       -0.0405
     20 C          -3.9682    4.0207   25.8630 C.ar    1  UNL1        0.1224
     21 C          -4.3326    4.9567   26.9770 C.ar    1  UNL1        0.0276
     22 C          -5.6224    5.7206   26.9232 C.ar    1  UNL1        0.0034
     23 C          -6.5478    5.5484   25.7554 C.ar    1  UNL1        0.0148
     24 C          -6.1835    4.6125   24.6413 C.ar    1  UNL1        0.0600
     25 C          -7.1090    4.4403   23.4735 C.3     1  UNL1        0.0521
     26 N          -4.8937    3.8486   24.6951 N.ar    1  UNL1       -0.2414
@<TRIPOS>BOND
     1    11    12    1
     2    12    13   ar
     3    13    14   ar
     4    14    15   ar
     5    15     8    1
     6     8     9    2
     7     8    10    2
     8     8     1    1
     9     1     2    1
    10     2     3    1
    11     3     4    1
    12     4     5    2
    13     5    18    1
    14    18    19    3
    15    19    20    1
    16    20    21   ar
    17    21    22   ar
    18    22    23   ar
    19    23    24   ar
    20    24    25    1
    21    24    26   ar
    22     4     6    1
    23     6     7    1
    24    15    16   ar
    25    16    17   ar
    26    17    12   ar
    27     7     1    1
    28    26    20   ar
@<TRIPOS>MOLECULE
*****
 26 28 0 0 0
SMALL
GASTEIGER

@<TRIPOS>ATOM
      1 N           1.8735    0.8778   29.9788 N.3     1  UNL1       -0.1549
      2 C           2.5167    0.4653   28.6881 C.3     1  UNL1        0.1002
      3 C           1.8069    0.7001   27.3877 C.3     1  UNL1        0.0418
      4 C           0.4538    1.3474   27.3780 C.2     1  UNL1       -0.0331
      5 C          -0.2561    1.5821   26.0777 C.2     1  UNL1        0.0412
      6 C          -0.1895    1.7598   28.6688 C.3     1  UNL1        0.0418
      7 C           0.5204    1.5251   29.9692 C.3     1  UNL1        0.1002
      8 S           2.5834    0.6431   31.2792 S.O2    1  UNL1        0.0633
      9 O           2.3963   -0.8361   31.1143 O.2     1  UNL1       -0.1528
     10 O           2.7705    2.1222   31.4441 O.2     1  UNL1       -0.1528
     11 C           5.4228   -0.2960   36.4807 C.3     1  UNL1        0.0310
     12 C           4.7130   -0.0613   35.1803 C.ar    1  UNL1       -0.0218
     13 C           4.0382    1.2530   34.9208 C.ar    1  UNL1       -0.0029
     14 C           3.3283    1.4878   33.6204 C.ar    1  UNL1        0.0196
     15 C           3.2932    0.4083   32.5795 C.ar    1  UNL1        0.1222
     16 C           3.9680   -0.9060   32.8390 C.ar    1  UNL1        0.0196
     17 C           4.6779   -1.1407   34.1394 C.ar    1  UNL1       -0.0029
     18 C           0.3871    1.1697   24.7869 C.1     1  UNL1       -0.0583
     19 C           1.0304    0.7572   23.4961 C.1     1  UNL1       -0.0405
     20 C           1.6737    0.3447   22.2054 C.ar    1  UNL1        0.1224
     21 C           2.8769   -0.5510   22.2196 C.ar    1  UNL1        0.0276
     22 C           3.5201   -0.9634   20.9289 C.ar    1  UNL1        0.0034
     23 C           2.9602   -0.4803   19.6239 C.ar    1  UNL1        0.0148
     24 C           1.7571    0.4153   19.6096 C.ar    1  UNL1        0.0600
     25 C           1.1972    0.8985   18.3046 C.3     1  UNL1        0.0521
     26 N           1.1138    0.8279   20.9004 N.ar    1  UNL1       -0.2414
@<TRIPOS>BOND
     1    11    12    1
     2    12    13   ar
     3    13    14   ar
     4    14    15   ar
     5    15     8    1
     6     8     9    2
     7     8    10    2
     8     8     1    1
     9     1     2    1
    10     2     3    1
    11     3     4    1
    12     4     5    2
    13     5    18    1
    14    18    19    3
    15    19    20    1
    16    20    21   ar
    17    21    22   ar
    18    22    23   ar
    19    23    24   ar
    20    24    25    1
    21    24    26   ar
    22     4     6    1
    23     6     7    1
    24    15    16   ar
    25    16    17   ar
    26    17    12   ar
    27     7     1    1
    28    26    20   ar
@<TRIPOS>MOLECULE
*****
 26 28 0 0 0
SMALL
GASTEIGER

@<TRIPOS>ATOM
      1 N           3.1442    0.3967   32.3234 N.3     1  UNL1       -0.1549
      2 C           3.0979    1.4807   33.3591 C.3     1  UNL1        0.1002
      3 C           3.7684    1.2797   34.6858 C.3     1  UNL1        0.0418
      4 C           4.4852   -0.0053   34.9767 C.2     1  UNL1       -0.0331
      5 C           5.1557   -0.2064   36.3034 C.2     1  UNL1        0.0412
      6 C           4.5316   -1.0894   33.9411 C.3     1  UNL1        0.0418
      7 C           3.8611   -0.8884   32.6144 C.3     1  UNL1        0.1002
      8 S           2.4737    0.5977   30.9968 S.O2    1  UNL1        0.0633
      9 O           2.2503   -0.8814   30.8856 O.2     1  UNL1       -0.1528
     10 O           2.6971    2.0768   31.1080 O.2     1  UNL1       -0.1528
     11 C          -0.2083    1.4018   25.6902 C.3     1  UNL1        0.0310
     12 C           0.4622    1.2008   27.0168 C.ar    1  UNL1       -0.0218
     13 C           1.9343    0.9195   27.0782 C.ar    1  UNL1       -0.0029
     14 C           2.6048    0.7184   28.4048 C.ar    1  UNL1        0.0196
     15 C           1.8032    0.7987   29.6701 C.ar    1  UNL1        0.1222
     16 C           0.3311    1.0801   29.6088 C.ar    1  UNL1        0.0196
     17 C          -0.3394    1.2811   28.2821 C.ar    1  UNL1       -0.0029
     18 C           5.1094    0.8777   37.3391 C.1     1  UNL1       -0.0583
     19 C           5.0631    1.9618   38.3748 C.1     1  UNL1       -0.0405
     20 C           5.0168    3.0458   39.4105 C.ar    1  UNL1        0.1224
     21 C           4.1722    4.2645   39.1833 C.ar    1  UNL1        0.0276
     22 C           4.1259    5.3486   40.2190 C.ar    1  UNL1        0.0034
     23 C           4.9240    5.2140   41.4819 C.ar    1  UNL1        0.0148
     24 C           5.7685    3.9953   41.7090 C.ar    1  UNL1        0.0600
     25 C           6.5667    3.8607   42.9719 C.3     1  UNL1        0.0521
     26 N           5.8149    2.9112   40.6733 N.ar    1  UNL1       -0.2414
@<TRIPOS>BOND
     1    11    12    1
     2    12    13   ar
     3    13    14   ar
     4    14    15   ar
     5    15     8    1
     6     8     9    2
     7     8    10    2
     8     8     1    1
     9     1     2    1
    10     2     3    1
    11     3     4    1
    12     4     5    2
    13     5    18    1
    14    18    19    3
    15    19    20    1
    16    20    21   ar
    17    21    22   ar
    18    22    23   ar
    19    23    24   ar
    20    24    25    1
    21    24    26   ar
    22     4     6    1
    23     6     7    1
    24    15    16   ar
    25    16    17   ar
    26    17    12   ar
    27     7     1    1
    28    26    20   ar
@<TRIPOS>MOLECULE
*****
 26 28 0 0 0
SMALL
GASTEIGER

@<TRIPOS>ATOM
      1 N           0.7176    1.5019   23.1074 N.3     1  UNL1       -0.1549
      2 C          -0.5539    2.2935   23.0261 C.3     1  UNL1        0.1002
      3 C          -1.2611    2.7077   24.2824 C.3     1  UNL1        0.0418
      4 C          -0.6967    2.3305   25.6200 C.2     1  UNL1       -0.0331
      5 C          -1.4039    2.7448   26.8763 C.2     1  UNL1        0.0412
      6 C           0.5748    1.5390   25.7012 C.3     1  UNL1        0.0418
      7 C           1.2820    1.1247   24.4450 C.3     1  UNL1        0.1002
      8 S           1.4248    1.0877   21.8511 S.O2    1  UNL1        0.0633
      9 O           0.1366    0.5483   21.3038 O.2     1  UNL1       -0.1528
     10 O           2.7130    1.6271   22.3984 O.2     1  UNL1       -0.1528
     11 C           4.2535   -0.5694   16.8259 C.3     1  UNL1        0.0310
     12 C           3.5463   -0.1552   18.0822 C.ar    1  UNL1       -0.0218
     13 C           3.1684   -1.1855   19.1047 C.ar    1  UNL1       -0.0029
     14 C           2.4612   -0.7712   20.3610 C.ar    1  UNL1        0.0196
     15 C           2.1320    0.6734   20.5948 C.ar    1  UNL1        0.1222
     16 C           2.5099    1.7037   19.5723 C.ar    1  UNL1        0.0196
     17 C           3.2171    1.2894   18.3160 C.ar    1  UNL1       -0.0029
     18 C          -2.6754    3.5363   26.7950 C.1     1  UNL1       -0.0583
     19 C          -3.9470    4.3279   26.7138 C.1     1  UNL1       -0.0405
     20 C          -5.2186    5.1194   26.6325 C.ar    1  UNL1        0.1224
     21 C          -5.9632    5.2112   25.3335 C.ar    1  UNL1        0.0276
     22 C          -7.2347    6.0027   25.2523 C.ar    1  UNL1        0.0034
     23 C          -7.7617    6.7025   26.4699 C.ar    1  UNL1        0.0148
     24 C          -7.0172    6.6107   27.7688 C.ar    1  UNL1        0.0600
     25 C          -7.5442    7.3105   28.9864 C.3     1  UNL1        0.0521
     26 N          -5.7456    5.8191   27.8501 N.ar    1  UNL1       -0.2414
@<TRIPOS>BOND
     1    11    12    1
     2    12    13   ar
     3    13    14   ar
     4    14    15   ar
     5    15     8    1
     6     8     9    2
     7     8    10    2
     8     8     1    1
     9     1     2    1
    10     2     3    1
    11     3     4    1
    12     4     5    2
    13     5    18    1
    14    18    19    3
    15    19    20    1
    16    20    21   ar
    17    21    22   ar
    18    22    23   ar
    19    23    24   ar
    20    24    25    1
    21    24    26   ar
    22     4     6    1
    23     6     7    1
    24    15    16   ar
    25    16    17   ar
    26    17    12   ar
    27     7     1    1
    28    26    20   ar
@<TRIPOS>MOLECULE
*****
 26 28 0 0 0
SMALL
GASTEIGER

@<TRIPOS>ATOM
      1 N           2.2970    0.3322   19.1375 N.3     1  UNL1       -0.1549
      2 C           2.7146   -0.2929   20.4355 C.3     1  UNL1        0.1002
      3 C           3.8336   -1.2915   20.4613 C.3     1  UNL1        0.0418
      4 C           4.5350   -1.6650   19.1892 C.2     1  UNL1       -0.0331
      5 C           5.6540   -2.6636   19.2150 C.2     1  UNL1        0.0412
      6 C           4.1175   -1.0399   17.8912 C.3     1  UNL1        0.0418
      7 C           2.9985   -0.0413   17.8653 C.3     1  UNL1        0.1002
      8 S           1.1780    1.3308   19.1116 S.O2    1  UNL1        0.0633
      9 O           0.3244    0.3950   19.9153 O.2     1  UNL1       -0.1528
     10 O           2.0316    2.2665   18.3080 O.2     1  UNL1       -0.1528
     11 C          -3.2979    5.3251   19.0083 C.3     1  UNL1        0.0310
     12 C          -2.1789    4.3265   19.0341 C.ar    1  UNL1       -0.0218
     13 C          -1.2997    4.1541   17.8311 C.ar    1  UNL1       -0.0029
     14 C          -0.1807    3.1555   17.8570 C.ar    1  UNL1        0.0196
     15 C           0.0590    2.3293   19.0858 C.ar    1  UNL1        0.1222
     16 C          -0.8202    2.5018   20.2888 C.ar    1  UNL1        0.0196
     17 C          -1.9392    3.5004   20.2629 C.ar    1  UNL1       -0.0029
     18 C           6.0716   -3.2887   20.5130 C.1     1  UNL1       -0.0583
     19 C           6.4891   -3.9139   21.8111 C.1     1  UNL1       -0.0405
     20 C           6.9067   -4.5390   23.1091 C.ar    1  UNL1        0.1224
     21 C           6.4950   -3.9141   24.4092 C.ar    1  UNL1        0.0276
     22 C           6.9125   -4.5392   25.7072 C.ar    1  UNL1        0.0034
     23 C           7.7417   -5.7892   25.7052 C.ar    1  UNL1        0.0148
     24 C           8.1534   -6.4140   24.4052 C.ar    1  UNL1        0.0600
     25 C           8.9827   -7.6640   24.4032 C.3     1  UNL1        0.0521
     26 N           7.7359   -5.7889   23.1071 N.ar    1  UNL1       -0.2414
@<TRIPOS>BOND
     1    11    12    1
     2    12    13   ar
     3    13    14   ar
     4    14    15   ar
     5    15     8    1
     6     8     9    2
     7     8    10    2
     8     8     1    1
     9     1     2    1
    10     2     3    1
    11     3     4    1
    12     4     5    2
    13     5    18    1
    14    18    19    3
    15    19    20    1
    16    20    21   ar
    17    21    22   ar
    18    22    23   ar
    19    23    24   ar
    20    24    25    1
    21    24    26   ar
    22     4     6    1
    23     6     7    1
    24    15    16   ar
    25    16    17   ar
    26    17    12   ar
    27     7     1    1
    28    26    20   ar
@<TRIPOS>MOLECULE
*****
 26 28 0 0 0
SMALL
GASTEIGER

@<TRIPOS>ATOM
      1 N           2.0366    0.3938   23.8023 N.3     1  UNL1       -0.1549
      2 C           0.7219    1.0645   23.5348 C.3     1  UNL1        0.1002
      3 C          -0.0399    1.6977   24.6612 C.3     1  UNL1        0.0418
      4 C           0.5131    1.6603   26.0550 C.2     1  UNL1       -0.0331
      5 C          -0.2487    2.2935   27.1814 C.2     1  UNL1        0.0412
      6 C           1.8278    0.9897   26.3225 C.3     1  UNL1        0.0418
      7 C           2.5896    0.3564   25.1961 C.3     1  UNL1        0.1002
      8 S           2.7984   -0.2394   22.6759 S.O2    1  UNL1        0.0633
      9 O           1.6615    0.0535   21.7423 O.2     1  UNL1       -0.1528
     10 O           3.9354   -0.5323   23.6095 O.2     1  UNL1       -0.1528
     11 C           5.8456   -2.7723   18.1705 C.3     1  UNL1        0.0310
     12 C           5.0838   -2.1391   19.2968 C.ar    1  UNL1       -0.0218
     13 C           3.6013   -1.9416   19.1819 C.ar    1  UNL1       -0.0029
     14 C           2.8396   -1.3083   20.3083 C.ar    1  UNL1        0.0196
     15 C           3.5602   -0.8726   21.5496 C.ar    1  UNL1        0.1222
     16 C           5.0427   -1.0701   21.6644 C.ar    1  UNL1        0.0196
     17 C           5.8045   -1.7034   20.5381 C.ar    1  UNL1       -0.0029
     18 C          -1.5635    2.9642   26.9139 C.1     1  UNL1       -0.0583
     19 C          -2.8784    3.6348   26.6465 C.1     1  UNL1       -0.0405
     20 C          -4.1931    4.3054   26.3790 C.ar    1  UNL1        0.1224
     21 C          -4.9003    4.0769   25.0760 C.ar    1  UNL1        0.0276
     22 C          -6.2151    4.7476   24.8086 C.ar    1  UNL1        0.0034
     23 C          -6.8228    5.6467   25.8441 C.ar    1  UNL1        0.0148
     24 C          -6.1157    5.8752   27.1470 C.ar    1  UNL1        0.0600
     25 C          -6.7233    6.7744   28.1825 C.3     1  UNL1        0.0521
     26 N          -4.8008    5.2046   27.4145 N.ar    1  UNL1       -0.2414
@<TRIPOS>BOND
     1    11    12    1
     2    12    13   ar
     3    13    14   ar
     4    14    15   ar
     5    15     8    1
     6     8     9    2
     7     8    10    2
     8     8     1    1
     9     1     2    1
    10     2     3    1
    11     3     4    1
    12     4     5    2
    13     5    18    1
    14    18    19    3
    15    19    20    1
    16    20    21   ar
    17    21    22   ar
    18    22    23   ar
    19    23    24   ar
    20    24    25    1
    21    24    26   ar
    22     4     6    1
    23     6     7    1
    24    15    16   ar
    25    16    17   ar
    26    17    12   ar
    27     7     1    1
    28    26    20   ar
@<TRIPOS>MOLECULE
*****
 26 28 0 0 0
SMALL
GASTEIGER

@<TRIPOS>ATOM
      1 N           0.2040    1.9641   19.4497 N.3     1  UNL1       -0.1549
      2 C          -0.4538    2.0879   20.7920 C.3     1  UNL1        0.1002
      3 C          -1.4953    3.1425   21.0224 C.3     1  UNL1        0.0418
      4 C          -1.8788    4.0735   19.9106 C.2     1  UNL1       -0.0331
      5 C          -2.9202    5.1281   20.1411 C.2     1  UNL1        0.0412
      6 C          -1.2209    3.9497   18.5683 C.3     1  UNL1        0.0418
      7 C          -0.1795    2.8950   18.3378 C.3     1  UNL1        0.1002
      8 S           1.2455    0.9094   19.2192 S.O2    1  UNL1        0.0633
      9 O           1.9764    1.8340   18.2914 O.2     1  UNL1       -0.1528
     10 O           0.5145   -0.0151   20.1471 O.2     1  UNL1       -0.1528
     11 C           5.4111   -3.3093   18.2974 C.3     1  UNL1        0.0310
     12 C           4.3697   -2.2546   18.5278 C.ar    1  UNL1       -0.0218
     13 C           4.2024   -1.1375   17.5410 C.ar    1  UNL1       -0.0029
     14 C           3.1610   -0.0828   17.7714 C.ar    1  UNL1        0.0196
     15 C           2.2869   -0.1452   18.9888 C.ar    1  UNL1        0.1222
     16 C           2.4542   -1.2624   19.9756 C.ar    1  UNL1        0.0196
     17 C           3.4956   -2.3170   19.7452 C.ar    1  UNL1       -0.0029
     18 C          -3.5781    5.2519   21.4834 C.1     1  UNL1       -0.0583
     19 C          -4.2360    5.3757   22.8258 C.1     1  UNL1       -0.0405
     20 C          -4.8938    5.4994   24.1681 C.ar    1  UNL1        0.1224
     21 C          -4.1886    5.0076   25.3972 C.ar    1  UNL1        0.0276
     22 C          -4.8464    5.1313   26.7395 C.ar    1  UNL1        0.0034
     23 C          -6.2096    5.7469   26.8528 C.ar    1  UNL1        0.0148
     24 C          -6.9149    6.2387   25.6237 C.ar    1  UNL1        0.0600
     25 C          -8.2781    6.8543   25.7370 C.3     1  UNL1        0.0521
     26 N          -6.2570    6.1150   24.2813 N.ar    1  UNL1       -0.2414
@<TRIPOS>BOND
     1    11    12    1
     2    12    13   ar
     3    13    14   ar
     4    14    15   ar
     5    15     8    1
     6     8     9    2
     7     8    10    2
     8     8     1    1
     9     1     2    1
    10     2     3    1
    11     3     4    1
    12     4     5    2
    13     5    18    1
    14    18    19    3
    15    19    20    1
    16    20    21   ar
    17    21    22   ar
    18    22    23   ar
    19    23    24   ar
    20    24    25    1
    21    24    26   ar
    22     4     6    1
    23     6     7    1
    24    15    16   ar
    25    16    17   ar
    26    17    12   ar
    27     7     1    1
    28    26    20   ar
