@<TRIPOS>MOLECULE
*****
 40 44 0 0 0
SMALL
GASTEIGER

@<TRIPOS>ATOM
      1 C           4.2660   -1.2998   20.1890 C.3     1  UNL1        0.0972
      2 C           3.0157   -1.4375   21.0061 C.3     1  UNL1        0.0431
      3 C           3.3240   -0.9897   22.4042 C.3     1  UNL1        0.0968
      4 N           4.7648   -0.5752   22.4510 N.am    1  UNL1       -0.2623
      5 C           5.4952   -0.0596   23.6555 C.2     1  UNL1        0.3073
      6 O           6.9432    0.3175   23.5500 O.2     1  UNL1       -0.2523
      7 N           4.7776    0.0790   24.9654 N.am    1  UNL1       -0.2626
      8 C           3.3383   -0.2566   25.2219 C.3     1  UNL1        0.0964
      9 C           3.0444    0.0345   26.6638 C.3     1  UNL1        0.0390
     10 C           4.3021    0.5498   27.2983 C.3     1  UNL1        0.0758
     11 C           5.3733    0.5773   26.2486 C.3     1  UNL1        0.1106
     12 C           5.3470   -0.7668   21.0820 C.3     1  UNL1        0.1147
     13 C           3.8462   -0.7158   17.6924 C.2     1  UNL1        0.2551
     14 O           3.9902   -1.0520   16.2377 O.2     1  UNL1       -0.2694
     15 N           4.4101   -1.6359   18.7343 N.am    1  UNL1       -0.2738
     16 C           5.1180   -2.8922   18.3213 C.3     1  UNL1        0.1152
     17 C           1.3894    2.1206   18.6847 C.ar    1  UNL1        0.0296
     18 C           2.7080    2.8269   18.7966 C.ar    1  UNL1        0.0071
     19 C           3.7888    1.8504   18.4385 C.ar    1  UNL1        0.0115
     20 C           3.1382    0.5405   18.1053 C.ar    1  UNL1        0.0830
     21 S           1.6553    0.7075   18.2575 S.2     1  UNL1       -0.0824
     22 C          -2.6540    3.9242   19.4896 C.ar    1  UNL1        0.1386
     23 C          -1.9971    4.1209   18.1555 C.ar    1  UNL1        0.0369
     24 C          -0.6493    3.5197   17.8873 C.ar    1  UNL1        0.0036
     25 C           0.0416    2.7218   18.9530 C.ar    1  UNL1        0.0062
     26 C          -0.6153    2.5251   20.2871 C.ar    1  UNL1        0.0036
     27 C          -1.9631    3.1263   20.5554 C.ar    1  UNL1        0.0369
     28 O          -4.0018    4.5254   19.7579 O.3     1  UNL1       -0.4755
     29 C          -6.0789    3.2112   18.9160 C.3     1  UNL1        0.0512
     30 C          -5.1774    3.6366   20.0369 C.3     1  UNL1        0.2055
     31 N           4.4608    0.9648   28.7310 N.3     1  UNL1       -0.2982
     32 H           3.6069    1.4586   28.9908 H       1  UNL1        0.1232
     33 C           4.7013   -0.0704   29.7895 C.3     1  UNL1        0.0540
     34 C           5.8770   -0.9956   29.6802 C.3     1  UNL1        0.0157
     35 C           6.1176   -2.0308   30.7387 C.3     1  UNL1        0.0014
     36 C           5.1825   -2.1409   31.9064 C.3     1  UNL1        0.0001
     37 C           4.5836   -2.6316   33.1911 C.3     1  UNL1        0.0000
     38 C           6.1502   -3.2365   32.2433 C.3     1  UNL1        0.0000
     39 C           4.0069   -1.2159   32.0156 C.3     1  UNL1        0.0014
     40 C           3.7663   -0.1805   30.9571 C.3     1  UNL1        0.0157
@<TRIPOS>BOND
     1    29    30    1
     2    30    28    1
     3    28    22    1
     4    22    23   ar
     5    23    24   ar
     6    24    25   ar
     7    25    17    1
     8    17    18   ar
     9    18    19   ar
    10    19    20   ar
    11    20    13    1
    12    13    14    2
    13    13    15   am
    14    15    16    1
    15     1    15    1
    16     1     2    1
    17     2     3    1
    18     3     4    1
    19     4     5   am
    20     5     6    2
    21     5     7   am
    22     7     8    1
    23     8     9    1
    24     9    10    1
    25    10    31    1
    26    31    33    1
    27    33    34    1
    28    34    35    1
    29    35    36    1
    30    36    37    1
    31    36    38    1
    32    36    39    1
    33    39    40    1
    34    10    11    1
    35     4    12    1
    36    20    21   ar
    37    25    26   ar
    38    26    27   ar
    39    27    22   ar
    40    21    17   ar
    41    12     1    1
    42    11     7    1
    43    40    33    1
    44    31    32    1
@<TRIPOS>MOLECULE
*****
 40 44 0 0 0
SMALL
GASTEIGER

@<TRIPOS>ATOM
      1 C           4.2064   -1.6436   19.8774 C.3     1  UNL1        0.0972
      2 C           4.7050   -0.4324   19.1464 C.3     1  UNL1        0.0431
      3 C           3.5773    0.5528   19.0584 C.3     1  UNL1        0.0968
      4 N           2.3817   -0.0495   19.7350 N.am    1  UNL1       -0.2623
      5 C           1.0340    0.5928   19.8800 C.2     1  UNL1        0.3073
      6 O          -0.0717   -0.1349   20.5856 O.2     1  UNL1       -0.2523
      7 N           0.7919    1.9629   19.3194 N.am    1  UNL1       -0.2626
      8 C           1.7957    2.8080   18.5925 C.3     1  UNL1        0.0964
      9 C           1.1277    4.0959   18.2111 C.3     1  UNL1        0.0390
     10 C          -0.2888    4.0466   18.7022 C.3     1  UNL1        0.0758
     11 C          -0.4963    2.7283   19.3871 C.3     1  UNL1        0.1106
     12 C           2.7705   -1.4069   20.2412 C.3     1  UNL1        0.1147
     13 C           5.5759   -3.0699   21.5627 C.2     1  UNL1        0.2551
     14 O           6.3732   -4.3015   21.8751 O.2     1  UNL1       -0.2694
     15 N           5.0036   -2.8752   20.1899 N.am    1  UNL1       -0.2738
     16 C           5.2286   -3.9120   19.1296 C.3     1  UNL1        0.1152
     17 C           4.4362   -0.8421   24.5297 C.ar    1  UNL1        0.0296
     18 C           5.5735   -0.0332   23.9800 C.ar    1  UNL1        0.0071
     19 C           6.1389   -0.7693   22.8017 C.ar    1  UNL1        0.0115
     20 C           5.3510   -2.0331   22.6230 C.ar    1  UNL1        0.0830
     21 S           4.2987   -2.0781   23.6910 S.2     1  UNL1       -0.0824
     22 C           1.8847    0.2479   28.0726 C.ar    1  UNL1        0.1386
     23 C           1.7427    1.0042   26.7850 C.ar    1  UNL1        0.0369
     24 C           2.5932    0.6409   25.6041 C.ar    1  UNL1        0.0036
     25 C           3.5857   -0.4788   25.7106 C.ar    1  UNL1        0.0062
     26 C           3.7276   -1.2351   26.9982 C.ar    1  UNL1        0.0036
     27 C           2.8771   -0.8717   28.1791 C.ar    1  UNL1        0.0369
     28 O           1.0342    0.6112   29.2535 O.3     1  UNL1       -0.4755
     29 C          -1.2528   -0.5393   28.8107 C.3     1  UNL1        0.0512
     30 C          -0.4561    0.6968   29.1065 C.3     1  UNL1        0.2055
     31 N          -1.3171    5.1260   18.5373 N.3     1  UNL1       -0.2982
     32 H          -1.2704    5.4312   17.5651 H       1  UNL1        0.1232
     33 C          -2.7596    4.8390   18.8321 C.3     1  UNL1        0.0540
     34 C          -3.5935    4.0879   17.8369 C.3     1  UNL1        0.0157
     35 C          -5.0359    3.8009   18.1317 C.3     1  UNL1        0.0014
     36 C          -5.6445    4.2651   19.4217 C.3     1  UNL1        0.0001
     37 C          -6.6659    4.4962   20.4956 C.3     1  UNL1        0.0000
     38 C          -6.8331    3.5942   18.7994 C.3     1  UNL1        0.0000
     39 C          -4.8107    5.0161   20.4169 C.3     1  UNL1        0.0014
     40 C          -3.3682    5.3032   20.1221 C.3     1  UNL1        0.0157
@<TRIPOS>BOND
     1    29    30    1
     2    30    28    1
     3    28    22    1
     4    22    23   ar
     5    23    24   ar
     6    24    25   ar
     7    25    17    1
     8    17    18   ar
     9    18    19   ar
    10    19    20   ar
    11    20    13    1
    12    13    14    2
    13    13    15   am
    14    15    16    1
    15     1    15    1
    16     1     2    1
    17     2     3    1
    18     3     4    1
    19     4     5   am
    20     5     6    2
    21     5     7   am
    22     7     8    1
    23     8     9    1
    24     9    10    1
    25    10    31    1
    26    31    33    1
    27    33    34    1
    28    34    35    1
    29    35    36    1
    30    36    37    1
    31    36    38    1
    32    36    39    1
    33    39    40    1
    34    10    11    1
    35     4    12    1
    36    20    21   ar
    37    25    26   ar
    38    26    27   ar
    39    27    22   ar
    40    21    17   ar
    41    12     1    1
    42    11     7    1
    43    40    33    1
    44    31    32    1
@<TRIPOS>MOLECULE
*****
 40 44 0 0 0
SMALL
GASTEIGER

@<TRIPOS>ATOM
      1 C           7.7283   -2.6905   21.0548 C.3     1  UNL1        0.0972
      2 C           7.5268   -1.5573   22.0166 C.3     1  UNL1        0.0431
      3 C           7.3612   -2.1384   23.3895 C.3     1  UNL1        0.0968
      4 N           7.4603   -3.6308   23.2762 N.am    1  UNL1       -0.2623
      5 C           7.3517   -4.6101   24.4072 C.2     1  UNL1        0.3073
      6 O           7.4719   -6.0812   24.1397 O.2     1  UNL1       -0.2523
      7 N           7.1229   -4.1184   25.8057 N.am    1  UNL1       -0.2626
      8 C           6.9829   -2.6848   26.2243 C.3     1  UNL1        0.0964
      9 C           6.7673   -2.6543   27.7084 C.3     1  UNL1        0.0390
     10 C           6.7740   -4.0690   28.2070 C.3     1  UNL1        0.0758
     11 C           6.9937   -4.9739   27.0310 C.3     1  UNL1        0.1106
     12 C           7.6873   -3.9721   21.8332 C.3     1  UNL1        0.1147
     13 C           6.7601   -2.3333   18.6704 C.2     1  UNL1        0.2551
     14 O           6.9665   -2.2072   17.1901 O.2     1  UNL1       -0.2694
     15 N           7.9347   -2.5643   19.5744 N.am    1  UNL1       -0.2738
     16 C           9.3154   -2.6692   18.9980 C.3     1  UNL1        0.1152
     17 C           3.3027   -1.3189   20.1135 C.ar    1  UNL1        0.0296
     18 C           3.2059   -2.8152   20.1539 C.ar    1  UNL1        0.0071
     19 C           4.4893   -3.3774   19.6182 C.ar    1  UNL1        0.0115
     20 C           5.3793   -2.2285   19.2468 C.ar    1  UNL1        0.0830
     21 S           4.6459   -0.9563   19.5529 S.2     1  UNL1       -0.0824
     22 C           0.1220    1.5743   21.4413 C.ar    1  UNL1        0.1386
     23 C           0.1708    1.1165   20.0137 C.ar    1  UNL1        0.0369
     24 C           1.2311    0.1521   19.5711 C.ar    1  UNL1        0.0036
     25 C           2.2425   -0.3545   20.5561 C.ar    1  UNL1        0.0062
     26 C           2.1937    0.1033   21.9837 C.ar    1  UNL1        0.0036
     27 C           1.1335    1.0677   22.4263 C.ar    1  UNL1        0.0369
     28 O          -0.9382    2.5387   21.8838 O.3     1  UNL1       -0.4755
     29 C          -3.0030    3.1754   20.4413 C.3     1  UNL1        0.0512
     30 C          -1.5947    3.4427   20.8831 C.3     1  UNL1        0.2055
     31 N           6.5928   -4.5026   29.6314 N.3     1  UNL1       -0.2982
     32 H           7.1045   -5.3783   29.7400 H       1  UNL1        0.1232
     33 C           7.0298   -3.6042   30.7503 C.3     1  UNL1        0.0540
     34 C           8.4591   -3.6137   31.2052 C.3     1  UNL1        0.0157
     35 C           8.8961   -2.7153   32.3241 C.3     1  UNL1        0.0014
     36 C           7.9037   -1.8073   32.9880 C.3     1  UNL1        0.0001
     37 C           7.3398   -0.7786   33.9227 C.3     1  UNL1        0.0000
     38 C           9.1372   -1.4596   33.7675 C.3     1  UNL1        0.0000
     39 C           6.4745   -1.7978   32.5331 C.3     1  UNL1        0.0014
     40 C           6.0374   -2.6963   31.4142 C.3     1  UNL1        0.0157
@<TRIPOS>BOND
     1    29    30    1
     2    30    28    1
     3    28    22    1
     4    22    23   ar
     5    23    24   ar
     6    24    25   ar
     7    25    17    1
     8    17    18   ar
     9    18    19   ar
    10    19    20   ar
    11    20    13    1
    12    13    14    2
    13    13    15   am
    14    15    16    1
    15     1    15    1
    16     1     2    1
    17     2     3    1
    18     3     4    1
    19     4     5   am
    20     5     6    2
    21     5     7   am
    22     7     8    1
    23     8     9    1
    24     9    10    1
    25    10    31    1
    26    31    33    1
    27    33    34    1
    28    34    35    1
    29    35    36    1
    30    36    37    1
    31    36    38    1
    32    36    39    1
    33    39    40    1
    34    10    11    1
    35     4    12    1
    36    20    21   ar
    37    25    26   ar
    38    26    27   ar
    39    27    22   ar
    40    21    17   ar
    41    12     1    1
    42    11     7    1
    43    40    33    1
    44    31    32    1
@<TRIPOS>MOLECULE
*****
 40 44 0 0 0
SMALL
GASTEIGER

@<TRIPOS>ATOM
      1 C           7.7714   -3.0047   21.0071 C.3     1  UNL1        0.0972
      2 C           7.4057   -4.4225   21.3327 C.3     1  UNL1        0.0431
      3 C           7.2833   -4.5391   22.8231 C.3     1  UNL1        0.0968
      4 N           7.5735   -3.1933   23.4187 N.am    1  UNL1       -0.2623
      5 C           7.5637   -2.8552   24.8800 C.2     1  UNL1        0.3073
      6 O           7.8755   -1.4583   25.3287 O.2     1  UNL1       -0.2523
      7 N           7.2420   -3.9140   25.8927 N.am    1  UNL1       -0.2626
      8 C           6.9118   -5.3467   25.5957 C.3     1  UNL1        0.0964
      9 C           6.6598   -6.0442   26.8996 C.3     1  UNL1        0.0390
     10 C           6.8342   -5.0424   28.0024 C.3     1  UNL1        0.0758
     11 C           7.1940   -3.7259   27.3801 C.3     1  UNL1        0.1106
     12 C           7.8751   -2.2450   22.2964 C.3     1  UNL1        0.1147
     13 C           6.8475   -1.8515   18.8701 C.2     1  UNL1        0.2551
     14 O           7.0704   -1.2917   17.4965 O.2     1  UNL1       -0.2694
     15 N           7.9944   -2.4449   19.6334 N.am    1  UNL1       -0.2738
     16 C           9.3641   -2.4784   19.0231 C.3     1  UNL1        0.1152
     17 C           3.5464   -1.1336   20.7814 C.ar    1  UNL1        0.0296
     18 C           3.1931   -2.3991   20.0579 C.ar    1  UNL1        0.0071
     19 C           4.3867   -2.8222   19.2539 C.ar    1  UNL1        0.0115
     20 C           5.4777   -1.8180   19.4804 C.ar    1  UNL1        0.0830
     21 S           4.9584   -0.7744   20.4245 S.2     1  UNL1       -0.0824
     22 C           0.8449    1.1796   23.5385 C.ar    1  UNL1        0.1386
     23 C           0.5458    1.1217   22.0698 C.ar    1  UNL1        0.0369
     24 C           1.4463    0.3507   21.1508 C.ar    1  UNL1        0.0036
     25 C           2.6459   -0.3625   21.7004 C.ar    1  UNL1        0.0062
     26 C           2.9451   -0.3047   23.1691 C.ar    1  UNL1        0.0036
     27 C           2.0446    0.4664   24.0881 C.ar    1  UNL1        0.0369
     28 O          -0.0556    1.9506   24.4575 O.3     1  UNL1       -0.4755
     29 C          -1.0185    2.0838   26.8668 C.3     1  UNL1        0.0512
     30 C           0.1435    1.8726   25.9421 C.3     1  UNL1        0.2055
     31 N           6.6765   -5.3103   29.4698 N.3     1  UNL1       -0.2982
     32 H           7.1349   -6.2019   29.6574 H       1  UNL1        0.1232
     33 C           7.2092   -4.3301   30.4726 C.3     1  UNL1        0.0540
     34 C           6.3262   -3.2349   30.9930 C.3     1  UNL1        0.0157
     35 C           6.8589   -2.2547   31.9958 C.3     1  UNL1        0.0014
     36 C           8.2745   -2.3698   32.4781 C.3     1  UNL1        0.0001
     37 C           9.5356   -2.0682   33.2322 C.3     1  UNL1        0.0000
     38 C           7.8295   -1.1698   33.2604 C.3     1  UNL1        0.0000
     39 C           9.1574   -3.4650   31.9578 C.3     1  UNL1        0.0014
     40 C           8.6248   -4.4453   30.9550 C.3     1  UNL1        0.0157
@<TRIPOS>BOND
     1    29    30    1
     2    30    28    1
     3    28    22    1
     4    22    23   ar
     5    23    24   ar
     6    24    25   ar
     7    25    17    1
     8    17    18   ar
     9    18    19   ar
    10    19    20   ar
    11    20    13    1
    12    13    14    2
    13    13    15   am
    14    15    16    1
    15     1    15    1
    16     1     2    1
    17     2     3    1
    18     3     4    1
    19     4     5   am
    20     5     6    2
    21     5     7   am
    22     7     8    1
    23     8     9    1
    24     9    10    1
    25    10    31    1
    26    31    33    1
    27    33    34    1
    28    34    35    1
    29    35    36    1
    30    36    37    1
    31    36    38    1
    32    36    39    1
    33    39    40    1
    34    10    11    1
    35     4    12    1
    36    20    21   ar
    37    25    26   ar
    38    26    27   ar
    39    27    22   ar
    40    21    17   ar
    41    12     1    1
    42    11     7    1
    43    40    33    1
    44    31    32    1
@<TRIPOS>MOLECULE
*****
 40 44 0 0 0
SMALL
GASTEIGER

@<TRIPOS>ATOM
      1 C           5.1267   -0.7608   34.2941 C.3     1  UNL1        0.0972
      2 C           4.3635   -1.9173   33.7197 C.3     1  UNL1        0.0431
      3 C           5.3081   -2.7244   32.8792 C.3     1  UNL1        0.0968
      4 N           6.6551   -2.0667   32.9341 N.am    1  UNL1       -0.2623
      5 C           7.8962   -2.5395   32.2370 C.2     1  UNL1        0.3073
      6 O           9.1778   -1.7744   32.3859 O.2     1  UNL1       -0.2523
      7 N           7.8558   -3.7775   31.3910 N.am    1  UNL1       -0.2626
      8 C           6.6537   -4.6417   31.1498 C.3     1  UNL1        0.0964
      9 C           7.0654   -5.7670   30.2474 C.3     1  UNL1        0.0390
     10 C           8.5219   -5.5982   29.9309 C.3     1  UNL1        0.0758
     11 C           9.0104   -4.3687   30.6377 C.3     1  UNL1        0.1106
     12 C           6.5430   -0.8532   33.8086 C.3     1  UNL1        0.1147
     13 C           3.9592    1.5387   34.6086 C.2     1  UNL1        0.2551
     14 O           3.4037    2.6011   35.5102 O.2     1  UNL1       -0.2694
     15 N           4.5713    0.3015   35.1957 N.am    1  UNL1       -0.2738
     16 C           4.6278    0.1267   36.6843 C.3     1  UNL1        0.1152
     17 C           3.1042    1.7446   30.8281 C.ar    1  UNL1        0.0296
     18 C           4.5265    2.2210   30.8300 C.ar    1  UNL1        0.0071
     19 C           5.0199    2.2019   32.2464 C.ar    1  UNL1        0.0115
     20 C           3.9025    1.7137   33.1199 C.ar    1  UNL1        0.0830
     21 S           2.7186    1.4311   32.2434 S.2     1  UNL1       -0.0824
     22 C           0.4586    1.3290   27.2117 C.ar    1  UNL1        0.1386
     23 C          -0.1259    1.2013   28.5872 C.ar    1  UNL1        0.0369
     24 C           0.7560    1.3398   29.7927 C.ar    1  UNL1        0.0036
     25 C           2.2223    1.6061   29.6226 C.ar    1  UNL1        0.0062
     26 C           2.8068    1.7338   28.2471 C.ar    1  UNL1        0.0036
     27 C           1.9249    1.5953   27.0417 C.ar    1  UNL1        0.0369
     28 O          -0.4233    1.1905   26.0062 O.3     1  UNL1       -0.4755
     29 C          -1.9495    3.2927   26.0408 C.3     1  UNL1        0.0512
     30 C          -0.9644    2.4142   25.3282 C.3     1  UNL1        0.2055
     31 N           9.3453   -6.5006   29.0604 N.3     1  UNL1       -0.2982
     32 H           9.1961   -7.4516   29.3977 H       1  UNL1        0.1232
     33 C           9.1166   -6.5260   27.5782 C.3     1  UNL1        0.0540
     34 C           9.5359   -7.7215   26.7750 C.3     1  UNL1        0.0157
     35 C           9.3073   -7.7469   25.2928 C.3     1  UNL1        0.0014
     36 C           8.6594   -6.5769   24.6137 C.3     1  UNL1        0.0001
     37 C           8.0883   -5.7185   23.5242 C.3     1  UNL1        0.0000
     38 C           8.8803   -7.4743   23.4322 C.3     1  UNL1        0.0000
     39 C           8.2402   -5.3814   25.4167 C.3     1  UNL1        0.0014
     40 C           8.4688   -5.3560   26.8991 C.3     1  UNL1        0.0157
@<TRIPOS>BOND
     1    29    30    1
     2    30    28    1
     3    28    22    1
     4    22    23   ar
     5    23    24   ar
     6    24    25   ar
     7    25    17    1
     8    17    18   ar
     9    18    19   ar
    10    19    20   ar
    11    20    13    1
    12    13    14    2
    13    13    15   am
    14    15    16    1
    15     1    15    1
    16     1     2    1
    17     2     3    1
    18     3     4    1
    19     4     5   am
    20     5     6    2
    21     5     7   am
    22     7     8    1
    23     8     9    1
    24     9    10    1
    25    10    31    1
    26    31    33    1
    27    33    34    1
    28    34    35    1
    29    35    36    1
    30    36    37    1
    31    36    38    1
    32    36    39    1
    33    39    40    1
    34    10    11    1
    35     4    12    1
    36    20    21   ar
    37    25    26   ar
    38    26    27   ar
    39    27    22   ar
    40    21    17   ar
    41    12     1    1
    42    11     7    1
    43    40    33    1
    44    31    32    1
@<TRIPOS>MOLECULE
*****
 40 44 0 0 0
SMALL
GASTEIGER

@<TRIPOS>ATOM
      1 C           0.8395    3.3620   22.9710 C.3     1  UNL1        0.0972
      2 C          -0.3633    2.9087   23.7442 C.3     1  UNL1        0.0431
      3 C           0.1174    2.2046   24.9784 C.3     1  UNL1        0.0968
      4 N           1.6172    2.2227   24.9680 N.am    1  UNL1       -0.2623
      5 C           2.5134    1.6296   26.0144 C.2     1  UNL1        0.3073
      6 O           4.0032    1.7256   25.8680 O.2     1  UNL1       -0.2523
      7 N           1.9198    0.9406   27.2072 N.am    1  UNL1       -0.2626
      8 C           0.4565    0.7677   27.4879 C.3     1  UNL1        0.0964
      9 C           0.3177    0.0237   28.7830 C.3     1  UNL1        0.0390
     10 C           1.6952   -0.2633   29.3027 C.3     1  UNL1        0.0758
     11 C           2.6854    0.3034   28.3288 C.3     1  UNL1        0.1106
     12 C           2.0635    2.9379   23.7273 C.3     1  UNL1        0.1147
     13 C           0.9948    3.3667   20.3775 C.2     1  UNL1        0.2551
     14 O           0.9768    4.1129   19.0764 O.2     1  UNL1       -0.2694
     15 N           0.8215    4.1082   21.6699 N.am    1  UNL1       -0.2738
     16 C           0.6302    5.5958   21.6611 C.3     1  UNL1        0.1152
     17 C           2.2243   -0.3147   20.4148 C.ar    1  UNL1        0.0296
     18 C           0.7369   -0.5062   20.3846 C.ar    1  UNL1        0.0071
     19 C           0.0953    0.8495   20.3669 C.ar    1  UNL1        0.0115
     20 C           1.1861    1.8789   20.3862 C.ar    1  UNL1        0.0830
     21 S           2.5019    1.1594   20.4158 S.2     1  UNL1       -0.0824
     22 C           5.3117   -3.5878   20.4892 C.ar    1  UNL1        0.1386
     23 C           4.8760   -2.9384   21.7692 C.ar    1  UNL1        0.0369
     24 C           3.8469   -1.8474   21.7444 C.ar    1  UNL1        0.0036
     25 C           3.2535   -1.4057   20.4396 C.ar    1  UNL1        0.0062
     26 C           3.6891   -2.0551   19.1595 C.ar    1  UNL1        0.0036
     27 C           4.7182   -3.1461   19.1843 C.ar    1  UNL1        0.0369
     28 O           6.3408   -4.6788   20.5140 O.3     1  UNL1       -0.4755
     29 C           8.5528   -3.3246   20.3620 C.3     1  UNL1        0.0512
     30 C           7.7255   -4.3924   21.0143 C.3     1  UNL1        0.2055
     31 N           2.0247   -0.9894   30.5732 N.3     1  UNL1       -0.2982
     32 H           2.3263   -1.9267   30.3069 H       1  UNL1        0.1232
     33 C           3.0716   -0.4442   31.4988 C.3     1  UNL1        0.0540
     34 C           2.9894    0.9776   31.9697 C.3     1  UNL1        0.0157
     35 C           4.0363    1.5227   32.8953 C.3     1  UNL1        0.0014
     36 C           5.1654    0.6461   33.3499 C.3     1  UNL1        0.0001
     37 C           6.4169    0.2109   34.0530 C.3     1  UNL1        0.0000
     38 C           5.5178    1.9168   34.0650 C.3     1  UNL1        0.0000
     39 C           5.2476   -0.7756   32.8791 C.3     1  UNL1        0.0014
     40 C           4.2006   -1.3209   31.9534 C.3     1  UNL1        0.0157
@<TRIPOS>BOND
     1    29    30    1
     2    30    28    1
     3    28    22    1
     4    22    23   ar
     5    23    24   ar
     6    24    25   ar
     7    25    17    1
     8    17    18   ar
     9    18    19   ar
    10    19    20   ar
    11    20    13    1
    12    13    14    2
    13    13    15   am
    14    15    16    1
    15     1    15    1
    16     1     2    1
    17     2     3    1
    18     3     4    1
    19     4     5   am
    20     5     6    2
    21     5     7   am
    22     7     8    1
    23     8     9    1
    24     9    10    1
    25    10    31    1
    26    31    33    1
    27    33    34    1
    28    34    35    1
    29    35    36    1
    30    36    37    1
    31    36    38    1
    32    36    39    1
    33    39    40    1
    34    10    11    1
    35     4    12    1
    36    20    21   ar
    37    25    26   ar
    38    26    27   ar
    39    27    22   ar
    40    21    17   ar
    41    12     1    1
    42    11     7    1
    43    40    33    1
    44    31    32    1
@<TRIPOS>MOLECULE
*****
 40 44 0 0 0
SMALL
GASTEIGER

@<TRIPOS>ATOM
      1 C          -0.9711    3.1378   26.6749 C.3     1  UNL1        0.0972
      2 C           0.3229    3.8478   26.9423 C.3     1  UNL1        0.0431
      3 C           1.1310    3.0010   27.8804 C.3     1  UNL1        0.0968
      4 N           0.3365    1.7677   28.1928 N.am    1  UNL1       -0.2623
      5 C           0.7657    0.6467   29.0923 C.2     1  UNL1        0.3073
      6 O          -0.1404   -0.5286   29.3105 O.2     1  UNL1       -0.2523
      7 N           2.1009    0.7010   29.7735 N.am    1  UNL1       -0.2626
      8 C           3.1084    1.8056   29.6519 C.3     1  UNL1        0.0964
      9 C           4.2933    1.4476   30.4992 C.3     1  UNL1        0.0390
     10 C           4.0180    0.1217   31.1446 C.3     1  UNL1        0.0758
     11 C           2.6631   -0.3396   30.6961 C.3     1  UNL1        0.1106
     12 C          -0.9627    1.8523   27.4478 C.3     1  UNL1        0.1147
     13 C          -1.8871    3.6719   24.3031 C.2     1  UNL1        0.2551
     14 O          -2.9950    4.1615   23.4183 O.2     1  UNL1       -0.2694
     15 N          -2.0789    3.6274   25.7901 N.am    1  UNL1       -0.2738
     16 C          -3.3786    4.0726   26.3922 C.3     1  UNL1        0.1152
     17 C           1.1770    1.8298   22.7919 C.ar    1  UNL1        0.0296
     18 C           1.6481    3.2534   22.7564 C.ar    1  UNL1        0.0071
     19 C           0.5577    4.1168   23.3182 C.ar    1  UNL1        0.0115
     20 C          -0.5874    3.2267   23.7009 C.ar    1  UNL1        0.0830
     21 S          -0.2047    1.8133   23.3756 S.2     1  UNL1       -0.0824
     22 C           3.5004   -1.7610   21.3929 C.ar    1  UNL1        0.1386
     23 C           2.6205   -1.0166   20.4330 C.ar    1  UNL1        0.0369
     24 C           1.8460    0.1804   20.8993 C.ar    1  UNL1        0.0036
     25 C           1.9515    0.6329   22.3255 C.ar    1  UNL1        0.0062
     26 C           2.8314   -0.1116   23.2854 C.ar    1  UNL1        0.0036
     27 C           3.6059   -1.3086   22.8191 C.ar    1  UNL1        0.0369
     28 O           4.2749   -2.9580   20.9265 O.3     1  UNL1       -0.4755
     29 C           3.5788   -4.7967   19.2281 C.3     1  UNL1        0.0512
     30 C           4.1390   -3.4342   19.5107 C.3     1  UNL1        0.2055
     31 N           4.9365   -0.6135   32.0750 N.3     1  UNL1       -0.2982
     32 H           4.3950   -0.8326   32.9112 H       1  UNL1        0.1232
     33 C           5.5863   -1.8912   31.6330 C.3     1  UNL1        0.0540
     34 C           5.8376   -2.9874   32.6256 C.3     1  UNL1        0.0157
     35 C           6.4874   -4.2650   32.1835 C.3     1  UNL1        0.0014
     36 C           6.8859   -4.4464   30.7489 C.3     1  UNL1        0.0001
     37 C           7.4383   -5.0857   29.5095 C.3     1  UNL1        0.0000
     38 C           7.3290   -5.7646   31.3111 C.3     1  UNL1        0.0000
     39 C           6.6346   -3.3503   29.7563 C.3     1  UNL1        0.0014
     40 C           5.9848   -2.0726   30.1983 C.3     1  UNL1        0.0157
@<TRIPOS>BOND
     1    29    30    1
     2    30    28    1
     3    28    22    1
     4    22    23   ar
     5    23    24   ar
     6    24    25   ar
     7    25    17    1
     8    17    18   ar
     9    18    19   ar
    10    19    20   ar
    11    20    13    1
    12    13    14    2
    13    13    15   am
    14    15    16    1
    15     1    15    1
    16     1     2    1
    17     2     3    1
    18     3     4    1
    19     4     5   am
    20     5     6    2
    21     5     7   am
    22     7     8    1
    23     8     9    1
    24     9    10    1
    25    10    31    1
    26    31    33    1
    27    33    34    1
    28    34    35    1
    29    35    36    1
    30    36    37    1
    31    36    38    1
    32    36    39    1
    33    39    40    1
    34    10    11    1
    35     4    12    1
    36    20    21   ar
    37    25    26   ar
    38    26    27   ar
    39    27    22   ar
    40    21    17   ar
    41    12     1    1
    42    11     7    1
    43    40    33    1
    44    31    32    1
@<TRIPOS>MOLECULE
*****
 40 44 0 0 0
SMALL
GASTEIGER

@<TRIPOS>ATOM
      1 C         -11.2605   -4.8436   18.9813 C.3     1  UNL1        0.0972
      2 C         -11.0909   -3.4624   18.4213 C.3     1  UNL1        0.0431
      3 C         -12.3582   -2.7008   18.6744 C.3     1  UNL1        0.0968
      4 N         -13.3110   -3.6113   19.3908 N.am    1  UNL1       -0.2623
      5 C         -14.6985   -3.2594   19.8389 C.2     1  UNL1        0.3073
      6 O         -15.5391   -4.2795   20.5479 O.2     1  UNL1       -0.2523
      7 N         -15.2455   -1.8872   19.5780 N.am    1  UNL1       -0.2626
      8 C         -14.5262   -0.7686   18.8842 C.3     1  UNL1        0.0964
      9 C         -15.4439    0.4172   18.8425 C.3     1  UNL1        0.0390
     10 C         -16.7304    0.0314   19.5105 C.3     1  UNL1        0.0758
     11 C         -16.6077   -1.3928   19.9651 C.3     1  UNL1        0.1106
     12 C         -12.6326   -4.9356   19.5805 C.3     1  UNL1        0.1147
     13 C         -10.5508   -7.2374   18.2630 C.2     1  UNL1        0.2551
     14 O          -9.5279   -8.3340   18.2297 O.2     1  UNL1       -0.2694
     15 N         -10.2376   -5.9402   18.9479 N.am    1  UNL1       -0.2738
     16 C          -8.9015   -5.7396   19.5995 C.3     1  UNL1        0.1152
     17 C         -14.1979   -8.0756   17.2329 C.ar    1  UNL1        0.0296
     18 C         -13.6881   -7.4181   15.9848 C.ar    1  UNL1        0.0071
     19 C         -12.2598   -7.0240   16.2188 C.ar    1  UNL1        0.0115
     20 C         -11.8869   -7.4381   17.6115 C.ar    1  UNL1        0.0830
     21 S         -13.0847   -8.0880   18.2382 S.2     1  UNL1       -0.0824
     22 C         -18.3398   -9.7222   17.8524 C.ar    1  UNL1        0.1386
     23 C         -18.1525   -8.4026   17.1642 C.ar    1  UNL1        0.0369
     24 C         -16.7718   -7.8538   16.9577 C.ar    1  UNL1        0.0036
     25 C         -15.5786   -8.6245   17.4394 C.ar    1  UNL1        0.0062
     26 C         -15.7659   -9.9440   18.1276 C.ar    1  UNL1        0.0036
     27 C         -17.1465  -10.4929   18.3341 C.ar    1  UNL1        0.0369
     28 O         -19.7204  -10.2710   18.0589 O.3     1  UNL1       -0.4755
     29 C         -19.9098   -8.9812   20.3062 C.3     1  UNL1        0.0512
     30 C         -20.4639   -9.9734   19.3272 C.3     1  UNL1        0.2055
     31 N         -17.9290    0.9147   19.6921 N.3     1  UNL1       -0.2982
     32 H         -18.6999    0.3103   19.9763 H       1  UNL1        0.1232
     33 C         -17.8833    2.0486   20.6730 C.3     1  UNL1        0.0540
     34 C         -17.3737    1.8164   22.0646 C.3     1  UNL1        0.0157
     35 C         -17.3280    2.9502   23.0455 C.3     1  UNL1        0.0014
     36 C         -17.7920    4.3163   22.6349 C.3     1  UNL1        0.0001
     37 C         -18.1183    5.7780   22.7176 C.3     1  UNL1        0.0000
     38 C         -17.3957    4.5917   24.0552 C.3     1  UNL1        0.0000
     39 C         -18.3016    4.5485   21.2435 C.3     1  UNL1        0.0014
     40 C         -18.3473    3.4147   20.2624 C.3     1  UNL1        0.0157
@<TRIPOS>BOND
     1    29    30    1
     2    30    28    1
     3    28    22    1
     4    22    23   ar
     5    23    24   ar
     6    24    25   ar
     7    25    17    1
     8    17    18   ar
     9    18    19   ar
    10    19    20   ar
    11    20    13    1
    12    13    14    2
    13    13    15   am
    14    15    16    1
    15     1    15    1
    16     1     2    1
    17     2     3    1
    18     3     4    1
    19     4     5   am
    20     5     6    2
    21     5     7   am
    22     7     8    1
    23     8     9    1
    24     9    10    1
    25    10    31    1
    26    31    33    1
    27    33    34    1
    28    34    35    1
    29    35    36    1
    30    36    37    1
    31    36    38    1
    32    36    39    1
    33    39    40    1
    34    10    11    1
    35     4    12    1
    36    20    21   ar
    37    25    26   ar
    38    26    27   ar
    39    27    22   ar
    40    21    17   ar
    41    12     1    1
    42    11     7    1
    43    40    33    1
    44    31    32    1
@<TRIPOS>MOLECULE
*****
 40 44 0 0 0
SMALL
GASTEIGER

@<TRIPOS>ATOM
      1 C           8.2434   -4.6394   24.9291 C.3     1  UNL1        0.0972
      2 C           9.0635   -3.6409   24.1673 C.3     1  UNL1        0.0431
      3 C           8.2227   -3.1111   23.0438 C.3     1  UNL1        0.0968
      4 N           6.8829   -3.7822   23.1111 N.am    1  UNL1       -0.2623
      5 C           5.7324   -3.5497   22.1773 C.2     1  UNL1        0.3073
      6 O           4.4468   -4.2982   22.3700 O.2     1  UNL1       -0.2523
      7 N           5.8673   -2.5687   21.0506 N.am    1  UNL1       -0.2626
      8 C           7.0845   -1.7511   20.7346 C.3     1  UNL1        0.0964
      9 C           6.7782   -0.9101   19.5308 C.3     1  UNL1        0.0390
     10 C           5.3718   -1.2080   19.1029 C.3     1  UNL1        0.0758
     11 C           4.8088   -2.2330   20.0422 C.3     1  UNL1        0.1106
     12 C           6.8957   -4.7268   24.2763 C.3     1  UNL1        0.1147
     13 C           8.4115   -4.8904   27.5096 C.2     1  UNL1        0.2551
     14 O           8.8602   -5.6655   28.7128 O.2     1  UNL1       -0.2694
     15 N           8.6922   -5.4145   26.1324 N.am    1  UNL1       -0.2738
     16 C           9.4216   -6.7135   25.9585 C.3     1  UNL1        0.1152
     17 C           5.9604   -1.9631   28.2084 C.ar    1  UNL1        0.0296
     18 C           7.1584   -1.2215   27.6940 C.ar    1  UNL1        0.0071
     19 C           8.2225   -2.2278   27.3696 C.ar    1  UNL1        0.0115
     20 C           7.6820   -3.5914   27.6835 C.ar    1  UNL1        0.0830
     21 S           6.2840   -3.4278   28.2019 S.2     1  UNL1       -0.0824
     22 C           2.0772   -0.1180   29.5376 C.ar    1  UNL1        0.1386
     23 C           3.1683   -0.3700   30.5357 C.ar    1  UNL1        0.0369
     24 C           4.4627   -0.9850   30.0926 C.ar    1  UNL1        0.0036
     25 C           4.6660   -1.3481   28.6515 C.ar    1  UNL1        0.0062
     26 C           3.5749   -1.0961   27.6535 C.ar    1  UNL1        0.0036
     27 C           2.2806   -0.4810   28.0966 C.ar    1  UNL1        0.0369
     28 O           0.7829    0.4971   29.9807 O.3     1  UNL1       -0.4755
     29 C          -1.3181   -0.5381   28.8563 C.3     1  UNL1        0.0512
     30 C          -0.3631    0.6071   29.0192 C.3     1  UNL1        0.2055
     31 N           4.6543   -0.5894   17.9400 N.3     1  UNL1       -0.2982
     32 H           4.1697   -1.3457   17.4568 H       1  UNL1        0.1232
     33 C           3.6430    0.4938   18.1727 C.3     1  UNL1        0.0540
     34 C           4.0905    1.9171   18.3268 C.3     1  UNL1        0.0157
     35 C           3.0792    3.0003   18.5595 C.3     1  UNL1        0.0014
     36 C           1.6205    2.6600   18.6381 C.3     1  UNL1        0.0001
     37 C           0.1383    2.8353   18.7883 C.3     1  UNL1        0.0000
     38 C           1.5533    4.1442   18.8444 C.3     1  UNL1        0.0000
     39 C           1.1730    1.2367   18.4840 C.3     1  UNL1        0.0014
     40 C           2.1843    0.1535   18.2513 C.3     1  UNL1        0.0157
@<TRIPOS>BOND
     1    29    30    1
     2    30    28    1
     3    28    22    1
     4    22    23   ar
     5    23    24   ar
     6    24    25   ar
     7    25    17    1
     8    17    18   ar
     9    18    19   ar
    10    19    20   ar
    11    20    13    1
    12    13    14    2
    13    13    15   am
    14    15    16    1
    15     1    15    1
    16     1     2    1
    17     2     3    1
    18     3     4    1
    19     4     5   am
    20     5     6    2
    21     5     7   am
    22     7     8    1
    23     8     9    1
    24     9    10    1
    25    10    31    1
    26    31    33    1
    27    33    34    1
    28    34    35    1
    29    35    36    1
    30    36    37    1
    31    36    38    1
    32    36    39    1
    33    39    40    1
    34    10    11    1
    35     4    12    1
    36    20    21   ar
    37    25    26   ar
    38    26    27   ar
    39    27    22   ar
    40    21    17   ar
    41    12     1    1
    42    11     7    1
    43    40    33    1
    44    31    32    1
