@<TRIPOS>MOLECULE
*****
 34 36 0 0 0
SMALL
GASTEIGER

@<TRIPOS>ATOM
      1 C           3.5400    0.3252   18.5516 C.ar    1  UNL1        0.0293
      2 C           2.1195    0.8070   18.5361 C.ar    1  UNL1        0.0145
      3 C           1.8263    2.2780   18.5406 C.ar    1  UNL1        0.0505
      4 C           2.9537    3.2674   18.5604 C.ar    1  UNL1        0.0170
      5 C           4.3741    2.7856   18.5759 C.ar    1  UNL1        0.0306
      6 C           4.6673    1.3146   18.5715 C.ar    1  UNL1        0.1380
      7 F           6.0877    0.8329   18.5870 F       1  UNL1       -0.2044
      8 C           3.8842   -2.0490   20.9827 C.3     1  UNL1        0.2354
      9 O           4.1855   -3.4246   20.4663 O.2     1  UNL1       -0.4481
     10 C           4.3107   -3.6609   18.9903 C.2     1  UNL1        0.2769
     11 N           4.6120   -5.0366   18.4738 N.pl3   1  UNL1       -0.3133
     12 N           4.1345   -2.5215   18.0308 N.2     1  UNL1       -0.2214
     13 C           3.8332   -1.1459   18.5472 C.3     1  UNL1        0.1432
     14 C           3.8565   -0.8712   17.0728 C.3     1  UNL1        0.0321
     15 C           3.7081   -0.9096   20.0232 C.3     1  UNL1        0.2276
     16 F           3.4067    0.4661   20.5396 F       1  UNL1       -0.2309
     17 H           4.7276   -5.7844   19.1036 H       1  UNL1        0.1466
     18 H           4.6941   -5.1917   17.5051 H       1  UNL1        0.1466
     19 C           4.7005   -2.4910   23.4093 C.3     1  UNL1        0.0421
     20 C           3.7591   -1.8127   22.4587 C.3     1  UNL1        0.2036
     21 F           2.6926   -0.8982   22.9841 F       1  UNL1       -0.2333
     22 N           0.4059    2.7597   18.5251 N.am    1  UNL1       -0.2791
     23 C          -0.3622    2.8713   19.8086 C.2     1  UNL1        0.2688
     24 O           0.2902    2.5013   21.1077 O.2     1  UNL1       -0.2681
     25 H          -0.0222    3.0025   17.6725 H       1  UNL1        0.1552
     26 C          -1.7827    3.3530   19.7933 C.ar    1  UNL1        0.1541
     27 C          -2.2415    4.3012   18.7253 C.ar    1  UNL1        0.1258
     28 N          -3.6619    4.7829   18.7099 N.ar    1  UNL1       -0.2070
     29 C          -4.6236    4.3165   19.7623 C.ar    1  UNL1        0.2469
     30 C          -4.1647    3.3683   20.8302 C.ar    1  UNL1        0.1566
     31 N          -2.7443    2.8865   20.8457 N.ar    1  UNL1       -0.2328
     32 O          -6.0441    4.7982   19.7469 O.3     1  UNL1       -0.4265
     33 C          -7.0330    4.1869   18.7991 C.3     1  UNL1        0.4044
     34 F          -7.0481    2.7023   18.5854 F       1  UNL1       -0.1809
@<TRIPOS>BOND
     1    20    19    1
     2    20    21    1
     3    20     8    1
     4     8     9    1
     5     9    10    1
     6    10    11    1
     7    10    12    2
     8    12    13    1
     9    13    14    1
    10    13     1    1
    11     1     2   ar
    12     2     3   ar
    13     3    22    1
    14    22    23   am
    15    23    24    2
    16    23    26    1
    17    26    27   ar
    18    27    28   ar
    19    28    29   ar
    20    29    32    1
    21    32    33    1
    22    33    34    1
    23    29    30   ar
    24    30    31   ar
    25     3     4   ar
    26     4     5   ar
    27     5     6   ar
    28     6     7    1
    29    13    15    1
    30    15    16    1
    31    15     8    1
    32     6     1   ar
    33    31    26   ar
    34    11    17    1
    35    11    18    1
    36    22    25    1
@<TRIPOS>MOLECULE
*****
 34 36 0 0 0
SMALL
GASTEIGER

@<TRIPOS>ATOM
      1 C           3.1987   -0.3326   20.7281 C.ar    1  UNL1        0.0293
      2 C           1.7853    0.0929   20.9949 C.ar    1  UNL1        0.0145
      3 C           1.1059    1.0598   20.0711 C.ar    1  UNL1        0.0505
      4 C           1.8400    1.6013   18.8803 C.ar    1  UNL1        0.0170
      5 C           3.2534    1.1758   18.6135 C.ar    1  UNL1        0.0306
      6 C           3.9328    0.2089   19.5373 C.ar    1  UNL1        0.1380
      7 F           5.3462   -0.2164   19.2704 F       1  UNL1       -0.2044
      8 C           3.9550   -3.6594   20.5681 C.3     1  UNL1        0.2354
      9 O           4.6618   -4.1925   21.7789 O.2     1  UNL1       -0.4481
     10 C           4.9768   -3.2790   22.9263 C.2     1  UNL1        0.2769
     11 N           5.6836   -3.8122   24.1372 N.pl3   1  UNL1       -0.3133
     12 N           4.5849   -1.8326   22.8628 N.2     1  UNL1       -0.2214
     13 C           3.8781   -1.2995   21.6519 C.3     1  UNL1        0.1432
     14 C           3.9571   -0.0502   22.4784 C.3     1  UNL1        0.0321
     15 C           3.5632   -2.2129   20.5046 C.3     1  UNL1        0.2276
     16 F           2.8563   -1.6798   19.2937 F       1  UNL1       -0.2309
     17 H           5.9408   -4.7616   24.1789 H       1  UNL1        0.1466
     18 H           5.8903   -3.2127   24.8903 H       1  UNL1        0.1466
     19 C           4.7452   -5.3081   18.7222 C.3     1  UNL1        0.0421
     20 C           3.6401   -4.5729   19.4207 C.3     1  UNL1        0.2036
     21 F           2.2200   -4.7510   18.9719 F       1  UNL1       -0.2333
     22 N          -0.3075    1.4852   20.3380 N.am    1  UNL1       -0.2791
     23 C          -0.5802    2.7773   21.0493 C.2     1  UNL1        0.2688
     24 O           0.5605    3.6440   21.4938 O.2     1  UNL1       -0.2681
     25 H          -1.0562    0.9163   20.0462 H       1  UNL1        0.1552
     26 C          -1.9936    3.2027   21.3163 C.ar    1  UNL1        0.1541
     27 C          -2.3360    3.9065   22.5960 C.ar    1  UNL1        0.1258
     28 N          -3.7493    4.3320   22.8630 N.ar    1  UNL1       -0.2070
     29 C          -4.8204    4.0538   21.8503 C.ar    1  UNL1        0.2469
     30 C          -4.4780    3.3500   20.5706 C.ar    1  UNL1        0.1566
     31 N          -3.0647    2.9245   20.3036 N.ar    1  UNL1       -0.2328
     32 O          -6.2338    4.4793   22.1173 O.3     1  UNL1       -0.4265
     33 C          -6.8594    4.2067   23.4531 C.3     1  UNL1        0.4044
     34 F          -8.3302    3.9279   23.5495 F       1  UNL1       -0.1809
@<TRIPOS>BOND
     1    20    19    1
     2    20    21    1
     3    20     8    1
     4     8     9    1
     5     9    10    1
     6    10    11    1
     7    10    12    2
     8    12    13    1
     9    13    14    1
    10    13     1    1
    11     1     2   ar
    12     2     3   ar
    13     3    22    1
    14    22    23   am
    15    23    24    2
    16    23    26    1
    17    26    27   ar
    18    27    28   ar
    19    28    29   ar
    20    29    32    1
    21    32    33    1
    22    33    34    1
    23    29    30   ar
    24    30    31   ar
    25     3     4   ar
    26     4     5   ar
    27     5     6   ar
    28     6     7    1
    29    13    15    1
    30    15    16    1
    31    15     8    1
    32     6     1   ar
    33    31    26   ar
    34    11    17    1
    35    11    18    1
    36    22    25    1
@<TRIPOS>MOLECULE
*****
 34 36 0 0 0
SMALL
GASTEIGER

@<TRIPOS>ATOM
      1 C           3.7917   -0.3066   20.4199 C.ar    1  UNL1        0.0293
      2 C           2.3431    0.0828   20.4163 C.ar    1  UNL1        0.0145
      3 C           1.8328    1.0647   19.4037 C.ar    1  UNL1        0.0505
      4 C           2.7712    1.6573   18.3945 C.ar    1  UNL1        0.0170
      5 C           4.2197    1.2679   18.3980 C.ar    1  UNL1        0.0306
      6 C           4.7300    0.2860   19.4107 C.ar    1  UNL1        0.1380
      7 F           6.1785   -0.1034   19.4142 F       1  UNL1       -0.2044
      8 C           4.1296   -3.7045   20.4928 C.3     1  UNL1        0.2354
      9 O           4.7089   -4.2417   21.7679 O.2     1  UNL1       -0.4481
     10 C           5.0846   -3.3023   22.8753 C.2     1  UNL1        0.2769
     11 N           5.6639   -3.8396   24.1504 N.pl3   1  UNL1       -0.3133
     12 N           4.8811   -1.8257   22.7076 N.2     1  UNL1       -0.2214
     13 C           4.3019   -1.2885   21.4325 C.3     1  UNL1        0.1432
     14 C           4.5004   -0.0080   22.1882 C.3     1  UNL1        0.0321
     15 C           3.9262   -2.2279   20.3251 C.3     1  UNL1        0.2276
     16 F           3.3469   -1.6906   19.0500 F       1  UNL1       -0.2309
     17 H           5.7974   -4.8088   24.2605 H       1  UNL1        0.1466
     18 H           5.9105   -3.2230   24.8773 H       1  UNL1        0.1466
     19 C           4.8153   -5.4365   18.6817 C.3     1  UNL1        0.0421
     20 C           3.7539   -4.6439   19.3854 C.3     1  UNL1        0.2036
     21 F           2.3168   -4.7908   18.9817 F       1  UNL1       -0.2333
     22 N           0.3843    1.4541   19.4002 N.am    1  UNL1       -0.2791
     23 C          -0.0178    2.8508   19.7710 C.2     1  UNL1        0.2688
     24 O           1.0287    3.8581   20.1453 O.2     1  UNL1       -0.2681
     25 H          -0.3026    0.7929   19.1545 H       1  UNL1        0.1552
     26 C          -1.4664    3.2402   19.7676 C.ar    1  UNL1        0.1541
     27 C          -2.0178    4.0679   18.6446 C.ar    1  UNL1        0.1258
     28 N          -3.4663    4.4574   18.6411 N.ar    1  UNL1       -0.2070
     29 C          -4.3635    4.0192   19.7605 C.ar    1  UNL1        0.2469
     30 C          -3.8121    3.1915   20.8834 C.ar    1  UNL1        0.1566
     31 N          -2.3636    2.8020   20.8869 N.ar    1  UNL1       -0.2328
     32 O          -5.8121    4.4087   19.7570 O.3     1  UNL1       -0.4265
     33 C          -6.6816    4.0524   18.5878 C.3     1  UNL1        0.4044
     34 F          -6.7153    4.9411   17.3799 F       1  UNL1       -0.1809
@<TRIPOS>BOND
     1    20    19    1
     2    20    21    1
     3    20     8    1
     4     8     9    1
     5     9    10    1
     6    10    11    1
     7    10    12    2
     8    12    13    1
     9    13    14    1
    10    13     1    1
    11     1     2   ar
    12     2     3   ar
    13     3    22    1
    14    22    23   am
    15    23    24    2
    16    23    26    1
    17    26    27   ar
    18    27    28   ar
    19    28    29   ar
    20    29    32    1
    21    32    33    1
    22    33    34    1
    23    29    30   ar
    24    30    31   ar
    25     3     4   ar
    26     4     5   ar
    27     5     6   ar
    28     6     7    1
    29    13    15    1
    30    15    16    1
    31    15     8    1
    32     6     1   ar
    33    31    26   ar
    34    11    17    1
    35    11    18    1
    36    22    25    1
@<TRIPOS>MOLECULE
*****
 34 36 0 0 0
SMALL
GASTEIGER

@<TRIPOS>ATOM
      1 C          -9.6841  -19.3563   21.3521 C.ar    1  UNL1        0.0293
      2 C          -8.2835  -18.8193   21.3546 C.ar    1  UNL1        0.0145
      3 C          -7.4152  -18.9830   20.1425 C.ar    1  UNL1        0.0505
      4 C          -7.9475  -19.6837   18.9277 C.ar    1  UNL1        0.0170
      5 C          -9.3481  -20.2207   18.9251 C.ar    1  UNL1        0.0306
      6 C         -10.2164  -20.0570   20.1373 C.ar    1  UNL1        0.1380
      7 F         -11.6169  -20.5941   20.1346 F       1  UNL1       -0.2044
      8 C         -12.1338  -17.1546   22.2557 C.3     1  UNL1        0.2354
      9 O         -12.7255  -17.4087   23.6104 O.2     1  UNL1       -0.4481
     10 C         -12.2306  -18.5548   24.4420 C.2     1  UNL1        0.2769
     11 N         -12.8224  -18.8089   25.7968 N.pl3   1  UNL1       -0.3133
     12 N         -11.1440  -19.4468   23.9189 N.2     1  UNL1       -0.2214
     13 C         -10.5524  -19.1927   22.5642 C.3     1  UNL1        0.1432
     14 C          -9.7559  -20.3956   22.9748 C.3     1  UNL1        0.0321
     15 C         -11.0473  -18.0466   21.7326 C.3     1  UNL1        0.2276
     16 F         -10.4555  -17.7925   20.3778 F       1  UNL1       -0.2309
     17 H         -13.5355  -18.2234   26.1401 H       1  UNL1        0.1466
     18 H         -12.4976  -19.5611   26.3426 H       1  UNL1        0.1466
     19 C         -12.4073  -16.0078   19.9405 C.3     1  UNL1        0.0421
     20 C         -12.6287  -16.0085   21.4241 C.3     1  UNL1        0.2036
     21 F         -13.3451  -14.8632   22.0760 F       1  UNL1       -0.2333
     22 N          -6.0147  -18.4459   20.1451 N.am    1  UNL1       -0.2791
     23 C          -4.8493  -19.3903   20.1392 C.2     1  UNL1        0.2688
     24 O          -5.0845  -20.8718   20.1306 O.2     1  UNL1       -0.2681
     25 H          -5.8603  -17.4736   20.1507 H       1  UNL1        0.1552
     26 C          -3.4487  -18.8533   20.1418 C.ar    1  UNL1        0.1541
     27 C          -2.4603  -19.3414   21.1592 C.ar    1  UNL1        0.1258
     28 N          -1.0598  -18.8045   21.1619 N.ar    1  UNL1       -0.2070
     29 C          -0.6475  -17.7796   20.1473 C.ar    1  UNL1        0.2469
     30 C          -1.6359  -17.2915   19.1299 C.ar    1  UNL1        0.1566
     31 N          -3.0364  -17.8284   19.1272 N.ar    1  UNL1       -0.2328
     32 O           0.7532  -17.2426   20.1499 O.3     1  UNL1       -0.4265
     33 C           1.8353  -17.9740   20.8875 C.3     1  UNL1        0.4044
     34 F           3.1098  -17.2676   21.2435 F       1  UNL1       -0.1809
@<TRIPOS>BOND
     1    20    19    1
     2    20    21    1
     3    20     8    1
     4     8     9    1
     5     9    10    1
     6    10    11    1
     7    10    12    2
     8    12    13    1
     9    13    14    1
    10    13     1    1
    11     1     2   ar
    12     2     3   ar
    13     3    22    1
    14    22    23   am
    15    23    24    2
    16    23    26    1
    17    26    27   ar
    18    27    28   ar
    19    28    29   ar
    20    29    32    1
    21    32    33    1
    22    33    34    1
    23    29    30   ar
    24    30    31   ar
    25     3     4   ar
    26     4     5   ar
    27     5     6   ar
    28     6     7    1
    29    13    15    1
    30    15    16    1
    31    15     8    1
    32     6     1   ar
    33    31    26   ar
    34    11    17    1
    35    11    18    1
    36    22    25    1
@<TRIPOS>MOLECULE
*****
 34 36 0 0 0
SMALL
GASTEIGER

@<TRIPOS>ATOM
      1 C           4.4219   -1.4764   20.2443 C.ar    1  UNL1        0.0293
      2 C           4.6855   -1.6503   21.7106 C.ar    1  UNL1        0.0145
      3 C           4.6847   -3.0230   22.3153 C.ar    1  UNL1        0.0505
      4 C           4.4204   -4.2220   21.4534 C.ar    1  UNL1        0.0170
      5 C           4.1569   -4.0481   19.9871 C.ar    1  UNL1        0.0306
      6 C           4.1576   -2.6753   19.3824 C.ar    1  UNL1        0.1380
      7 F           3.8941   -2.5015   17.9161 F       1  UNL1       -0.2044
      8 C           2.0520    0.9450   19.8132 C.3     1  UNL1        0.2354
      9 O           2.5510    2.1854   19.1334 O.2     1  UNL1       -0.4481
     10 C           3.9858    2.2813   18.7066 C.2     1  UNL1        0.2769
     11 N           4.4847    3.5219   18.0267 N.pl3   1  UNL1       -0.3133
     12 N           4.9216    1.1368   18.9598 N.2     1  UNL1       -0.2214
     13 C           4.4227   -0.1036   19.6397 C.3     1  UNL1        0.1432
     14 C           5.8572   -0.4845   19.4229 C.3     1  UNL1        0.0321
     15 C           2.9879   -0.1996   20.0664 C.3     1  UNL1        0.2276
     16 F           2.4889   -1.4401   20.7463 F       1  UNL1       -0.2309
     17 H           3.8704    4.2731   17.8606 H       1  UNL1        0.1466
     18 H           5.4264    3.5849   17.7466 H       1  UNL1        0.1466
     19 C          -0.1853    2.0973   20.4585 C.3     1  UNL1        0.0421
     20 C           0.6172    0.8491   20.2400 C.3     1  UNL1        0.2036
     21 F          -0.0151   -0.4951   20.4482 F       1  UNL1       -0.2333
     22 N           4.9483   -3.1968   23.7816 N.am    1  UNL1       -0.2791
     23 C           6.2091   -3.8658   24.2429 C.2     1  UNL1        0.2688
     24 O           7.2064   -4.3609   23.2378 O.2     1  UNL1       -0.2681
     25 H           4.2937   -2.8719   24.4413 H       1  UNL1        0.1552
     26 C           6.4727   -4.0396   25.7093 C.ar    1  UNL1        0.1541
     27 C           6.3159   -2.8758   26.6426 C.ar    1  UNL1        0.1258
     28 N           6.5796   -3.0496   28.1090 N.ar    1  UNL1       -0.2070
     29 C           7.0000   -4.3871   28.6421 C.ar    1  UNL1        0.2469
     30 C           7.1568   -5.5509   27.7088 C.ar    1  UNL1        0.1566
     31 N           6.8932   -5.3772   26.2424 N.ar    1  UNL1       -0.2328
     32 O           7.2636   -4.5610   30.1085 O.3     1  UNL1       -0.4265
     33 C           6.5775   -3.6733   31.1042 C.3     1  UNL1        0.4044
     34 F           6.4467   -4.1100   32.5333 F       1  UNL1       -0.1809
@<TRIPOS>BOND
     1    20    19    1
     2    20    21    1
     3    20     8    1
     4     8     9    1
     5     9    10    1
     6    10    11    1
     7    10    12    2
     8    12    13    1
     9    13    14    1
    10    13     1    1
    11     1     2   ar
    12     2     3   ar
    13     3    22    1
    14    22    23   am
    15    23    24    2
    16    23    26    1
    17    26    27   ar
    18    27    28   ar
    19    28    29   ar
    20    29    32    1
    21    32    33    1
    22    33    34    1
    23    29    30   ar
    24    30    31   ar
    25     3     4   ar
    26     4     5   ar
    27     5     6   ar
    28     6     7    1
    29    13    15    1
    30    15    16    1
    31    15     8    1
    32     6     1   ar
    33    31    26   ar
    34    11    17    1
    35    11    18    1
    36    22    25    1
@<TRIPOS>MOLECULE
*****
 34 36 0 0 0
SMALL
GASTEIGER

@<TRIPOS>ATOM
      1 C         -14.4356   -1.9154   18.5567 C.ar    1  UNL1        0.0293
      2 C         -15.1630   -1.3476   19.7393 C.ar    1  UNL1        0.0145
      3 C         -16.4492   -0.6016   19.5414 C.ar    1  UNL1        0.0505
      4 C         -17.0080   -0.4233   18.1608 C.ar    1  UNL1        0.0170
      5 C         -16.2806   -0.9911   16.9782 C.ar    1  UNL1        0.0306
      6 C         -14.9944   -1.7372   17.1761 C.ar    1  UNL1        0.1380
      7 F         -14.2671   -2.3049   15.9935 F       1  UNL1       -0.2044
      8 C         -13.6303   -5.1966   19.0576 C.3     1  UNL1        0.2354
      9 O         -12.1606   -5.4578   19.2046 O.2     1  UNL1       -0.4481
     10 C         -11.1853   -4.3208   19.1265 C.2     1  UNL1        0.2769
     11 N          -9.7155   -4.5821   19.2735 N.pl3   1  UNL1       -0.3133
     12 N         -11.6797   -2.9227   18.9016 N.2     1  UNL1       -0.2214
     13 C         -13.1494   -2.6615   18.7546 C.3     1  UNL1        0.1432
     14 C         -12.6209   -1.2654   18.6078 C.3     1  UNL1        0.0321
     15 C         -14.1247   -3.7984   18.8327 C.3     1  UNL1        0.2276
     16 F         -15.5945   -3.5372   18.6857 F       1  UNL1       -0.2309
     17 H          -9.3910   -5.4998   19.4211 H       1  UNL1        0.1466
     18 H          -9.0754   -3.8359   19.2223 H       1  UNL1        0.1466
     19 C         -14.2355   -7.6784   18.5840 C.3     1  UNL1        0.0421
     20 C         -14.6057   -6.3335   19.1357 C.3     1  UNL1        0.2036
     21 F         -15.9511   -6.1257   19.7654 F       1  UNL1       -0.2333
     22 N         -17.1765   -0.0338   20.7240 N.am    1  UNL1       -0.2791
     23 C         -17.2188    1.4504   20.9366 C.2     1  UNL1        0.2688
     24 O         -16.5338    2.3669   19.9666 O.2     1  UNL1       -0.2681
     25 H         -17.6260   -0.6353   21.3606 H       1  UNL1        0.1552
     26 C         -17.9461    2.0183   22.1192 C.ar    1  UNL1        0.1541
     27 C         -17.3429    3.1492   22.8984 C.ar    1  UNL1        0.1258
     28 N         -18.0701    3.7172   24.0810 N.ar    1  UNL1       -0.2070
     29 C         -19.4006    3.1542   24.4844 C.ar    1  UNL1        0.2469
     30 C         -20.0038    2.0232   23.7053 C.ar    1  UNL1        0.1566
     31 N         -19.2766    1.4553   22.5227 N.ar    1  UNL1       -0.2328
     32 O         -20.1279    3.7221   25.6671 O.3     1  UNL1       -0.4265
     33 C         -19.8050    5.1039   26.1533 C.3     1  UNL1        0.4044
     34 F         -18.7506    5.3028   27.2015 F       1  UNL1       -0.1809
@<TRIPOS>BOND
     1    20    19    1
     2    20    21    1
     3    20     8    1
     4     8     9    1
     5     9    10    1
     6    10    11    1
     7    10    12    2
     8    12    13    1
     9    13    14    1
    10    13     1    1
    11     1     2   ar
    12     2     3   ar
    13     3    22    1
    14    22    23   am
    15    23    24    2
    16    23    26    1
    17    26    27   ar
    18    27    28   ar
    19    28    29   ar
    20    29    32    1
    21    32    33    1
    22    33    34    1
    23    29    30   ar
    24    30    31   ar
    25     3     4   ar
    26     4     5   ar
    27     5     6   ar
    28     6     7    1
    29    13    15    1
    30    15    16    1
    31    15     8    1
    32     6     1   ar
    33    31    26   ar
    34    11    17    1
    35    11    18    1
    36    22    25    1
@<TRIPOS>MOLECULE
*****
 34 36 0 0 0
SMALL
GASTEIGER

@<TRIPOS>ATOM
      1 C           4.6457    2.0231   36.4173 C.ar    1  UNL1        0.0293
      2 C           4.6423    0.9660   35.3531 C.ar    1  UNL1        0.0145
      3 C           5.7559   -0.0369   35.2885 C.ar    1  UNL1        0.0505
      4 C           6.8729    0.0174   36.2882 C.ar    1  UNL1        0.0170
      5 C           6.8763    1.0745   37.3523 C.ar    1  UNL1        0.0306
      6 C           5.7627    2.0774   37.4169 C.ar    1  UNL1        0.1380
      7 F           5.7662    3.1345   38.4811 F       1  UNL1       -0.2044
      8 C           1.7406    2.2552   38.1983 C.3     1  UNL1        0.2354
      9 O           0.9320    3.4843   37.9063 O.2     1  UNL1       -0.4481
     10 C           1.4235    4.4844   36.9021 C.2     1  UNL1        0.2769
     11 N           0.6148    5.7136   36.6102 N.pl3   1  UNL1       -0.3133
     12 N           2.7235    4.2552   36.1899 N.2     1  UNL1       -0.2214
     13 C           3.5321    3.0260   36.4818 C.3     1  UNL1        0.1432
     14 C           4.4103    3.6777   35.4552 C.3     1  UNL1        0.0321
     15 C           3.0406    2.0260   37.4860 C.3     1  UNL1        0.2276
     16 F           3.8493    0.7968   37.7780 F       1  UNL1       -0.2309
     17 H          -0.2385    5.8640   37.0777 H       1  UNL1        0.1466
     18 H           0.9374    6.3699   35.9511 H       1  UNL1        0.1466
     19 C           0.6447    1.7232   40.4930 C.3     1  UNL1        0.0421
     20 C           1.2491    1.2551   39.2025 C.3     1  UNL1        0.2036
     21 F           1.3621   -0.2129   38.9161 F       1  UNL1       -0.2333
     22 N           5.7524   -1.0939   34.2244 N.am    1  UNL1       -0.2791
     23 C           6.5984   -0.9256   32.9972 C.2     1  UNL1        0.2688
     24 O           7.4480    0.2999   32.8343 O.2     1  UNL1       -0.2681
     25 H           5.1948   -1.8982   34.3313 H       1  UNL1        0.1552
     26 C           6.5950   -1.9826   31.9330 C.ar    1  UNL1        0.1541
     27 C           6.6379   -3.4324   32.3158 C.ar    1  UNL1        0.1258
     28 N           6.6345   -4.4895   31.2516 N.ar    1  UNL1       -0.2070
     29 C           6.5883   -4.0969   29.8047 C.ar    1  UNL1        0.2469
     30 C           6.5454   -2.6472   29.4219 C.ar    1  UNL1        0.1566
     31 N           6.5488   -1.5901   30.4860 N.ar    1  UNL1       -0.2328
     32 O           6.5849   -5.1541   28.7404 O.3     1  UNL1       -0.4265
     33 C           7.7997   -6.0077   28.5274 C.3     1  UNL1        0.4044
     34 F           8.5718   -6.5209   29.7067 F       1  UNL1       -0.1809
@<TRIPOS>BOND
     1    20    19    1
     2    20    21    1
     3    20     8    1
     4     8     9    1
     5     9    10    1
     6    10    11    1
     7    10    12    2
     8    12    13    1
     9    13    14    1
    10    13     1    1
    11     1     2   ar
    12     2     3   ar
    13     3    22    1
    14    22    23   am
    15    23    24    2
    16    23    26    1
    17    26    27   ar
    18    27    28   ar
    19    28    29   ar
    20    29    32    1
    21    32    33    1
    22    33    34    1
    23    29    30   ar
    24    30    31   ar
    25     3     4   ar
    26     4     5   ar
    27     5     6   ar
    28     6     7    1
    29    13    15    1
    30    15    16    1
    31    15     8    1
    32     6     1   ar
    33    31    26   ar
    34    11    17    1
    35    11    18    1
    36    22    25    1
@<TRIPOS>MOLECULE
*****
 34 36 0 0 0
SMALL
GASTEIGER

@<TRIPOS>ATOM
      1 C         -16.8721    1.2301   19.8769 C.ar    1  UNL1        0.0293
      2 C         -15.7021    0.2916   19.8663 C.ar    1  UNL1        0.0145
      3 C         -15.0357   -0.0618   18.5697 C.ar    1  UNL1        0.0505
      4 C         -15.5394    0.5234   17.2837 C.ar    1  UNL1        0.0170
      5 C         -16.7094    1.4620   17.2943 C.ar    1  UNL1        0.0306
      6 C         -17.3758    1.8153   18.5909 C.ar    1  UNL1        0.1380
      7 F         -18.5458    2.7539   18.6014 F       1  UNL1       -0.2044
      8 C         -16.4277    3.6979   22.1960 C.3     1  UNL1        0.2354
      9 O         -17.3702    3.6296   23.3609 O.2     1  UNL1       -0.4481
     10 C         -18.3969    2.5383   23.4320 C.2     1  UNL1        0.2769
     11 N         -19.3395    2.4701   24.5970 N.pl3   1  UNL1       -0.3133
     12 N         -18.4810    1.5153   22.3383 N.2     1  UNL1       -0.2214
     13 C         -17.5385    1.5835   21.1735 C.3     1  UNL1        0.1432
     14 C         -18.3337    0.3695   20.7943 C.3     1  UNL1        0.0321
     15 C         -16.5118    2.6748   21.1023 C.3     1  UNL1        0.2276
     16 F         -15.5693    2.7430   19.9374 F       1  UNL1       -0.2309
     17 H         -19.2842    3.1416   25.3148 H       1  UNL1        0.1466
     18 H         -20.0133    1.7539   24.6437 H       1  UNL1        0.1466
     19 C         -15.7954    6.1609   21.6635 C.3     1  UNL1        0.0421
     20 C         -15.4011    4.7892   22.1249 C.3     1  UNL1        0.2036
     21 F         -13.9801    4.5087   22.5150 F       1  UNL1       -0.2333
     22 N         -13.8657   -1.0003   18.5592 N.am    1  UNL1       -0.2791
     23 C         -14.0563   -2.4408   18.9317 C.2     1  UNL1        0.2688
     24 O         -15.4170   -2.9426   19.3148 O.2     1  UNL1       -0.2681
     25 H         -12.9726   -0.6709   18.3078 H       1  UNL1        0.1552
     26 C         -12.8863   -3.3794   18.9212 C.ar    1  UNL1        0.1541
     27 C         -13.0855   -4.8298   19.2478 C.ar    1  UNL1        0.1258
     28 N         -11.9156   -5.7685   19.2373 N.ar    1  UNL1       -0.2070
     29 C         -10.5465   -5.2568   18.9003 C.ar    1  UNL1        0.2469
     30 C         -10.3473   -3.8064   18.5737 C.ar    1  UNL1        0.1566
     31 N         -11.5172   -2.8677   18.5841 N.ar    1  UNL1       -0.2328
     32 O          -9.3764   -6.1955   18.8898 O.3     1  UNL1       -0.4265
     33 C          -9.6044   -7.6780   18.8887 C.3     1  UNL1        0.4044
     34 F         -10.0065   -8.3741   17.6222 F       1  UNL1       -0.1809
@<TRIPOS>BOND
     1    20    19    1
     2    20    21    1
     3    20     8    1
     4     8     9    1
     5     9    10    1
     6    10    11    1
     7    10    12    2
     8    12    13    1
     9    13    14    1
    10    13     1    1
    11     1     2   ar
    12     2     3   ar
    13     3    22    1
    14    22    23   am
    15    23    24    2
    16    23    26    1
    17    26    27   ar
    18    27    28   ar
    19    28    29   ar
    20    29    32    1
    21    32    33    1
    22    33    34    1
    23    29    30   ar
    24    30    31   ar
    25     3     4   ar
    26     4     5   ar
    27     5     6   ar
    28     6     7    1
    29    13    15    1
    30    15    16    1
    31    15     8    1
    32     6     1   ar
    33    31    26   ar
    34    11    17    1
    35    11    18    1
    36    22    25    1
@<TRIPOS>MOLECULE
*****
 34 36 0 0 0
SMALL
GASTEIGER

@<TRIPOS>ATOM
      1 C           3.2681    0.5191   21.4660 C.ar    1  UNL1        0.0293
      2 C           1.9399    0.8678   20.8624 C.ar    1  UNL1        0.0145
      3 C           0.7665    1.1609   21.7497 C.ar    1  UNL1        0.0505
      4 C           0.9213    1.1053   23.2407 C.ar    1  UNL1        0.0170
      5 C           2.2495    0.7566   23.8443 C.ar    1  UNL1        0.0306
      6 C           3.4229    0.4635   22.9570 C.ar    1  UNL1        0.1380
      7 F           4.7510    0.1148   23.5607 F       1  UNL1       -0.2044
      8 C           4.5946   -2.3271   20.1225 C.3     1  UNL1        0.2354
      9 O           5.8111   -2.1025   19.2742 O.2     1  UNL1       -0.4481
     10 C           6.3428   -0.7137   19.0782 C.2     1  UNL1        0.2769
     11 N           7.5594   -0.4891   18.2299 N.pl3   1  UNL1       -0.3133
     12 N           5.6580    0.4506   19.7305 N.2     1  UNL1       -0.2214
     13 C           4.4415    0.2260   20.5788 C.3     1  UNL1        0.1432
     14 C           4.5656    1.7166   20.6910 C.3     1  UNL1        0.0321
     15 C           3.9098   -1.1628   20.7748 C.3     1  UNL1        0.2276
     16 F           2.6932   -1.3874   21.6231 F       1  UNL1       -0.2309
     17 H           8.0088   -1.2533   17.8017 H       1  UNL1        0.1466
     18 H           7.9084    0.4224   18.1012 H       1  UNL1        0.1466
     19 C           3.4388   -4.4493   19.1685 C.3     1  UNL1        0.0421
     20 C           4.0628   -3.7159   20.3185 C.3     1  UNL1        0.2036
     21 F           4.1551   -4.3713   21.6645 F       1  UNL1       -0.2333
     22 N          -0.5616    1.5096   21.1460 N.am    1  UNL1       -0.2791
     23 C          -0.8726    2.9329   20.7890 C.2     1  UNL1        0.2688
     24 O           0.1445    4.0075   21.0357 O.2     1  UNL1       -0.2681
     25 H          -1.2291    0.8044   20.9841 H       1  UNL1        0.1552
     26 C          -2.2007    3.2817   20.1853 C.ar    1  UNL1        0.1541
     27 C          -2.2611    4.0011   18.8704 C.ar    1  UNL1        0.1258
     28 N          -3.5891    4.3500   18.2666 N.ar    1  UNL1       -0.2070
     29 C          -4.8568    3.9795   18.9777 C.ar    1  UNL1        0.2469
     30 C          -4.7965    3.2601   20.2926 C.ar    1  UNL1        0.1566
     31 N          -3.4684    2.9112   20.8964 N.ar    1  UNL1       -0.2328
     32 O          -6.1850    4.3283   18.3740 O.3     1  UNL1       -0.4265
     33 C          -7.2677    4.9142   19.2310 C.3     1  UNL1        0.4044
     34 F          -8.6138    5.2118   18.6397 F       1  UNL1       -0.1809
@<TRIPOS>BOND
     1    20    19    1
     2    20    21    1
     3    20     8    1
     4     8     9    1
     5     9    10    1
     6    10    11    1
     7    10    12    2
     8    12    13    1
     9    13    14    1
    10    13     1    1
    11     1     2   ar
    12     2     3   ar
    13     3    22    1
    14    22    23   am
    15    23    24    2
    16    23    26    1
    17    26    27   ar
    18    27    28   ar
    19    28    29   ar
    20    29    32    1
    21    32    33    1
    22    33    34    1
    23    29    30   ar
    24    30    31   ar
    25     3     4   ar
    26     4     5   ar
    27     5     6   ar
    28     6     7    1
    29    13    15    1
    30    15    16    1
    31    15     8    1
    32     6     1   ar
    33    31    26   ar
    34    11    17    1
    35    11    18    1
    36    22    25    1
