@<TRIPOS>MOLECULE
*****
 44 48 0 0 0
SMALL
GASTEIGER

@<TRIPOS>ATOM
      1 N           7.6611   -4.5617   28.0570 N.am    1  UNL1       -0.2733
      2 C           7.3829   -4.7787   29.5150 C.2     1  UNL1        0.2462
      3 O           7.8119   -6.0535   30.1788 O.2     1  UNL1       -0.2730
      4 C           6.6756   -3.7208   30.3090 C.3     1  UNL1        0.1759
      5 N           6.2465   -2.4460   29.6452 N.am    1  UNL1       -0.2951
      6 C           6.5247   -2.2290   28.1873 C.2     1  UNL1        0.2390
      7 O           6.0956   -0.9542   27.5235 O.2     1  UNL1       -0.2734
      8 C           7.2320   -3.2869   27.3932 C.3     1  UNL1        0.1314
      9 C           7.9393   -4.3448   26.5991 C.3     1  UNL1        0.0445
     10 C           8.2176   -4.1278   25.1413 C.3     1  UNL1        0.0745
     11 N           7.7885   -2.8530   24.4774 N.3     1  UNL1       -0.2688
     12 C           7.0812   -1.7951   25.2715 C.3     1  UNL1        0.0745
     13 C           6.8029   -2.0121   26.7294 C.3     1  UNL1        0.0445
     14 H           5.7822   -1.7517   30.1664 H       1  UNL1        0.1499
     15 C           6.3973   -3.9378   31.7670 C.3     1  UNL1        0.1372
     16 O           6.4374   -5.3234   32.3401 O.3     1  UNL1       -0.3823
     17 H           6.6561   -5.9570   31.6390 H       1  UNL1        0.2104
     18 C           6.0789   -2.7691   32.6518 C.3     1  UNL1        0.0291
     19 C           4.6895   -2.5912   33.1883 C.3     1  UNL1        0.0025
     20 C           4.3711   -1.4225   34.0731 C.3     1  UNL1        0.0001
     21 C           5.4422   -0.4318   34.4214 C.3     1  UNL1        0.0000
     22 C           6.8316   -0.6097   33.8848 C.3     1  UNL1        0.0001
     23 C           7.1500   -1.7784   33.0000 C.3     1  UNL1        0.0025
     24 C           8.3684   -5.6196   27.2630 C.3     1  UNL1        0.0938
     25 C           7.6949   -6.9330   26.9960 C.3     1  UNL1        0.0215
     26 C           8.4223   -7.6545   24.6084 C.3     1  UNL1        0.0001
     27 C           8.3366   -7.9325   26.0800 C.3     1  UNL1        0.0018
     28 C           8.0667   -2.6360   23.0195 C.3     1  UNL1        0.0992
     29 C           6.9295   -2.4733   22.0550 C.ar    1  UNL1       -0.0059
     30 C           5.8660   -3.5272   21.9647 C.ar    1  UNL1        0.0002
     31 C           4.7288   -3.3644   21.0002 C.ar    1  UNL1        0.0372
     32 C           4.6551   -2.1478   20.1260 C.ar    1  UNL1        0.1453
     33 C           5.7186   -1.0938   20.2163 C.ar    1  UNL1        0.0372
     34 C           6.8558   -1.2566   21.1808 C.ar    1  UNL1        0.0002
     35 O           3.5179   -1.9850   19.1615 O.3     1  UNL1       -0.4535
     36 C           2.5504   -0.8508   19.3272 C.ar    1  UNL1        0.1453
     37 C           1.4860   -0.9209   20.3818 C.ar    1  UNL1        0.0375
     38 C           0.5186    0.2134   20.5475 C.ar    1  UNL1        0.0043
     39 C           0.6154    1.4177   19.6586 C.ar    1  UNL1        0.0142
     40 C           1.6798    1.4878   18.6040 C.ar    1  UNL1        0.0043
     41 C           2.6473    0.3536   18.4383 C.ar    1  UNL1        0.0375
     42 C          -0.3521    2.5519   19.8243 C.2     1  UNL1        0.0729
     43 O          -1.4724    2.4433   20.8159 O.co2   1  UNL1       -0.5446
     44 O          -0.1993    3.7948   18.9985 O.co2   1  UNL1       -0.5446
@<TRIPOS>UNITY_ATOM_ATTR
43 1
charge -1
@<TRIPOS>BOND
     1    26    27    1
     2    27    25    1
     3    25    24    1
     4    24     1    1
     5     1     2   am
     6     2     3    2
     7     2     4    1
     8     4    15    1
     9    15    16    1
    10    15    18    1
    11    18    19    1
    12    19    20    1
    13    20    21    1
    14    21    22    1
    15    22    23    1
    16     4     5    1
    17     5     6   am
    18     6     7    2
    19     6     8    1
    20     8     9    1
    21     9    10    1
    22    10    11    1
    23    11    28    1
    24    28    29    1
    25    29    30   ar
    26    30    31   ar
    27    31    32   ar
    28    32    35    1
    29    35    36    1
    30    36    37   ar
    31    37    38   ar
    32    38    39   ar
    33    39    42    1
    34    42    43   ar
    35    42    44   ar
    36    39    40   ar
    37    40    41   ar
    38    32    33   ar
    39    33    34   ar
    40    11    12    1
    41    12    13    1
    42     8     1    1
    43    34    29   ar
    44    23    18    1
    45    13     8    1
    46    41    36   ar
    47    16    17    1
    48     5    14    1
@<TRIPOS>MOLECULE
*****
 44 48 0 0 0
SMALL
GASTEIGER

@<TRIPOS>ATOM
      1 N           7.2233   -5.3777   26.8856 N.am    1  UNL1       -0.2733
      2 C           7.2938   -5.4453   25.3888 C.2     1  UNL1        0.2462
      3 O           7.7671   -6.6996   24.7161 O.2     1  UNL1       -0.2730
      4 C           6.8911   -4.2584   24.5647 C.3     1  UNL1        0.1759
      5 N           6.4178   -3.0040   25.2374 N.am    1  UNL1       -0.2951
      6 C           6.3473   -2.9365   26.7342 C.2     1  UNL1        0.2390
      7 O           5.8740   -1.6821   27.4069 O.2     1  UNL1       -0.2734
      8 C           6.7500   -4.1234   27.5583 C.3     1  UNL1        0.1314
      9 C           7.1528   -5.3102   28.3824 C.3     1  UNL1        0.0445
     10 C           7.0823   -5.2427   29.8792 C.3     1  UNL1        0.0745
     11 N           6.6090   -3.9883   30.5519 N.3     1  UNL1       -0.2688
     12 C           6.2062   -2.8014   29.7278 C.3     1  UNL1        0.0745
     13 C           6.2768   -2.8690   28.2310 C.3     1  UNL1        0.0445
     14 H           6.1535   -2.2251   24.6965 H       1  UNL1        0.1499
     15 C           6.9616   -4.3259   23.0678 C.3     1  UNL1        0.1372
     16 O           7.8120   -5.3677   22.4033 O.3     1  UNL1       -0.3823
     17 H           8.2450   -5.9114   23.0799 H       1  UNL1        0.2104
     18 C           6.1817   -3.3517   22.2355 C.3     1  UNL1        0.0291
     19 C           6.8891   -2.2311   21.5327 C.3     1  UNL1        0.0025
     20 C           6.1092   -1.2569   20.7005 C.3     1  UNL1        0.0001
     21 C           4.6219   -1.4033   20.5710 C.3     1  UNL1        0.0000
     22 C           3.9146   -2.5239   21.2738 C.3     1  UNL1        0.0001
     23 C           4.6946   -3.4981   22.1061 C.3     1  UNL1        0.0025
     24 C           7.6261   -6.5646   27.7097 C.3     1  UNL1        0.0938
     25 C           9.0569   -7.0145   27.7276 C.3     1  UNL1        0.0215
     26 C           8.2797   -9.4911   27.6154 C.3     1  UNL1        0.0001
     27 C           9.3834   -8.4780   27.6897 C.3     1  UNL1        0.0018
     28 C           6.5385   -3.9208   32.0488 C.3     1  UNL1        0.0992
     29 C           6.3393   -2.6001   32.7314 C.ar    1  UNL1       -0.0059
     30 C           4.9785   -2.2098   33.2272 C.ar    1  UNL1        0.0002
     31 C           4.7793   -0.8890   33.9099 C.ar    1  UNL1        0.0372
     32 C           5.9409    0.0414   34.0967 C.ar    1  UNL1        0.1453
     33 C           7.3017   -0.3489   33.6009 C.ar    1  UNL1        0.0372
     34 C           7.5009   -1.6696   32.9183 C.ar    1  UNL1        0.0002
     35 O           5.7417    1.3621   34.7794 O.3     1  UNL1       -0.4535
     36 C           4.6914    1.5070   35.8404 C.ar    1  UNL1        0.1453
     37 C           4.7486    0.6552   37.0737 C.ar    1  UNL1        0.0375
     38 C           3.6983    0.8001   38.1348 C.ar    1  UNL1        0.0043
     39 C           2.5908    1.7970   37.9626 C.ar    1  UNL1        0.0142
     40 C           2.5336    2.6489   36.7292 C.ar    1  UNL1        0.0043
     41 C           3.5839    2.5040   35.6682 C.ar    1  UNL1        0.0375
     42 C           1.5405    1.9420   39.0236 C.2     1  UNL1        0.0729
     43 O           0.2392    1.2067   38.8963 O.co2   1  UNL1       -0.5446
     44 O           1.7914    2.8221   40.2120 O.co2   1  UNL1       -0.5446
@<TRIPOS>UNITY_ATOM_ATTR
43 1
charge -1
@<TRIPOS>BOND
     1    26    27    1
     2    27    25    1
     3    25    24    1
     4    24     1    1
     5     1     2   am
     6     2     3    2
     7     2     4    1
     8     4    15    1
     9    15    16    1
    10    15    18    1
    11    18    19    1
    12    19    20    1
    13    20    21    1
    14    21    22    1
    15    22    23    1
    16     4     5    1
    17     5     6   am
    18     6     7    2
    19     6     8    1
    20     8     9    1
    21     9    10    1
    22    10    11    1
    23    11    28    1
    24    28    29    1
    25    29    30   ar
    26    30    31   ar
    27    31    32   ar
    28    32    35    1
    29    35    36    1
    30    36    37   ar
    31    37    38   ar
    32    38    39   ar
    33    39    42    1
    34    42    43   ar
    35    42    44   ar
    36    39    40   ar
    37    40    41   ar
    38    32    33   ar
    39    33    34   ar
    40    11    12    1
    41    12    13    1
    42     8     1    1
    43    34    29   ar
    44    23    18    1
    45    13     8    1
    46    41    36   ar
    47    16    17    1
    48     5    14    1
@<TRIPOS>MOLECULE
*****
 44 48 0 0 0
SMALL
GASTEIGER

@<TRIPOS>ATOM
      1 N           5.6499   -1.9548   29.0425 N.am    1  UNL1       -0.2733
      2 C           5.1571   -1.6976   30.4358 C.2     1  UNL1        0.2462
      3 O           4.3237   -0.4843   30.7244 O.2     1  UNL1       -0.2730
      4 C           5.4976   -2.6537   31.5402 C.3     1  UNL1        0.1759
      5 N           6.3310   -3.8671   31.2515 N.am    1  UNL1       -0.2951
      6 C           6.8238   -4.1243   29.8584 C.2     1  UNL1        0.2390
      7 O           7.6572   -5.3376   29.5697 O.2     1  UNL1       -0.2734
      8 C           6.4833   -3.1682   28.7538 C.3     1  UNL1        0.1314
      9 C           6.1428   -2.2121   27.6494 C.3     1  UNL1        0.0445
     10 C           6.6356   -2.4693   26.2562 C.3     1  UNL1        0.0745
     11 N           7.4689   -3.6827   25.9675 N.3     1  UNL1       -0.2688
     12 C           7.8095   -4.6387   27.0720 C.3     1  UNL1        0.0745
     13 C           7.3167   -4.3815   28.4651 C.3     1  UNL1        0.0445
     14 H           6.5545   -4.4946   31.9764 H       1  UNL1        0.1499
     15 C           5.0048   -2.3965   32.9335 C.3     1  UNL1        0.1372
     16 O           3.8395   -3.1724   33.4720 O.3     1  UNL1       -0.3823
     17 H           3.5250   -3.7938   32.7968 H       1  UNL1        0.2104
     18 C           5.6773   -1.3635   33.7881 C.3     1  UNL1        0.0291
     19 C           7.0731   -0.9176   33.4672 C.3     1  UNL1        0.0025
     20 C           7.7456    0.1155   34.3218 C.3     1  UNL1        0.0001
     21 C           7.0223    0.7027   35.4975 C.3     1  UNL1        0.0000
     22 C           5.6265    0.2568   35.8184 C.3     1  UNL1        0.0001
     23 C           4.9540   -0.7763   34.9637 C.3     1  UNL1        0.0025
     24 C           5.3094   -0.9988   27.9381 C.3     1  UNL1        0.0938
     25 C           3.8982   -0.9011   27.4391 C.3     1  UNL1        0.0215
     26 C           3.4517   -0.7480   24.8843 C.3     1  UNL1        0.0001
     27 C           3.5882   -0.0820   26.2214 C.3     1  UNL1        0.0018
     28 C           7.9618   -3.9399   24.5743 C.3     1  UNL1        0.0992
     29 C           7.0185   -3.8315   23.4131 C.ar    1  UNL1       -0.0059
     30 C           5.5475   -3.6645   23.6548 C.ar    1  UNL1        0.0002
     31 C           4.6042   -3.5561   22.4935 C.ar    1  UNL1        0.0372
     32 C           5.1318   -3.6147   21.0907 C.ar    1  UNL1        0.1453
     33 C           6.6028   -3.7817   20.8490 C.ar    1  UNL1        0.0372
     34 C           7.5461   -3.8901   22.0101 C.ar    1  UNL1        0.0002
     35 O           4.1885   -3.5063   19.9295 O.3     1  UNL1       -0.4535
     36 C           3.6143   -2.1731   19.5515 C.ar    1  UNL1        0.1453
     37 C           2.7119   -1.4477   20.5051 C.ar    1  UNL1        0.0375
     38 C           2.1377   -0.1145   20.1271 C.ar    1  UNL1        0.0043
     39 C           2.4659    0.4933   18.7956 C.ar    1  UNL1        0.0142
     40 C           3.3684   -0.2322   17.8421 C.ar    1  UNL1        0.0043
     41 C           3.9426   -1.5654   18.2200 C.ar    1  UNL1        0.0375
     42 C           1.8917    1.8265   18.4177 C.2     1  UNL1        0.0729
     43 O           2.7827    3.0304   18.3342 O.co2   1  UNL1       -0.5446
     44 O           0.4266    1.9559   18.1233 O.co2   1  UNL1       -0.5446
@<TRIPOS>UNITY_ATOM_ATTR
43 1
charge -1
@<TRIPOS>BOND
     1    26    27    1
     2    27    25    1
     3    25    24    1
     4    24     1    1
     5     1     2   am
     6     2     3    2
     7     2     4    1
     8     4    15    1
     9    15    16    1
    10    15    18    1
    11    18    19    1
    12    19    20    1
    13    20    21    1
    14    21    22    1
    15    22    23    1
    16     4     5    1
    17     5     6   am
    18     6     7    2
    19     6     8    1
    20     8     9    1
    21     9    10    1
    22    10    11    1
    23    11    28    1
    24    28    29    1
    25    29    30   ar
    26    30    31   ar
    27    31    32   ar
    28    32    35    1
    29    35    36    1
    30    36    37   ar
    31    37    38   ar
    32    38    39   ar
    33    39    42    1
    34    42    43   ar
    35    42    44   ar
    36    39    40   ar
    37    40    41   ar
    38    32    33   ar
    39    33    34   ar
    40    11    12    1
    41    12    13    1
    42     8     1    1
    43    34    29   ar
    44    23    18    1
    45    13     8    1
    46    41    36   ar
    47    16    17    1
    48     5    14    1
@<TRIPOS>MOLECULE
*****
 44 48 0 0 0
SMALL
GASTEIGER

@<TRIPOS>ATOM
      1 N           2.0220    2.4325   33.2231 N.am    1  UNL1       -0.2733
      2 C           2.2734    2.8175   34.6509 C.2     1  UNL1        0.2462
      3 O           1.5811    4.0113   35.2387 O.2     1  UNL1       -0.2730
      4 C           3.2170    2.0088   35.4908 C.3     1  UNL1        0.1759
      5 N           3.9093    0.8150   34.9029 N.am    1  UNL1       -0.2951
      6 C           3.6579    0.4299   33.4752 C.2     1  UNL1        0.2390
      7 O           4.3502   -0.7639   32.8873 O.2     1  UNL1       -0.2734
      8 C           2.7142    1.2386   32.6352 C.3     1  UNL1        0.1314
      9 C           1.7706    2.0474   31.7953 C.3     1  UNL1        0.0445
     10 C           1.5192    1.6623   30.3676 C.3     1  UNL1        0.0745
     11 N           2.2115    0.4685   29.7797 N.3     1  UNL1       -0.2688
     12 C           3.1551   -0.3402   30.6196 C.3     1  UNL1        0.0745
     13 C           3.4065    0.0448   32.0474 C.3     1  UNL1        0.0445
     14 H           4.5286    0.2842   35.4542 H       1  UNL1        0.1499
     15 C           3.4684    2.3938   36.9186 C.3     1  UNL1        0.1372
     16 O           4.6777    3.2070   37.2743 O.3     1  UNL1       -0.3823
     17 H           5.1870    3.3974   36.4710 H       1  UNL1        0.2104
     18 C           2.5106    1.9658   37.9906 C.3     1  UNL1        0.0291
     19 C           2.5858    0.5771   38.5527 C.3     1  UNL1        0.0025
     20 C           1.6280    0.1491   39.6247 C.3     1  UNL1        0.0001
     21 C           0.5949    1.1097   40.1347 C.3     1  UNL1        0.0000
     22 C           0.5197    2.4984   39.5726 C.3     1  UNL1        0.0001
     23 C           1.4776    2.9264   38.5005 C.3     1  UNL1        0.0025
     24 C           1.0783    3.2412   32.3832 C.3     1  UNL1        0.0938
     25 C           1.3297    4.7046   32.1704 C.3     1  UNL1        0.0215
     26 C          -0.9912    5.4452   33.0730 C.3     1  UNL1        0.0001
     27 C           0.1816    5.6698   32.1652 C.3     1  UNL1        0.0018
     28 C           1.9601    0.0834   28.3519 C.3     1  UNL1        0.0992
     29 C           1.0969    0.9489   27.4826 C.ar    1  UNL1       -0.0059
     30 C           1.7225    1.8151   26.4298 C.ar    1  UNL1        0.0002
     31 C           0.8592    2.6806   25.5604 C.ar    1  UNL1        0.0372
     32 C          -0.6295    2.6799   25.7438 C.ar    1  UNL1        0.1453
     33 C          -1.2550    1.8137   26.7966 C.ar    1  UNL1        0.0372
     34 C          -0.3919    0.9482   27.6660 C.ar    1  UNL1        0.0002
     35 O          -1.4927    3.5454   24.8745 O.3     1  UNL1       -0.4535
     36 C          -2.7545    4.1404   25.4256 C.ar    1  UNL1        0.1453
     37 C          -2.6853    5.1677   26.5163 C.ar    1  UNL1        0.0375
     38 C          -3.9471    5.7627   27.0675 C.ar    1  UNL1        0.0043
     39 C          -5.2782    5.3303   26.5279 C.ar    1  UNL1        0.0142
     40 C          -5.3475    4.3029   25.4371 C.ar    1  UNL1        0.0043
     41 C          -4.0857    3.7080   24.8859 C.ar    1  UNL1        0.0375
     42 C          -6.5401    5.9253   27.0790 C.2     1  UNL1        0.0729
     43 O          -7.6021    6.4276   26.1463 O.co2   1  UNL1       -0.5446
     44 O          -6.7399    6.0180   28.5627 O.co2   1  UNL1       -0.5446
@<TRIPOS>UNITY_ATOM_ATTR
43 1
charge -1
@<TRIPOS>BOND
     1    26    27    1
     2    27    25    1
     3    25    24    1
     4    24     1    1
     5     1     2   am
     6     2     3    2
     7     2     4    1
     8     4    15    1
     9    15    16    1
    10    15    18    1
    11    18    19    1
    12    19    20    1
    13    20    21    1
    14    21    22    1
    15    22    23    1
    16     4     5    1
    17     5     6   am
    18     6     7    2
    19     6     8    1
    20     8     9    1
    21     9    10    1
    22    10    11    1
    23    11    28    1
    24    28    29    1
    25    29    30   ar
    26    30    31   ar
    27    31    32   ar
    28    32    35    1
    29    35    36    1
    30    36    37   ar
    31    37    38   ar
    32    38    39   ar
    33    39    42    1
    34    42    43   ar
    35    42    44   ar
    36    39    40   ar
    37    40    41   ar
    38    32    33   ar
    39    33    34   ar
    40    11    12    1
    41    12    13    1
    42     8     1    1
    43    34    29   ar
    44    23    18    1
    45    13     8    1
    46    41    36   ar
    47    16    17    1
    48     5    14    1
@<TRIPOS>MOLECULE
*****
 44 48 0 0 0
SMALL
GASTEIGER

@<TRIPOS>ATOM
      1 N           3.8367    0.3376   33.2172 N.am    1  UNL1       -0.2733
      2 C           4.1217    0.7533   34.6301 C.2     1  UNL1        0.2462
      3 O           5.2330    0.0976   35.3950 O.2     1  UNL1       -0.2730
      4 C           3.2955    1.8245   35.2779 C.3     1  UNL1        0.1759
      5 N           2.1842    2.4802   34.5129 N.am    1  UNL1       -0.2951
      6 C           1.8991    2.0646   33.1002 C.2     1  UNL1        0.2390
      7 O           0.7878    2.7202   32.3352 O.2     1  UNL1       -0.2734
      8 C           2.7254    0.9933   32.4523 C.3     1  UNL1        0.1314
      9 C           3.5516   -0.0780   31.8044 C.3     1  UNL1        0.0445
     10 C           3.2666   -0.4936   30.3917 C.3     1  UNL1        0.0745
     11 N           2.1552    0.1620   29.6267 N.3     1  UNL1       -0.2688
     12 C           1.3290    1.2333   30.2745 C.3     1  UNL1        0.0745
     13 C           1.6141    1.6489   31.6873 C.3     1  UNL1        0.0445
     14 H           1.6419    3.1833   34.9381 H       1  UNL1        0.1499
     15 C           3.5805    2.2402   36.6907 C.3     1  UNL1        0.1372
     16 O           4.8786    2.9124   37.0273 O.3     1  UNL1       -0.3823
     17 H           5.4146    3.0012   36.2238 H       1  UNL1        0.2104
     18 C           2.5676    1.9837   37.7668 C.3     1  UNL1        0.0291
     19 C           1.5620    3.0400   38.1175 C.3     1  UNL1        0.0025
     20 C           0.5490    2.7835   39.1936 C.3     1  UNL1        0.0001
     21 C           0.5417    1.4706   39.9192 C.3     1  UNL1        0.0000
     22 C           1.5473    0.4143   39.5685 C.3     1  UNL1        0.0001
     23 C           2.5603    0.6708   38.4923 C.3     1  UNL1        0.0025
     24 C           4.6629   -0.7336   32.5694 C.3     1  UNL1        0.0938
     25 C           4.6851   -2.1171   33.1487 C.3     1  UNL1        0.0215
     26 C           6.5749   -2.7843   31.4955 C.3     1  UNL1        0.0001
     27 C           5.5990   -3.1572   32.5718 C.3     1  UNL1        0.0018
     28 C           1.8702   -0.2536   28.2139 C.3     1  UNL1        0.0992
     29 C           2.9751   -0.2702   27.1996 C.ar    1  UNL1       -0.0059
     30 C           3.2645    0.9561   26.3857 C.ar    1  UNL1        0.0002
     31 C           4.3695    0.9395   25.3713 C.ar    1  UNL1        0.0372
     32 C           5.1849   -0.3034   25.1709 C.ar    1  UNL1        0.1453
     33 C           4.8955   -1.5297   25.9847 C.ar    1  UNL1        0.0372
     34 C           3.7906   -1.5131   26.9991 C.ar    1  UNL1        0.0002
     35 O           6.2898   -0.3199   24.1565 O.3     1  UNL1       -0.4535
     36 C           6.0904   -1.0134   22.8415 C.ar    1  UNL1        0.1453
     37 C           4.9004   -0.6808   21.9911 C.ar    1  UNL1        0.0375
     38 C           4.7010   -1.3742   20.6760 C.ar    1  UNL1        0.0043
     39 C           5.6915   -2.4004   20.2114 C.ar    1  UNL1        0.0142
     40 C           6.8815   -2.7331   21.0619 C.ar    1  UNL1        0.0043
     41 C           7.0810   -2.0396   22.3769 C.ar    1  UNL1        0.0375
     42 C           5.4920   -3.0938   18.8964 C.2     1  UNL1        0.0729
     43 O           6.1639   -2.5689   17.6622 O.co2   1  UNL1       -0.5446
     44 O           4.6208   -4.3121   18.8155 O.co2   1  UNL1       -0.5446
@<TRIPOS>UNITY_ATOM_ATTR
43 1
charge -1
@<TRIPOS>BOND
     1    26    27    1
     2    27    25    1
     3    25    24    1
     4    24     1    1
     5     1     2   am
     6     2     3    2
     7     2     4    1
     8     4    15    1
     9    15    16    1
    10    15    18    1
    11    18    19    1
    12    19    20    1
    13    20    21    1
    14    21    22    1
    15    22    23    1
    16     4     5    1
    17     5     6   am
    18     6     7    2
    19     6     8    1
    20     8     9    1
    21     9    10    1
    22    10    11    1
    23    11    28    1
    24    28    29    1
    25    29    30   ar
    26    30    31   ar
    27    31    32   ar
    28    32    35    1
    29    35    36    1
    30    36    37   ar
    31    37    38   ar
    32    38    39   ar
    33    39    42    1
    34    42    43   ar
    35    42    44   ar
    36    39    40   ar
    37    40    41   ar
    38    32    33   ar
    39    33    34   ar
    40    11    12    1
    41    12    13    1
    42     8     1    1
    43    34    29   ar
    44    23    18    1
    45    13     8    1
    46    41    36   ar
    47    16    17    1
    48     5    14    1
@<TRIPOS>MOLECULE
*****
 44 48 0 0 0
SMALL
GASTEIGER

@<TRIPOS>ATOM
      1 N           6.6908   -3.3052   29.6297 N.am    1  UNL1       -0.2733
      2 C           6.2564   -3.2382   31.0639 C.2     1  UNL1        0.2462
      3 O           6.7756   -4.2399   32.0524 O.2     1  UNL1       -0.2730
      4 C           5.3028   -2.1696   31.5096 C.3     1  UNL1        0.1759
      5 N           4.7835   -1.1680   30.5211 N.am    1  UNL1       -0.2951
      6 C           5.2179   -1.2350   29.0870 C.2     1  UNL1        0.2390
      7 O           4.6986   -0.2333   28.0985 O.2     1  UNL1       -0.2734
      8 C           6.1715   -2.3036   28.6413 C.3     1  UNL1        0.1314
      9 C           7.1252   -3.3722   28.1956 C.3     1  UNL1        0.0445
     10 C           7.5595   -3.4392   26.7615 C.3     1  UNL1        0.0745
     11 N           7.0403   -2.4375   25.7730 N.3     1  UNL1       -0.2688
     12 C           6.0866   -1.3689   26.2186 C.3     1  UNL1        0.0745
     13 C           5.6523   -1.3020   27.6528 C.3     1  UNL1        0.0445
     14 H           4.1576   -0.4666   30.8136 H       1  UNL1        0.1499
     15 C           4.8684   -2.1026   32.9438 C.3     1  UNL1        0.1372
     16 O           3.9636   -3.1600   33.5036 O.3     1  UNL1       -0.3823
     17 H           3.7559   -3.8073   32.8116 H       1  UNL1        0.2104
     18 C           5.3387   -0.9783   33.8182 C.3     1  UNL1        0.0291
     19 C           6.8065   -0.7065   33.9658 C.3     1  UNL1        0.0025
     20 C           7.2768    0.4179   34.8401 C.3     1  UNL1        0.0001
     21 C           6.2793    1.2705   35.5670 C.3     1  UNL1        0.0000
     22 C           4.8116    0.9987   35.4194 C.3     1  UNL1        0.0001
     23 C           4.3413   -0.1257   34.5449 C.3     1  UNL1        0.0025
     24 C           7.6444   -4.3738   29.1841 C.3     1  UNL1        0.0938
     25 C           7.2574   -5.8187   29.2961 C.3     1  UNL1        0.0215
     26 C           7.8997   -7.1845   27.1814 C.3     1  UNL1        0.0001
     27 C           8.0953   -6.8730   28.6356 C.3     1  UNL1        0.0018
     28 C           7.4747   -2.5045   24.3388 C.3     1  UNL1        0.0992
     29 C           6.4516   -2.4642   23.2426 C.ar    1  UNL1       -0.0059
     30 C           5.4032   -3.5335   23.1554 C.ar    1  UNL1        0.0002
     31 C           4.3801   -3.4932   22.0592 C.ar    1  UNL1        0.0372
     32 C           4.4055   -2.3836   21.0501 C.ar    1  UNL1        0.1453
     33 C           5.4538   -1.3144   21.1373 C.ar    1  UNL1        0.0372
     34 C           6.4769   -1.3546   22.2335 C.ar    1  UNL1        0.0002
     35 O           3.3824   -2.3433   19.9539 O.3     1  UNL1       -0.4535
     36 C           2.5931   -1.0913   19.7104 C.ar    1  UNL1        0.1453
     37 C           3.0098   -0.1407   18.6275 C.ar    1  UNL1        0.0375
     38 C           2.2205    1.1114   18.3839 C.ar    1  UNL1        0.0043
     39 C           1.0144    1.4128   19.2232 C.ar    1  UNL1        0.0142
     40 C           0.5975    0.4621   20.3061 C.ar    1  UNL1        0.0043
     41 C           1.3869   -0.7899   20.5497 C.ar    1  UNL1        0.0375
     42 C           0.2250    2.6648   18.9796 C.2     1  UNL1        0.0729
     43 O          -0.0870    3.5885   20.1196 O.co2   1  UNL1       -0.5446
     44 O          -0.2523    2.9932   17.5961 O.co2   1  UNL1       -0.5446
@<TRIPOS>UNITY_ATOM_ATTR
43 1
charge -1
@<TRIPOS>BOND
     1    26    27    1
     2    27    25    1
     3    25    24    1
     4    24     1    1
     5     1     2   am
     6     2     3    2
     7     2     4    1
     8     4    15    1
     9    15    16    1
    10    15    18    1
    11    18    19    1
    12    19    20    1
    13    20    21    1
    14    21    22    1
    15    22    23    1
    16     4     5    1
    17     5     6   am
    18     6     7    2
    19     6     8    1
    20     8     9    1
    21     9    10    1
    22    10    11    1
    23    11    28    1
    24    28    29    1
    25    29    30   ar
    26    30    31   ar
    27    31    32   ar
    28    32    35    1
    29    35    36    1
    30    36    37   ar
    31    37    38   ar
    32    38    39   ar
    33    39    42    1
    34    42    43   ar
    35    42    44   ar
    36    39    40   ar
    37    40    41   ar
    38    32    33   ar
    39    33    34   ar
    40    11    12    1
    41    12    13    1
    42     8     1    1
    43    34    29   ar
    44    23    18    1
    45    13     8    1
    46    41    36   ar
    47    16    17    1
    48     5    14    1
@<TRIPOS>MOLECULE
*****
 44 48 0 0 0
SMALL
GASTEIGER

@<TRIPOS>ATOM
      1 N           2.3012    0.0106   20.1719 N.am    1  UNL1       -0.2733
      2 C           3.1965   -0.7769   19.2617 C.2     1  UNL1        0.2462
      3 O           3.0210   -0.6865   17.7748 O.2     1  UNL1       -0.2730
      4 C           4.2672   -1.6549   19.8385 C.3     1  UNL1        0.1759
      5 N           4.4427   -1.7453   21.3255 N.am    1  UNL1       -0.2951
      6 C           3.5475   -0.9579   22.2356 C.2     1  UNL1        0.2390
      7 O           3.7230   -1.0483   23.7226 O.2     1  UNL1       -0.2734
      8 C           2.4767   -0.0799   21.6588 C.3     1  UNL1        0.1314
      9 C           1.4060    0.7981   21.0820 C.3     1  UNL1        0.0445
     10 C           0.5107    1.5855   21.9922 C.3     1  UNL1        0.0745
     11 N           0.6862    1.4951   23.4791 N.3     1  UNL1       -0.2688
     12 C           1.7570    0.6172   24.0559 C.3     1  UNL1        0.0745
     13 C           2.6522   -0.1703   23.1458 C.3     1  UNL1        0.0445
     14 H           5.1455   -2.3215   21.7040 H       1  UNL1        0.1499
     15 C           5.1625   -2.4424   18.9284 C.3     1  UNL1        0.1372
     16 O           4.6880   -2.8271   17.5584 O.3     1  UNL1       -0.3823
     17 H           3.7884   -2.4910   17.4216 H       1  UNL1        0.2104
     18 C           6.5323   -2.8452   19.3882 C.3     1  UNL1        0.0291
     19 C           6.6919   -3.9436   20.3971 C.3     1  UNL1        0.0025
     20 C           8.0616   -4.3464   20.8570 C.3     1  UNL1        0.0001
     21 C           9.2719   -3.6508   20.3079 C.3     1  UNL1        0.0000
     22 C           9.1123   -2.5524   19.2989 C.3     1  UNL1        0.0001
     23 C           7.7424   -2.1496   18.8391 C.3     1  UNL1        0.0025
     24 C           1.2305    0.8885   19.5951 C.3     1  UNL1        0.0938
     25 C           1.5935    1.9805   18.6329 C.3     1  UNL1        0.0215
     26 C           0.9944    4.4125   17.9428 C.3     1  UNL1        0.0001
     27 C           0.5704    3.0047   18.2401 C.3     1  UNL1        0.0018
     28 C          -0.2090    2.2826   24.3893 C.3     1  UNL1        0.0992
     29 C           0.0639    2.3173   25.8638 C.ar    1  UNL1       -0.0059
     30 C           1.2050    3.1323   26.3964 C.ar    1  UNL1        0.0002
     31 C           1.4779    3.1670   27.8710 C.ar    1  UNL1        0.0372
     32 C           0.6097    2.3867   28.8129 C.ar    1  UNL1        0.1453
     33 C          -0.5314    1.5716   28.2804 C.ar    1  UNL1        0.0372
     34 C          -0.8043    1.5369   26.8058 C.ar    1  UNL1        0.0002
     35 O           0.8826    2.4213   30.2875 O.3     1  UNL1       -0.4535
     36 C           1.7821    1.3938   30.9081 C.ar    1  UNL1        0.1453
     37 C           2.0990    0.1288   30.1671 C.ar    1  UNL1        0.0375
     38 C           2.9984   -0.8987   30.7878 C.ar    1  UNL1        0.0043
     39 C           3.5810   -0.6612   32.1494 C.ar    1  UNL1        0.0142
     40 C           3.2641    0.6040   32.8905 C.ar    1  UNL1        0.0043
     41 C           2.3646    1.6315   32.2699 C.ar    1  UNL1        0.0375
     42 C           4.4804   -1.6887   32.7701 C.2     1  UNL1        0.0729
     43 O           3.8974   -2.7880   33.6077 O.co2   1  UNL1       -0.5446
     44 O           5.9629   -1.6168   32.5532 O.co2   1  UNL1       -0.5446
@<TRIPOS>UNITY_ATOM_ATTR
43 1
charge -1
@<TRIPOS>BOND
     1    26    27    1
     2    27    25    1
     3    25    24    1
     4    24     1    1
     5     1     2   am
     6     2     3    2
     7     2     4    1
     8     4    15    1
     9    15    16    1
    10    15    18    1
    11    18    19    1
    12    19    20    1
    13    20    21    1
    14    21    22    1
    15    22    23    1
    16     4     5    1
    17     5     6   am
    18     6     7    2
    19     6     8    1
    20     8     9    1
    21     9    10    1
    22    10    11    1
    23    11    28    1
    24    28    29    1
    25    29    30   ar
    26    30    31   ar
    27    31    32   ar
    28    32    35    1
    29    35    36    1
    30    36    37   ar
    31    37    38   ar
    32    38    39   ar
    33    39    42    1
    34    42    43   ar
    35    42    44   ar
    36    39    40   ar
    37    40    41   ar
    38    32    33   ar
    39    33    34   ar
    40    11    12    1
    41    12    13    1
    42     8     1    1
    43    34    29   ar
    44    23    18    1
    45    13     8    1
    46    41    36   ar
    47    16    17    1
    48     5    14    1
@<TRIPOS>MOLECULE
*****
 44 48 0 0 0
SMALL
GASTEIGER

@<TRIPOS>ATOM
      1 N           3.6731   -0.5671   27.1847 N.am    1  UNL1       -0.2733
      2 C           3.1783   -0.3024   25.7936 C.2     1  UNL1        0.2462
      3 O           1.9832    0.5781   25.5775 O.2     1  UNL1       -0.2730
      4 C           3.8784   -0.9182   24.6186 C.3     1  UNL1        0.1759
      5 N           5.0734   -1.7987   24.8347 N.am    1  UNL1       -0.2951
      6 C           5.5683   -2.0634   26.2257 C.2     1  UNL1        0.2390
      7 O           6.7633   -2.9439   26.4418 O.2     1  UNL1       -0.2734
      8 C           4.8682   -1.4476   27.4008 C.3     1  UNL1        0.1314
      9 C           4.1680   -0.8318   28.5757 C.3     1  UNL1        0.0445
     10 C           4.6629   -1.0965   29.9667 C.3     1  UNL1        0.0745
     11 N           5.8579   -1.9770   30.1828 N.3     1  UNL1       -0.2688
     12 C           6.5581   -2.5928   29.0078 C.3     1  UNL1        0.0745
     13 C           6.0632   -2.3281   27.6168 C.3     1  UNL1        0.0445
     14 H           5.5329   -2.2029   24.0635 H       1  UNL1        0.1499
     15 C           3.3835   -0.6535   23.2275 C.3     1  UNL1        0.1372
     16 O           2.6737    0.6306   22.9156 O.3     1  UNL1       -0.3823
     17 H           2.6193    1.1730   23.7179 H       1  UNL1        0.2104
     18 C           3.5984   -1.6729   22.1484 C.3     1  UNL1        0.0291
     19 C           3.0599   -1.4304   20.7696 C.3     1  UNL1        0.0025
     20 C           3.2748   -2.4498   19.6904 C.3     1  UNL1        0.0001
     21 C           4.0282   -3.7118   19.9901 C.3     1  UNL1        0.0000
     22 C           4.5668   -3.9543   21.3689 C.3     1  UNL1        0.0001
     23 C           4.3518   -2.9348   22.4481 C.3     1  UNL1        0.0025
     24 C           2.9730    0.0487   28.3597 C.3     1  UNL1        0.0938
     25 C           1.6559   -0.5014   28.8206 C.3     1  UNL1        0.0215
     26 C          -0.9043   -0.1770   28.5207 C.3     1  UNL1        0.0001
     27 C           0.4454    0.3835   28.8585 C.3     1  UNL1        0.0018
     28 C           6.3528   -2.2417   31.5739 C.3     1  UNL1        0.0992
     29 C           6.1929   -1.1970   32.6383 C.ar    1  UNL1       -0.0059
     30 C           5.0893   -1.3170   33.6471 C.ar    1  UNL1        0.0002
     31 C           4.9294   -0.2722   34.7116 C.ar    1  UNL1        0.0372
     32 C           5.8730    0.8925   34.7671 C.ar    1  UNL1        0.1453
     33 C           6.9765    1.0124   33.7583 C.ar    1  UNL1        0.0372
     34 C           7.1365   -0.0322   32.6939 C.ar    1  UNL1        0.0002
     35 O           5.7130    1.9371   35.8315 O.3     1  UNL1       -0.4535
     36 C           4.5192    1.9065   36.7392 C.ar    1  UNL1        0.1453
     37 C           4.4108    0.8520   37.8005 C.ar    1  UNL1        0.0375
     38 C           3.2169    0.8214   38.7081 C.ar    1  UNL1        0.0043
     39 C           2.1315    1.8451   38.5544 C.ar    1  UNL1        0.0142
     40 C           2.2398    2.8996   37.4931 C.ar    1  UNL1        0.0043
     41 C           3.4337    2.9303   36.5855 C.ar    1  UNL1        0.0375
     42 C           0.9376    1.8145   39.4620 C.2     1  UNL1        0.0729
     43 O           1.0094    1.0860   40.7714 O.co2   1  UNL1       -0.5446
     44 O          -0.3280    2.5122   39.0604 O.co2   1  UNL1       -0.5446
@<TRIPOS>UNITY_ATOM_ATTR
43 1
charge -1
@<TRIPOS>BOND
     1    26    27    1
     2    27    25    1
     3    25    24    1
     4    24     1    1
     5     1     2   am
     6     2     3    2
     7     2     4    1
     8     4    15    1
     9    15    16    1
    10    15    18    1
    11    18    19    1
    12    19    20    1
    13    20    21    1
    14    21    22    1
    15    22    23    1
    16     4     5    1
    17     5     6   am
    18     6     7    2
    19     6     8    1
    20     8     9    1
    21     9    10    1
    22    10    11    1
    23    11    28    1
    24    28    29    1
    25    29    30   ar
    26    30    31   ar
    27    31    32   ar
    28    32    35    1
    29    35    36    1
    30    36    37   ar
    31    37    38   ar
    32    38    39   ar
    33    39    42    1
    34    42    43   ar
    35    42    44   ar
    36    39    40   ar
    37    40    41   ar
    38    32    33   ar
    39    33    34   ar
    40    11    12    1
    41    12    13    1
    42     8     1    1
    43    34    29   ar
    44    23    18    1
    45    13     8    1
    46    41    36   ar
    47    16    17    1
    48     5    14    1
@<TRIPOS>MOLECULE
*****
 44 48 0 0 0
SMALL
GASTEIGER

@<TRIPOS>ATOM
      1 N           6.6218   -2.3364   25.4884 N.am    1  UNL1       -0.2733
      2 C           6.6528   -2.0566   24.0150 C.2     1  UNL1        0.2462
      3 O           6.4512   -0.6576   23.5130 O.2     1  UNL1       -0.2730
      4 C           6.8854   -3.1757   23.0438 C.3     1  UNL1        0.1759
      5 N           7.0871   -4.5747   23.5458 N.am    1  UNL1       -0.2951
      6 C           7.0561   -4.8546   25.0191 C.2     1  UNL1        0.2390
      7 O           7.2578   -6.2537   25.5212 O.2     1  UNL1       -0.2734
      8 C           6.8235   -3.7355   25.9904 C.3     1  UNL1        0.1314
      9 C           6.5908   -2.6163   26.9617 C.3     1  UNL1        0.0445
     10 C           6.5598   -2.8962   28.4350 C.3     1  UNL1        0.0745
     11 N           6.7615   -4.2953   28.9370 N.3     1  UNL1       -0.2688
     12 C           6.9941   -5.4144   27.9658 C.3     1  UNL1        0.0745
     13 C           7.0251   -5.1345   26.4925 C.3     1  UNL1        0.0445
     14 H           7.2398   -5.3093   22.9083 H       1  UNL1        0.1499
     15 C           6.9165   -2.8959   21.5704 C.3     1  UNL1        0.1372
     16 O           8.1533   -2.3265   20.9410 O.3     1  UNL1       -0.3823
     17 H           8.8334   -2.2003   21.6210 H       1  UNL1        0.2104
     18 C           5.7107   -3.1854   20.7264 C.3     1  UNL1        0.0291
     19 C           4.5442   -2.2425   20.7366 C.3     1  UNL1        0.0025
     20 C           3.3384   -2.5320   19.8926 C.3     1  UNL1        0.0001
     21 C           3.2991   -3.7645   19.0385 C.3     1  UNL1        0.0000
     22 C           4.4657   -4.7074   19.0284 C.3     1  UNL1        0.0001
     23 C           5.6715   -4.4178   19.8724 C.3     1  UNL1        0.0025
     24 C           6.3892   -1.2173   26.4596 C.3     1  UNL1        0.0938
     25 C           5.1220   -0.4174   26.3927 C.3     1  UNL1        0.0215
     26 C           3.2180   -0.5964   24.6341 C.3     1  UNL1        0.0001
     27 C           3.8546   -1.0590   25.9111 C.3     1  UNL1        0.0018
     28 C           6.7305   -4.5751   30.4104 C.3     1  UNL1        0.0992
     29 C           6.9013   -3.4528   31.3908 C.ar    1  UNL1       -0.0059
     30 C           5.6965   -2.7589   31.9539 C.ar    1  UNL1        0.0002
     31 C           5.8674   -1.6365   32.9343 C.ar    1  UNL1        0.0372
     32 C           7.2430   -1.2080   33.3515 C.ar    1  UNL1        0.1453
     33 C           8.4477   -1.9019   32.7884 C.ar    1  UNL1        0.0372
     34 C           8.2769   -3.0243   31.8081 C.ar    1  UNL1        0.0002
     35 O           7.4138   -0.0857   34.3319 O.3     1  UNL1       -0.4535
     36 C           6.2293    0.4329   35.0921 C.ar    1  UNL1        0.1453
     37 C           5.8217   -0.2178   36.3807 C.ar    1  UNL1        0.0375
     38 C           4.6371    0.3008   37.1409 C.ar    1  UNL1        0.0043
     39 C           3.8602    1.4701   36.6126 C.ar    1  UNL1        0.0142
     40 C           4.2678    2.1208   35.3239 C.ar    1  UNL1        0.0043
     41 C           5.4523    1.6022   34.5637 C.ar    1  UNL1        0.0375
     42 C           2.6757    1.9887   37.3728 C.2     1  UNL1        0.0729
     43 O           2.3192    1.3939   38.7029 O.co2   1  UNL1       -0.5446
     44 O           1.8477    3.1020   36.8030 O.co2   1  UNL1       -0.5446
@<TRIPOS>UNITY_ATOM_ATTR
43 1
charge -1
@<TRIPOS>BOND
     1    26    27    1
     2    27    25    1
     3    25    24    1
     4    24     1    1
     5     1     2   am
     6     2     3    2
     7     2     4    1
     8     4    15    1
     9    15    16    1
    10    15    18    1
    11    18    19    1
    12    19    20    1
    13    20    21    1
    14    21    22    1
    15    22    23    1
    16     4     5    1
    17     5     6   am
    18     6     7    2
    19     6     8    1
    20     8     9    1
    21     9    10    1
    22    10    11    1
    23    11    28    1
    24    28    29    1
    25    29    30   ar
    26    30    31   ar
    27    31    32   ar
    28    32    35    1
    29    35    36    1
    30    36    37   ar
    31    37    38   ar
    32    38    39   ar
    33    39    42    1
    34    42    43   ar
    35    42    44   ar
    36    39    40   ar
    37    40    41   ar
    38    32    33   ar
    39    33    34   ar
    40    11    12    1
    41    12    13    1
    42     8     1    1
    43    34    29   ar
    44    23    18    1
    45    13     8    1
    46    41    36   ar
    47    16    17    1
    48     5    14    1
