@<TRIPOS>MOLECULE
*****
 33 35 0 0 0
SMALL
GASTEIGER

@<TRIPOS>ATOM
      1 N           1.2571    1.8488   21.6507 N.am    1  UNL1       -0.2837
      2 C           1.0610    0.6333   20.7939 C.2     1  UNL1        0.2297
      3 O          -0.2837   -0.0279   20.7266 O.2     1  UNL1       -0.2744
      4 H           2.1397    2.2828   21.6948 H       1  UNL1        0.1549
      5 C          -2.1888    3.5118   24.0192 C.ar    1  UNL1        0.0002
      6 C          -1.0803    2.7826   24.7189 C.ar    1  UNL1        0.0013
      7 C           0.0683    2.2282   23.9294 C.ar    1  UNL1        0.0147
      8 C           0.1085    2.4031   22.4402 C.ar    1  UNL1        0.0503
      9 C          -0.9999    3.1324   21.7405 C.ar    1  UNL1        0.0147
     10 C          -2.1486    3.6867   22.5300 C.ar    1  UNL1        0.0013
     11 C          -7.1848    4.9078   24.3201 C.3     1  UNL1        0.0521
     12 C          -5.8354    4.7642   24.9592 C.ar    1  UNL1        0.0594
     13 C          -4.6868    4.2098   24.1697 C.ar    1  UNL1        0.0147
     14 C          -3.3374    4.0662   24.8088 C.ar    1  UNL1        0.0027
     15 C          -3.1366    4.4768   26.2374 C.ar    1  UNL1        0.0207
     16 C          -4.2852    5.0312   27.0269 C.ar    1  UNL1        0.0984
     17 N          -5.6346    5.1748   26.3878 N.ar    1  UNL1       -0.2481
     18 C           2.2096    0.0789   20.0044 C.3     1  UNL1        0.0990
     19 C           2.5881    0.7012   18.6931 C.3     1  UNL1        0.0143
     20 C           2.9799   -1.0978   20.5262 C.ar    1  UNL1       -0.0140
     21 C           3.4192   -1.1305   21.9600 C.ar    1  UNL1        0.0000
     22 C           4.1894   -2.3072   22.4817 C.ar    1  UNL1        0.0711
     23 C           4.5202   -3.4511   21.5696 C.ar    1  UNL1        0.0077
     24 C           4.0808   -3.4184   20.1358 C.ar    1  UNL1        0.0711
     25 C           3.3107   -2.2418   19.6141 C.ar    1  UNL1        0.0000
     26 C           4.6288   -2.3399   23.9156 C.3     1  UNL1        0.4186
     27 F           5.0683   -2.3727   25.3494 F       1  UNL1       -0.1659
     28 F           5.2944   -3.6635   23.6813 F       1  UNL1       -0.1659
     29 F           3.9632   -1.0163   24.1498 F       1  UNL1       -0.1659
     30 C           4.4116   -4.5624   19.2237 C.3     1  UNL1        0.4186
     31 F           4.7424   -5.7064   18.3116 F       1  UNL1       -0.1659
     32 F           2.9870   -4.6012   18.7558 F       1  UNL1       -0.1659
     33 F           5.8362   -4.5236   19.6917 F       1  UNL1       -0.1659
@<TRIPOS>BOND
     1    11    12    1
     2    12    13   ar
     3    13    14   ar
     4    14     5    1
     5     5     6   ar
     6     6     7   ar
     7     7     8   ar
     8     8     1    1
     9     1     2   am
    10     2     3    2
    11     2    18    1
    12    18    19    1
    13    18    20    1
    14    20    21   ar
    15    21    22   ar
    16    22    26    1
    17    26    27    1
    18    26    28    1
    19    26    29    1
    20    22    23   ar
    21    23    24   ar
    22    24    30    1
    23    30    31    1
    24    30    32    1
    25    30    33    1
    26    24    25   ar
    27     8     9   ar
    28     9    10   ar
    29    14    15   ar
    30    15    16   ar
    31    16    17   ar
    32    17    12   ar
    33    10     5   ar
    34    25    20   ar
    35     1     4    1
@<TRIPOS>MOLECULE
*****
 33 35 0 0 0
SMALL
GASTEIGER

@<TRIPOS>ATOM
      1 N           0.4967    2.3314   20.5002 N.am    1  UNL1       -0.2837
      2 C           0.7707    0.8669   20.3266 C.2     1  UNL1        0.2297
      3 O          -0.2445   -0.1439   20.7708 O.2     1  UNL1       -0.2744
      4 H           1.1630    2.9949   20.2087 H       1  UNL1        0.1549
      5 C          -3.3715    3.6924   22.3537 C.ar    1  UNL1        0.0002
      6 C          -2.1469    3.5333   23.2053 C.ar    1  UNL1        0.0013
      7 C          -0.8575    3.0796   22.5875 C.ar    1  UNL1        0.0147
      8 C          -0.7927    2.7851   21.1180 C.ar    1  UNL1        0.0503
      9 C          -2.0173    2.9442   20.2665 C.ar    1  UNL1        0.0147
     10 C          -3.3067    3.3978   20.8844 C.ar    1  UNL1        0.0013
     11 C          -5.9892    5.5936   26.4198 C.3     1  UNL1        0.0521
     12 C          -5.9697    5.0966   25.0046 C.ar    1  UNL1        0.0594
     13 C          -4.6804    4.6430   24.3867 C.ar    1  UNL1        0.0147
     14 C          -4.6609    4.1460   22.9716 C.ar    1  UNL1        0.0027
     15 C          -5.9307    4.1027   22.1743 C.ar    1  UNL1        0.0207
     16 C          -7.2200    4.5563   22.7922 C.ar    1  UNL1        0.0984
     17 N          -7.2395    5.0533   24.2074 N.ar    1  UNL1       -0.2481
     18 C           2.0601    0.4133   19.7088 C.3     1  UNL1        0.0990
     19 C           2.6127    1.1317   18.5135 C.3     1  UNL1        0.0143
     20 C           2.7970   -0.7587   20.2862 C.ar    1  UNL1       -0.0140
     21 C           3.1372   -0.7851   21.7469 C.ar    1  UNL1        0.0000
     22 C           3.8741   -1.9571   22.3242 C.ar    1  UNL1        0.0711
     23 C           4.2706   -3.1028   21.4410 C.ar    1  UNL1        0.0077
     24 C           3.9304   -3.0764   19.9804 C.ar    1  UNL1        0.0711
     25 C           3.1935   -1.9044   19.4030 C.ar    1  UNL1        0.0000
     26 C           4.2144   -1.9835   23.7849 C.3     1  UNL1        0.4186
     27 F           4.5547   -2.0099   25.2456 F       1  UNL1       -0.1659
     28 F           4.9070   -3.3010   23.5997 F       1  UNL1       -0.1659
     29 F           3.5217   -0.6659   23.9702 F       1  UNL1       -0.1659
     30 C           4.3270   -4.2221   19.0971 C.3     1  UNL1        0.4186
     31 F           4.7235   -5.3678   18.2139 F       1  UNL1       -0.1659
     32 F           5.7711   -3.8550   19.2694 F       1  UNL1       -0.1659
     33 F           2.8828   -4.5892   18.9249 F       1  UNL1       -0.1659
@<TRIPOS>BOND
     1    11    12    1
     2    12    13   ar
     3    13    14   ar
     4    14     5    1
     5     5     6   ar
     6     6     7   ar
     7     7     8   ar
     8     8     1    1
     9     1     2   am
    10     2     3    2
    11     2    18    1
    12    18    19    1
    13    18    20    1
    14    20    21   ar
    15    21    22   ar
    16    22    26    1
    17    26    27    1
    18    26    28    1
    19    26    29    1
    20    22    23   ar
    21    23    24   ar
    22    24    30    1
    23    30    31    1
    24    30    32    1
    25    30    33    1
    26    24    25   ar
    27     8     9   ar
    28     9    10   ar
    29    14    15   ar
    30    15    16   ar
    31    16    17   ar
    32    17    12   ar
    33    10     5   ar
    34    25    20   ar
    35     1     4    1
@<TRIPOS>MOLECULE
*****
 33 35 0 0 0
SMALL
GASTEIGER

@<TRIPOS>ATOM
      1 N           0.5278    2.3492   20.5957 N.am    1  UNL1       -0.2837
      2 C           0.7807    0.8888   20.3650 C.2     1  UNL1        0.2297
      3 O          -0.2614   -0.1217   20.7429 O.2     1  UNL1       -0.2744
      4 H           1.2118    3.0124   20.3477 H       1  UNL1        0.1549
      5 C          -3.3575    3.6990   22.4212 C.ar    1  UNL1        0.0002
      6 C          -3.2810    3.4053   20.9522 C.ar    1  UNL1        0.0013
      7 C          -1.9860    2.9554   20.3437 C.ar    1  UNL1        0.0147
      8 C          -0.7672    2.7991   21.2042 C.ar    1  UNL1        0.0503
      9 C          -0.8437    3.0928   22.6732 C.ar    1  UNL1        0.0147
     10 C          -2.1388    3.5427   23.2817 C.ar    1  UNL1        0.0013
     11 C          -5.9958    5.6740   26.4385 C.3     1  UNL1        0.0521
     12 C          -5.9717    5.1365   25.0384 C.ar    1  UNL1        0.0594
     13 C          -4.6767    4.6865   24.4298 C.ar    1  UNL1        0.0147
     14 C          -4.6526    4.1489   23.0297 C.ar    1  UNL1        0.0027
     15 C          -5.9237    4.0613   22.2380 C.ar    1  UNL1        0.0207
     16 C          -7.2187    4.5113   22.8465 C.ar    1  UNL1        0.0984
     17 N          -7.2427    5.0488   24.2467 N.ar    1  UNL1       -0.2481
     18 C           2.0758    0.4388   19.7565 C.3     1  UNL1        0.0990
     19 C           2.6393    1.1642   18.5706 C.3     1  UNL1        0.0143
     20 C           2.8075   -0.7365   20.3339 C.ar    1  UNL1       -0.0140
     21 C           3.2006   -1.8831   19.4503 C.ar    1  UNL1        0.0000
     22 C           3.9322   -3.0583   20.0277 C.ar    1  UNL1        0.0711
     23 C           4.2707   -3.0870   21.4887 C.ar    1  UNL1        0.0077
     24 C           3.8776   -1.9405   22.3723 C.ar    1  UNL1        0.0711
     25 C           3.1460   -0.7652   21.7949 C.ar    1  UNL1        0.0000
     26 C           4.3253   -4.2050   19.1441 C.3     1  UNL1        0.4186
     27 F           4.7184   -5.3516   18.2605 F       1  UNL1       -0.1659
     28 F           5.7666   -3.9795   19.4928 F       1  UNL1       -0.1659
     29 F           2.8840   -4.4305   18.7954 F       1  UNL1       -0.1659
     30 C           4.2162   -1.9692   23.8334 C.3     1  UNL1        0.4186
     31 F           4.5547   -1.9978   25.2944 F       1  UNL1       -0.1659
     32 F           4.9036   -3.2894   23.6481 F       1  UNL1       -0.1659
     33 F           3.5287   -0.6489   24.0186 F       1  UNL1       -0.1659
@<TRIPOS>BOND
     1    11    12    1
     2    12    13   ar
     3    13    14   ar
     4    14     5    1
     5     5     6   ar
     6     6     7   ar
     7     7     8   ar
     8     8     1    1
     9     1     2   am
    10     2     3    2
    11     2    18    1
    12    18    19    1
    13    18    20    1
    14    20    21   ar
    15    21    22   ar
    16    22    26    1
    17    26    27    1
    18    26    28    1
    19    26    29    1
    20    22    23   ar
    21    23    24   ar
    22    24    30    1
    23    30    31    1
    24    30    32    1
    25    30    33    1
    26    24    25   ar
    27     8     9   ar
    28     9    10   ar
    29    14    15   ar
    30    15    16   ar
    31    16    17   ar
    32    17    12   ar
    33    10     5   ar
    34    25    20   ar
    35     1     4    1
@<TRIPOS>MOLECULE
*****
 33 35 0 0 0
SMALL
GASTEIGER

@<TRIPOS>ATOM
      1 N          -7.4299  -20.3160   22.4128 N.am    1  UNL1       -0.2837
      2 C          -8.3452  -19.3175   23.0572 C.2     1  UNL1        0.2297
      3 O          -7.9961  -17.8589   23.0387 O.2     1  UNL1       -0.2744
      4 H          -7.6591  -21.2734   22.4250 H       1  UNL1        0.1549
      5 C          -3.6365  -18.9356   20.4244 C.ar    1  UNL1        0.0002
      6 C          -3.6814  -19.1122   21.9133 C.ar    1  UNL1        0.0013
      7 C          -4.9459  -19.5724   22.5761 C.ar    1  UNL1        0.0147
      8 C          -6.1655  -19.8559   21.7500 C.ar    1  UNL1        0.0503
      9 C          -6.1205  -19.6793   20.2611 C.ar    1  UNL1        0.0147
     10 C          -4.8560  -19.2192   19.5983 C.ar    1  UNL1        0.0013
     11 C           1.4006  -17.6928   20.7131 C.3     1  UNL1        0.0521
     12 C           0.1466  -17.8541   19.9059 C.ar    1  UNL1        0.0594
     13 C          -1.1179  -18.3142   20.5687 C.ar    1  UNL1        0.0147
     14 C          -2.3719  -18.4755   19.7616 C.ar    1  UNL1        0.0027
     15 C          -2.3614  -18.1766   18.2917 C.ar    1  UNL1        0.0207
     16 C          -1.0969  -17.7165   17.6290 C.ar    1  UNL1        0.0984
     17 N           0.1571  -17.5552   18.4361 N.ar    1  UNL1       -0.2481
     18 C          -9.6097  -19.7776   23.7200 C.3     1  UNL1        0.0990
     19 C          -9.5950  -20.9893   24.6042 C.3     1  UNL1        0.0143
     20 C         -10.8889  -19.0261   23.4987 C.ar    1  UNL1       -0.0140
     21 C         -12.0140  -19.1546   24.4823 C.ar    1  UNL1        0.0000
     22 C         -13.2932  -18.4031   24.2610 C.ar    1  UNL1        0.0711
     23 C         -13.4471  -17.5231   23.0561 C.ar    1  UNL1        0.0077
     24 C         -12.3220  -17.3945   22.0725 C.ar    1  UNL1        0.0711
     25 C         -11.0429  -18.1460   22.2938 C.ar    1  UNL1        0.0000
     26 C         -14.4184  -18.5316   25.2446 C.3     1  UNL1        0.4186
     27 F         -15.5436  -18.6602   26.2281 F       1  UNL1       -0.1659
     28 F         -15.4005  -18.5955   24.1127 F       1  UNL1       -0.1659
     29 F         -13.4363  -18.4678   26.3765 F       1  UNL1       -0.1659
     30 C         -12.4760  -16.5145   20.8676 C.3     1  UNL1        0.4186
     31 F         -12.6299  -15.6344   19.6627 F       1  UNL1       -0.1659
     32 F         -13.0446  -15.4292   21.7330 F       1  UNL1       -0.1659
     33 F         -11.9074  -17.5997   20.0023 F       1  UNL1       -0.1659
@<TRIPOS>BOND
     1    11    12    1
     2    12    13   ar
     3    13    14   ar
     4    14     5    1
     5     5     6   ar
     6     6     7   ar
     7     7     8   ar
     8     8     1    1
     9     1     2   am
    10     2     3    2
    11     2    18    1
    12    18    19    1
    13    18    20    1
    14    20    21   ar
    15    21    22   ar
    16    22    26    1
    17    26    27    1
    18    26    28    1
    19    26    29    1
    20    22    23   ar
    21    23    24   ar
    22    24    30    1
    23    30    31    1
    24    30    32    1
    25    30    33    1
    26    24    25   ar
    27     8     9   ar
    28     9    10   ar
    29    14    15   ar
    30    15    16   ar
    31    16    17   ar
    32    17    12   ar
    33    10     5   ar
    34    25    20   ar
    35     1     4    1
@<TRIPOS>MOLECULE
*****
 33 35 0 0 0
SMALL
GASTEIGER

@<TRIPOS>ATOM
      1 N          -7.3862  -20.3522   22.4943 N.am    1  UNL1       -0.2837
      2 C          -8.3499  -19.3482   23.0540 C.2     1  UNL1        0.2297
      3 O          -8.0518  -17.8821   22.9474 O.2     1  UNL1       -0.2744
      4 H          -7.5819  -21.3145   22.5642 H       1  UNL1        0.1549
      5 C          -3.6003  -18.9655   20.4958 C.ar    1  UNL1        0.0002
      6 C          -3.8852  -18.5750   21.9158 C.ar    1  UNL1        0.0013
      7 C          -5.1471  -19.0373   22.5820 C.ar    1  UNL1        0.0147
      8 C          -6.1242  -19.8900   21.8281 C.ar    1  UNL1        0.0503
      9 C          -5.8394  -20.2804   20.4081 C.ar    1  UNL1        0.0147
     10 C          -4.5774  -19.8181   19.7419 C.ar    1  UNL1        0.0013
     11 C           1.4374  -17.7218   20.7695 C.3     1  UNL1        0.0521
     12 C           0.1805  -17.8814   19.9665 C.ar    1  UNL1        0.0594
     13 C          -1.0814  -18.3436   20.6326 C.ar    1  UNL1        0.0147
     14 C          -2.3383  -18.5032   19.8296 C.ar    1  UNL1        0.0027
     15 C          -2.3332  -18.2005   18.3605 C.ar    1  UNL1        0.0207
     16 C          -1.0713  -17.7382   17.6944 C.ar    1  UNL1        0.0984
     17 N           0.1856  -17.5787   18.4974 N.ar    1  UNL1       -0.2481
     18 C          -9.6119  -19.8105   23.7202 C.3     1  UNL1        0.0990
     19 C          -9.5964  -21.0320   24.5906 C.3     1  UNL1        0.0143
     20 C         -10.8893  -19.0512   23.5159 C.ar    1  UNL1       -0.0140
     21 C         -11.0530  -18.1680   22.3146 C.ar    1  UNL1        0.0000
     22 C         -12.3304  -17.4088   22.1104 C.ar    1  UNL1        0.0711
     23 C         -13.4442  -17.5328   23.1075 C.ar    1  UNL1        0.0077
     24 C         -13.2805  -18.4159   24.3088 C.ar    1  UNL1        0.0711
     25 C         -12.0031  -19.1751   24.5130 C.ar    1  UNL1        0.0000
     26 C         -12.4941  -16.5256   20.9090 C.3     1  UNL1        0.4186
     27 F         -12.6578  -15.6425   19.7077 F       1  UNL1       -0.1659
     28 F         -11.9600  -17.6192   20.0323 F       1  UNL1       -0.1659
     29 F         -13.0283  -15.4320   21.7857 F       1  UNL1       -0.1659
     30 C         -14.3942  -18.5398   25.3059 C.3     1  UNL1        0.4186
     31 F         -15.5080  -18.6638   26.3030 F       1  UNL1       -0.1659
     32 F         -13.4014  -18.4472   26.4264 F       1  UNL1       -0.1659
     33 F         -15.3871  -18.6325   24.1853 F       1  UNL1       -0.1659
@<TRIPOS>BOND
     1    11    12    1
     2    12    13   ar
     3    13    14   ar
     4    14     5    1
     5     5     6   ar
     6     6     7   ar
     7     7     8   ar
     8     8     1    1
     9     1     2   am
    10     2     3    2
    11     2    18    1
    12    18    19    1
    13    18    20    1
    14    20    21   ar
    15    21    22   ar
    16    22    26    1
    17    26    27    1
    18    26    28    1
    19    26    29    1
    20    22    23   ar
    21    23    24   ar
    22    24    30    1
    23    30    31    1
    24    30    32    1
    25    30    33    1
    26    24    25   ar
    27     8     9   ar
    28     9    10   ar
    29    14    15   ar
    30    15    16   ar
    31    16    17   ar
    32    17    12   ar
    33    10     5   ar
    34    25    20   ar
    35     1     4    1
@<TRIPOS>MOLECULE
*****
 33 35 0 0 0
SMALL
GASTEIGER

@<TRIPOS>ATOM
      1 N           0.9765    0.1898   24.5682 N.am    1  UNL1       -0.2837
      2 C           2.4445    0.4036   24.3464 C.2     1  UNL1        0.2297
      3 O           3.0740    1.7167   24.7062 O.2     1  UNL1       -0.2744
      4 H           0.5634   -0.6720   24.3321 H       1  UNL1        0.1549
      5 C          -1.5392    3.4878   26.3130 C.ar    1  UNL1        0.0002
      6 C          -1.1931    3.5006   24.8535 C.ar    1  UNL1        0.0013
      7 C          -0.3546    2.4013   24.2719 C.ar    1  UNL1        0.0147
      8 C           0.1380    1.2891   25.1498 C.ar    1  UNL1        0.0503
      9 C          -0.2081    1.2763   26.6093 C.ar    1  UNL1        0.0147
     10 C          -1.0467    2.3757   27.1909 C.ar    1  UNL1        0.0013
     11 C          -6.1668    5.7667   26.9391 C.3     1  UNL1        0.0521
     12 C          -4.6916    5.7266   27.2076 C.ar    1  UNL1        0.0594
     13 C          -3.8530    4.6273   26.6261 C.ar    1  UNL1        0.0147
     14 C          -2.3778    4.5872   26.8946 C.ar    1  UNL1        0.0027
     15 C          -1.7412    5.6464   27.7447 C.ar    1  UNL1        0.0207
     16 C          -2.5798    6.7457   28.3263 C.ar    1  UNL1        0.0984
     17 N          -4.0550    6.7858   28.0577 N.ar    1  UNL1       -0.2481
     18 C           3.2831   -0.6957   23.7648 C.3     1  UNL1        0.0990
     19 C           4.2447   -1.4470   24.6370 C.3     1  UNL1        0.0143
     20 C           3.1600   -1.0437   22.3108 C.ar    1  UNL1       -0.0140
     21 C           2.3314   -0.1854   21.4017 C.ar    1  UNL1        0.0000
     22 C           2.2083   -0.5335   19.9479 C.ar    1  UNL1        0.0711
     23 C           2.9140   -1.7399   19.4032 C.ar    1  UNL1        0.0077
     24 C           3.7427   -2.5982   20.3123 C.ar    1  UNL1        0.0711
     25 C           3.8657   -2.2501   21.7661 C.ar    1  UNL1        0.0000
     26 C           1.3796    0.3248   19.0387 C.3     1  UNL1        0.4186
     27 F           0.5510    1.1831   18.1295 F       1  UNL1       -0.1659
     28 F           2.5590    0.4993   18.1285 F       1  UNL1       -0.1659
     29 F           0.2002    0.1504   19.9489 F       1  UNL1       -0.1659
     30 C           4.4483   -3.8046   19.7676 C.3     1  UNL1        0.4186
     31 F           5.1540   -5.0109   19.2229 F       1  UNL1       -0.1659
     32 F           5.6802   -3.4318   20.5379 F       1  UNL1       -0.1659
     33 F           3.2164   -4.1773   18.9973 F       1  UNL1       -0.1659
@<TRIPOS>BOND
     1    11    12    1
     2    12    13   ar
     3    13    14   ar
     4    14     5    1
     5     5     6   ar
     6     6     7   ar
     7     7     8   ar
     8     8     1    1
     9     1     2   am
    10     2     3    2
    11     2    18    1
    12    18    19    1
    13    18    20    1
    14    20    21   ar
    15    21    22   ar
    16    22    26    1
    17    26    27    1
    18    26    28    1
    19    26    29    1
    20    22    23   ar
    21    23    24   ar
    22    24    30    1
    23    30    31    1
    24    30    32    1
    25    30    33    1
    26    24    25   ar
    27     8     9   ar
    28     9    10   ar
    29    14    15   ar
    30    15    16   ar
    31    16    17   ar
    32    17    12   ar
    33    10     5   ar
    34    25    20   ar
    35     1     4    1
@<TRIPOS>MOLECULE
*****
 33 35 0 0 0
SMALL
GASTEIGER

@<TRIPOS>ATOM
      1 N           0.9817    0.1958   24.5818 N.am    1  UNL1       -0.2837
      2 C           2.4358    0.4360   24.3028 C.2     1  UNL1        0.2297
      3 O           3.0459    1.7732   24.6018 O.2     1  UNL1       -0.2744
      4 H           0.5813   -0.6819   24.3855 H       1  UNL1        0.1549
      5 C          -1.5503    3.4869   26.3158 C.ar    1  UNL1        0.0002
      6 C          -1.0444    2.3852   27.1992 C.ar    1  UNL1        0.0013
      7 C          -0.2004    1.2882   26.6212 C.ar    1  UNL1        0.0147
      8 C           0.1377    1.2928   25.1598 C.ar    1  UNL1        0.0503
      9 C          -0.3682    2.3945   24.2764 C.ar    1  UNL1        0.0147
     10 C          -1.2122    3.4916   24.8545 C.ar    1  UNL1        0.0013
     11 C          -6.1790    5.7783   26.8860 C.3     1  UNL1        0.0521
     12 C          -4.7087    5.7296   27.1790 C.ar    1  UNL1        0.0594
     13 C          -3.8647    4.6326   26.6010 C.ar    1  UNL1        0.0147
     14 C          -2.3944    4.5840   26.8939 C.ar    1  UNL1        0.0027
     15 C          -1.7681    5.6323   27.7649 C.ar    1  UNL1        0.0207
     16 C          -2.6121    6.7293   28.3430 C.ar    1  UNL1        0.0984
     17 N          -4.0824    6.7780   28.0500 N.ar    1  UNL1       -0.2481
     18 C           3.2798   -0.6611   23.7248 C.3     1  UNL1        0.0990
     19 C           4.2475   -1.4026   24.5987 C.3     1  UNL1        0.0143
     20 C           3.1562   -1.0167   22.2727 C.ar    1  UNL1       -0.0140
     21 C           3.8536   -2.2313   21.7360 C.ar    1  UNL1        0.0000
     22 C           3.7299   -2.5869   20.2840 C.ar    1  UNL1        0.0711
     23 C           2.9088   -1.7277   19.3688 C.ar    1  UNL1        0.0077
     24 C           2.2114   -0.5130   19.9055 C.ar    1  UNL1        0.0711
     25 C           2.3351   -0.1575   21.3575 C.ar    1  UNL1        0.0000
     26 C           4.4274   -3.8016   19.7472 C.3     1  UNL1        0.4186
     27 F           5.1247   -5.0163   19.2105 F       1  UNL1       -0.1659
     28 F           3.1400   -4.2710   19.1370 F       1  UNL1       -0.1659
     29 F           5.7147   -3.3322   20.3574 F       1  UNL1       -0.1659
     30 C           1.3903    0.3461   18.9902 C.3     1  UNL1        0.4186
     31 F           0.5693    1.2053   18.0750 F       1  UNL1       -0.1659
     32 F           0.1985    0.1558   19.8809 F       1  UNL1       -0.1659
     33 F           2.5822    0.5364   18.0996 F       1  UNL1       -0.1659
@<TRIPOS>BOND
     1    11    12    1
     2    12    13   ar
     3    13    14   ar
     4    14     5    1
     5     5     6   ar
     6     6     7   ar
     7     7     8   ar
     8     8     1    1
     9     1     2   am
    10     2     3    2
    11     2    18    1
    12    18    19    1
    13    18    20    1
    14    20    21   ar
    15    21    22   ar
    16    22    26    1
    17    26    27    1
    18    26    28    1
    19    26    29    1
    20    22    23   ar
    21    23    24   ar
    22    24    30    1
    23    30    31    1
    24    30    32    1
    25    30    33    1
    26    24    25   ar
    27     8     9   ar
    28     9    10   ar
    29    14    15   ar
    30    15    16   ar
    31    16    17   ar
    32    17    12   ar
    33    10     5   ar
    34    25    20   ar
    35     1     4    1
@<TRIPOS>MOLECULE
*****
 33 35 0 0 0
SMALL
GASTEIGER

@<TRIPOS>ATOM
      1 N          -1.0355    2.1418   20.3635 N.am    1  UNL1       -0.2837
      2 C          -0.8550    3.5864   20.7248 C.2     1  UNL1        0.2297
      3 O           0.5222    4.1777   20.7861 O.2     1  UNL1       -0.2744
      4 H          -1.9394    1.7537   20.3233 H       1  UNL1        0.1549
      5 C           2.5543   -0.4180   19.4633 C.ar    1  UNL1        0.0002
      6 C           1.9622    0.4472   18.3906 C.ar    1  UNL1        0.0013
      7 C           0.7656    1.3005   18.6906 C.ar    1  UNL1        0.0147
      8 C           0.1611    1.2885   20.0634 C.ar    1  UNL1        0.0503
      9 C           0.7532    0.4232   21.1361 C.ar    1  UNL1        0.0147
     10 C           1.9499   -0.4300   20.8360 C.ar    1  UNL1        0.0013
     11 C           4.6720   -5.1100   18.7555 C.3     1  UNL1        0.0521
     12 C           4.8098   -3.6173   18.8093 C.ar    1  UNL1        0.0594
     13 C           3.6132   -2.7640   19.1094 C.ar    1  UNL1        0.0147
     14 C           3.7510   -1.2713   19.1631 C.ar    1  UNL1        0.0027
     15 C           5.0853   -0.6319   18.9168 C.ar    1  UNL1        0.0207
     16 C           6.2819   -1.4852   18.6167 C.ar    1  UNL1        0.0984
     17 N           6.1441   -2.9779   18.5630 N.ar    1  UNL1       -0.2481
     18 C          -2.0515    4.4396   21.0248 C.3     1  UNL1        0.0990
     19 C          -2.4197    5.5654   20.1045 C.3     1  UNL1        0.0143
     20 C          -2.8800    4.1671   22.2453 C.ar    1  UNL1       -0.0140
     21 C          -4.3724    4.3057   22.1850 C.ar    1  UNL1        0.0000
     22 C          -5.2008    4.0332   23.4054 C.ar    1  UNL1        0.0711
     23 C          -4.5368    3.6221   24.6861 C.ar    1  UNL1        0.0077
     24 C          -3.0445    3.4835   24.7464 C.ar    1  UNL1        0.0711
     25 C          -2.2161    3.7561   23.5260 C.ar    1  UNL1        0.0000
     26 C          -6.6932    4.1717   23.3451 C.3     1  UNL1        0.4186
     27 F          -8.1855    4.3103   23.2849 F       1  UNL1       -0.1659
     28 F          -6.7366    4.3511   24.8337 F       1  UNL1       -0.1659
     29 F          -6.6498    3.9923   21.8566 F       1  UNL1       -0.1659
     30 C          -2.3806    3.0725   26.0271 C.3     1  UNL1        0.4186
     31 F          -1.7166    2.6614   27.3078 F       1  UNL1       -0.1659
     32 F          -1.2093    2.5470   25.2512 F       1  UNL1       -0.1659
     33 F          -3.5518    3.5980   26.8030 F       1  UNL1       -0.1659
@<TRIPOS>BOND
     1    11    12    1
     2    12    13   ar
     3    13    14   ar
     4    14     5    1
     5     5     6   ar
     6     6     7   ar
     7     7     8   ar
     8     8     1    1
     9     1     2   am
    10     2     3    2
    11     2    18    1
    12    18    19    1
    13    18    20    1
    14    20    21   ar
    15    21    22   ar
    16    22    26    1
    17    26    27    1
    18    26    28    1
    19    26    29    1
    20    22    23   ar
    21    23    24   ar
    22    24    30    1
    23    30    31    1
    24    30    32    1
    25    30    33    1
    26    24    25   ar
    27     8     9   ar
    28     9    10   ar
    29    14    15   ar
    30    15    16   ar
    31    16    17   ar
    32    17    12   ar
    33    10     5   ar
    34    25    20   ar
    35     1     4    1
@<TRIPOS>MOLECULE
*****
 33 35 0 0 0
SMALL
GASTEIGER

@<TRIPOS>ATOM
      1 N          -1.1263    2.4016   20.2564 N.am    1  UNL1       -0.2837
      2 C          -0.9118    3.7274   20.9244 C.2     1  UNL1        0.2297
      3 O           0.4802    4.2027   21.2182 O.2     1  UNL1       -0.2744
      4 H          -2.0399    2.0897   20.0636 H       1  UNL1        0.1549
      5 C           2.4063   -0.1498   19.1334 C.ar    1  UNL1        0.0002
      6 C           2.1655    1.1509   18.4262 C.ar    1  UNL1        0.0013
      7 C           0.9880    2.0014   18.8005 C.ar    1  UNL1        0.0147
      8 C           0.0512    1.5512   19.8821 C.ar    1  UNL1        0.0503
      9 C           0.2920    0.2505   20.5893 C.ar    1  UNL1        0.0147
     10 C           1.4696   -0.6000   20.2150 C.ar    1  UNL1        0.0013
     11 C           4.6811   -4.8131   18.8518 C.3     1  UNL1        0.0521
     12 C           4.7212   -3.3319   18.6183 C.ar    1  UNL1        0.0594
     13 C           3.5437   -2.4814   18.9926 C.ar    1  UNL1        0.0147
     14 C           3.5839   -1.0002   18.7591 C.ar    1  UNL1        0.0027
     15 C           4.8016   -0.3695   18.1513 C.ar    1  UNL1        0.0207
     16 C           5.9791   -1.2200   17.7770 C.ar    1  UNL1        0.0984
     17 N           5.9389   -2.7012   18.0105 N.ar    1  UNL1       -0.2481
     18 C          -2.0893    4.5779   21.2987 C.3     1  UNL1        0.0990
     19 C          -2.4863    5.7338   20.4291 C.3     1  UNL1        0.0143
     20 C          -2.8699    4.2724   22.5427 C.ar    1  UNL1       -0.0140
     21 C          -2.1676    3.7432   23.7578 C.ar    1  UNL1        0.0000
     22 C          -2.9482    3.4378   25.0017 C.ar    1  UNL1        0.0711
     23 C          -4.4312    3.6617   25.0305 C.ar    1  UNL1        0.0077
     24 C          -5.1335    4.1909   23.8154 C.ar    1  UNL1        0.0711
     25 C          -4.3528    4.4963   22.5715 C.ar    1  UNL1        0.0000
     26 C          -2.2459    2.9084   26.2169 C.3     1  UNL1        0.4186
     27 F          -1.5436    2.3791   27.4320 F       1  UNL1       -0.1659
     28 F          -1.1035    2.4530   25.3583 F       1  UNL1       -0.1659
     29 F          -3.3884    3.3638   27.0756 F       1  UNL1       -0.1659
     30 C          -6.6164    4.4148   23.8441 C.3     1  UNL1        0.4186
     31 F          -8.0993    4.6387   23.8729 F       1  UNL1       -0.1659
     32 F          -6.7301    3.8393   22.4636 F       1  UNL1       -0.1659
     33 F          -6.5027    4.9903   25.2247 F       1  UNL1       -0.1659
@<TRIPOS>BOND
     1    11    12    1
     2    12    13   ar
     3    13    14   ar
     4    14     5    1
     5     5     6   ar
     6     6     7   ar
     7     7     8   ar
     8     8     1    1
     9     1     2   am
    10     2     3    2
    11     2    18    1
    12    18    19    1
    13    18    20    1
    14    20    21   ar
    15    21    22   ar
    16    22    26    1
    17    26    27    1
    18    26    28    1
    19    26    29    1
    20    22    23   ar
    21    23    24   ar
    22    24    30    1
    23    30    31    1
    24    30    32    1
    25    30    33    1
    26    24    25   ar
    27     8     9   ar
    28     9    10   ar
    29    14    15   ar
    30    15    16   ar
    31    16    17   ar
    32    17    12   ar
    33    10     5   ar
    34    25    20   ar
    35     1     4    1
