@<TRIPOS>MOLECULE
*****
 24 27 0 0 0
SMALL
GASTEIGER

@<TRIPOS>ATOM
      1 C          -7.9244  -17.4251   23.6717 C.2     1  UNL1        0.3251
      2 N          -7.1950  -18.1421   22.5745 N.2     1  UNL1       -0.0388
      3 C          -5.7197  -18.1885   22.3070 C.ar    1  UNL1        0.2072
      4 C          -5.4074  -19.0247   21.1015 C.ar    1  UNL1        0.0593
      5 C          -3.9849  -19.2017   20.6596 C.ar    1  UNL1        0.0615
      6 CL         -3.6725  -20.0379   19.4541 Cl      1  UNL1       -0.0821
      7 C          -2.8748  -18.5425   21.4232 C.ar    1  UNL1        0.0129
      8 C          -3.1871  -17.7063   22.6287 C.ar    1  UNL1        0.0192
      9 C          -4.6096  -17.5293   23.0706 C.ar    1  UNL1        0.0920
     10 N          -4.7006  -16.6609   24.2903 N.pl3   1  UNL1       -0.3094
     11 C          -5.9240  -16.2373   25.0477 C.ar    1  UNL1        0.0556
     12 C          -5.5710  -15.3631   26.2143 C.ar    1  UNL1        0.0149
     13 C          -6.6528  -14.8290   27.1057 C.ar    1  UNL1        0.0013
     14 C          -8.0875  -15.1691   26.8304 C.ar    1  UNL1        0.0003
     15 C          -8.4405  -16.0433   25.6637 C.ar    1  UNL1        0.0086
     16 C          -7.3588  -16.5774   24.7724 C.ar    1  UNL1        0.0956
     17 H          -3.8439  -16.3246   24.6400 H       1  UNL1        0.1523
     18 C         -13.8940  -18.0276   23.6556 C.3     1  UNL1        0.0898
     19 N         -12.4016  -17.8770   23.6597 N.3     1  UNL1       -0.2645
     20 C         -11.5570  -18.7994   24.4877 C.3     1  UNL1        0.1237
     21 C         -10.0646  -18.6488   24.4917 C.3     1  UNL1        0.2197
     22 N          -9.4168  -17.5757   23.6677 N.pl3   1  UNL1       -0.1877
     23 C         -10.2615  -16.6533   22.8396 C.3     1  UNL1        0.2197
     24 C         -11.7539  -16.8040   22.8356 C.3     1  UNL1        0.1237
@<TRIPOS>BOND
     1    18    19    1
     2    19    20    1
     3    20    21    1
     4    21    22    1
     5    22     1    1
     6     1     2    2
     7     2     3    1
     8     3     4   ar
     9     4     5   ar
    10     5     6    1
    11     5     7   ar
    12     7     8   ar
    13     8     9   ar
    14     9    10    1
    15    10    11    1
    16    11    12   ar
    17    12    13   ar
    18    13    14   ar
    19    14    15   ar
    20    15    16   ar
    21    22    23    1
    22    23    24    1
    23    24    19    1
    24    16     1    1
    25     9     3   ar
    26    16    11   ar
    27    10    17    1
@<TRIPOS>MOLECULE
*****
 24 27 0 0 0
SMALL
GASTEIGER

@<TRIPOS>ATOM
      1 C         -13.6028   -5.2170   18.4959 C.2     1  UNL1        0.3251
      2 N         -14.3313   -3.9130   18.3589 N.2     1  UNL1       -0.0388
      3 C         -13.7717   -2.5216   18.3881 C.ar    1  UNL1        0.2072
      4 C         -14.8500   -1.4935   18.2139 C.ar    1  UNL1        0.0593
      5 C         -14.5021   -0.0344   18.2133 C.ar    1  UNL1        0.0615
      6 CL        -15.5804    0.9937   18.0391 Cl      1  UNL1       -0.0821
      7 C         -13.0760    0.3966   18.3868 C.ar    1  UNL1        0.0129
      8 C         -11.9977   -0.6314   18.5610 C.ar    1  UNL1        0.0192
      9 C         -12.3455   -2.0905   18.5617 C.ar    1  UNL1        0.0920
     10 N         -11.1266   -2.9445   18.7488 N.pl3   1  UNL1       -0.3094
     11 C         -11.0328   -4.4404   18.8086 C.ar    1  UNL1        0.0556
     12 C          -9.6169   -4.8932   19.0089 C.ar    1  UNL1        0.0149
     13 C          -9.3030   -6.3573   19.0966 C.ar    1  UNL1        0.0013
     14 C         -10.4050   -7.3687   18.9840 C.ar    1  UNL1        0.0003
     15 C         -11.8209   -6.9159   18.7838 C.ar    1  UNL1        0.0086
     16 C         -12.1348   -5.4518   18.6961 C.ar    1  UNL1        0.0956
     17 H         -10.2756   -2.4590   18.8451 H       1  UNL1        0.1523
     18 C         -17.0114  -10.1463   18.2050 C.3     1  UNL1        0.0898
     19 N         -16.1592   -8.9140   18.2777 N.3     1  UNL1       -0.2645
     20 C         -15.2943   -8.5305   17.1138 C.3     1  UNL1        0.1237
     21 C         -14.4421   -7.2983   17.1865 C.3     1  UNL1        0.2197
     22 N         -14.4549   -6.4493   18.4232 N.pl3   1  UNL1       -0.1877
     23 C         -15.3200   -6.8328   19.5871 C.3     1  UNL1        0.2197
     24 C         -16.1721   -8.0652   19.5144 C.3     1  UNL1        0.1237
@<TRIPOS>BOND
     1    18    19    1
     2    19    20    1
     3    20    21    1
     4    21    22    1
     5    22     1    1
     6     1     2    2
     7     2     3    1
     8     3     4   ar
     9     4     5   ar
    10     5     6    1
    11     5     7   ar
    12     7     8   ar
    13     8     9   ar
    14     9    10    1
    15    10    11    1
    16    11    12   ar
    17    12    13   ar
    18    13    14   ar
    19    14    15   ar
    20    15    16   ar
    21    22    23    1
    22    23    24    1
    23    24    19    1
    24    16     1    1
    25     9     3   ar
    26    16    11   ar
    27    10    17    1
@<TRIPOS>MOLECULE
*****
 24 27 0 0 0
SMALL
GASTEIGER

@<TRIPOS>ATOM
      1 C         -13.9493   -4.8277   18.5539 C.2     1  UNL1        0.3251
      2 N         -15.2335   -5.5890   18.4086 N.2     1  UNL1       -0.0388
      3 C         -15.4404   -7.0740   18.3635 C.ar    1  UNL1        0.2072
      4 C         -16.8914   -7.4206   18.2076 C.ar    1  UNL1        0.0593
      5 C         -17.3162   -8.8577   18.1407 C.ar    1  UNL1        0.0615
      6 CL        -18.7673   -9.2044   17.9847 Cl      1  UNL1       -0.0821
      7 C         -16.2900   -9.9480   18.2297 C.ar    1  UNL1        0.0129
      8 C         -14.8390   -9.6014   18.3857 C.ar    1  UNL1        0.0192
      9 C         -14.4142   -8.1644   18.4526 C.ar    1  UNL1        0.0920
     10 N         -12.9276   -8.0390   18.6087 N.pl3   1  UNL1       -0.3094
     11 C         -12.1000   -6.7924   18.7143 C.ar    1  UNL1        0.0556
     12 C         -10.6421   -7.1132   18.8604 C.ar    1  UNL1        0.0149
     13 C          -9.6388   -6.0048   18.9820 C.ar    1  UNL1        0.0013
     14 C         -10.0935   -4.5756   18.9576 C.ar    1  UNL1        0.0003
     15 C         -11.5515   -4.2548   18.8116 C.ar    1  UNL1        0.0086
     16 C         -12.5547   -5.3632   18.6899 C.ar    1  UNL1        0.0956
     17 H         -12.4291   -8.8871   18.6469 H       1  UNL1        0.1523
     18 C         -14.4576    1.1506   18.5963 C.3     1  UNL1        0.0898
     19 N         -14.3305   -0.3439   18.5856 N.3     1  UNL1       -0.2645
     20 C         -13.6824   -1.0332   17.4218 C.3     1  UNL1        0.1237
     21 C         -13.5553   -2.5278   17.4111 C.3     1  UNL1        0.2197
     22 N         -14.0764   -3.3331   18.5644 N.pl3   1  UNL1       -0.1877
     23 C         -14.7245   -2.6437   19.7284 C.3     1  UNL1        0.2197
     24 C         -14.8516   -1.1491   19.7390 C.3     1  UNL1        0.1237
@<TRIPOS>BOND
     1    18    19    1
     2    19    20    1
     3    20    21    1
     4    21    22    1
     5    22     1    1
     6     1     2    2
     7     2     3    1
     8     3     4   ar
     9     4     5   ar
    10     5     6    1
    11     5     7   ar
    12     7     8   ar
    13     8     9   ar
    14     9    10    1
    15    10    11    1
    16    11    12   ar
    17    12    13   ar
    18    13    14   ar
    19    14    15   ar
    20    15    16   ar
    21    22    23    1
    22    23    24    1
    23    24    19    1
    24    16     1    1
    25     9     3   ar
    26    16    11   ar
    27    10    17    1
@<TRIPOS>MOLECULE
*****
 24 27 0 0 0
SMALL
GASTEIGER

@<TRIPOS>ATOM
      1 C         -13.9440   -3.2365   18.2709 C.2     1  UNL1        0.3251
      2 N         -15.3666   -3.7020   18.3672 N.2     1  UNL1       -0.0388
      3 C         -15.8832   -5.0583   18.7461 C.ar    1  UNL1        0.2072
      4 C         -17.3823   -5.1013   18.7179 C.ar    1  UNL1        0.0593
      5 C         -18.1030   -6.3700   19.0659 C.ar    1  UNL1        0.0615
      6 CL        -19.6021   -6.4130   19.0377 Cl      1  UNL1       -0.0821
      7 C         -17.3245   -7.5957   19.4419 C.ar    1  UNL1        0.0129
      8 C         -15.8254   -7.5528   19.4701 C.ar    1  UNL1        0.0192
      9 C         -15.1047   -6.2841   19.1222 C.ar    1  UNL1        0.0920
     10 N         -13.6174   -6.4562   19.2123 N.pl3   1  UNL1       -0.3094
     11 C         -12.5411   -5.4452   18.9486 C.ar    1  UNL1        0.0556
     12 C         -11.1760   -6.0314   19.1553 C.ar    1  UNL1        0.0149
     13 C          -9.9562   -5.1846   18.9431 C.ar    1  UNL1        0.0013
     14 C         -10.1016   -3.7517   18.5241 C.ar    1  UNL1        0.0003
     15 C         -11.4667   -3.1655   18.3174 C.ar    1  UNL1        0.0086
     16 C         -12.6865   -4.0123   18.5296 C.ar    1  UNL1        0.0956
     17 H         -13.3064   -7.3512   19.4799 H       1  UNL1        0.1523
     18 C         -13.1823    2.4856   16.6344 C.3     1  UNL1        0.0898
     19 N         -13.3727    1.0551   17.0435 N.3     1  UNL1       -0.2645
     20 C         -13.3382   -0.0315   16.0100 C.3     1  UNL1        0.1237
     21 C         -13.5286   -1.4620   16.4191 C.3     1  UNL1        0.2197
     22 N         -13.7535   -1.8060   17.8618 N.pl3   1  UNL1       -0.1877
     23 C         -13.7881   -0.7193   18.8953 C.3     1  UNL1        0.2197
     24 C         -13.5977    0.7112   18.4861 C.3     1  UNL1        0.1237
@<TRIPOS>BOND
     1    18    19    1
     2    19    20    1
     3    20    21    1
     4    21    22    1
     5    22     1    1
     6     1     2    2
     7     2     3    1
     8     3     4   ar
     9     4     5   ar
    10     5     6    1
    11     5     7   ar
    12     7     8   ar
    13     8     9   ar
    14     9    10    1
    15    10    11    1
    16    11    12   ar
    17    12    13   ar
    18    13    14   ar
    19    14    15   ar
    20    15    16   ar
    21    22    23    1
    22    23    24    1
    23    24    19    1
    24    16     1    1
    25     9     3   ar
    26    16    11   ar
    27    10    17    1
@<TRIPOS>MOLECULE
*****
 24 27 0 0 0
SMALL
GASTEIGER

@<TRIPOS>ATOM
      1 C          -6.6743  -16.9187   23.1833 C.2     1  UNL1        0.3251
      2 N          -7.7079  -17.1366   22.1183 N.2     1  UNL1       -0.0388
      3 C          -9.1717  -16.8106   22.1551 C.ar    1  UNL1        0.2072
      4 C          -9.8506  -17.1928   20.8733 C.ar    1  UNL1        0.0593
      5 C         -11.3210  -16.9507   20.7023 C.ar    1  UNL1        0.0615
      6 CL        -11.9999  -17.3330   19.4205 Cl      1  UNL1       -0.0821
      7 C         -12.1125  -16.3264   21.8130 C.ar    1  UNL1        0.0129
      8 C         -11.4336  -15.9442   23.0947 C.ar    1  UNL1        0.0192
      9 C          -9.9632  -16.1862   23.2658 C.ar    1  UNL1        0.0920
     10 N          -9.4865  -15.7337   24.6141 N.pl3   1  UNL1       -0.3094
     11 C          -8.1005  -15.7937   25.1848 C.ar    1  UNL1        0.0556
     12 C          -8.0555  -15.2323   26.5750 C.ar    1  UNL1        0.0149
     13 C          -6.7589  -15.1982   27.3284 C.ar    1  UNL1        0.0013
     14 C          -5.5074  -15.7256   26.6916 C.ar    1  UNL1        0.0003
     15 C          -5.5524  -16.2871   25.3014 C.ar    1  UNL1        0.0086
     16 C          -6.8490  -16.3211   24.5480 C.ar    1  UNL1        0.0956
     17 H         -10.1742  -15.3460   25.2024 H       1  UNL1        0.1523
     18 C          -1.1042  -18.6695   21.8017 C.3     1  UNL1        0.0898
     19 N          -2.4967  -18.2317   22.1471 N.3     1  UNL1       -0.2645
     20 C          -2.7592  -16.8090   22.5427 C.3     1  UNL1        0.1237
     21 C          -4.1517  -16.3712   22.8881 C.3     1  UNL1        0.2197
     22 N          -5.2818  -17.3564   22.8379 N.pl3   1  UNL1       -0.1877
     23 C          -5.0192  -18.7793   22.4422 C.3     1  UNL1        0.2197
     24 C          -3.6267  -19.2170   22.0968 C.3     1  UNL1        0.1237
@<TRIPOS>BOND
     1    18    19    1
     2    19    20    1
     3    20    21    1
     4    21    22    1
     5    22     1    1
     6     1     2    2
     7     2     3    1
     8     3     4   ar
     9     4     5   ar
    10     5     6    1
    11     5     7   ar
    12     7     8   ar
    13     8     9   ar
    14     9    10    1
    15    10    11    1
    16    11    12   ar
    17    12    13   ar
    18    13    14   ar
    19    14    15   ar
    20    15    16   ar
    21    22    23    1
    22    23    24    1
    23    24    19    1
    24    16     1    1
    25     9     3   ar
    26    16    11   ar
    27    10    17    1
@<TRIPOS>MOLECULE
*****
 24 27 0 0 0
SMALL
GASTEIGER

@<TRIPOS>ATOM
      1 C           1.7179    1.5597   30.9068 C.2     1  UNL1        0.3251
      2 N           2.6178    0.3635   31.0031 N.2     1  UNL1       -0.0388
      3 C           3.4451   -0.0930   32.1681 C.ar    1  UNL1        0.2072
      4 C           4.2046   -1.3451   31.8436 C.ar    1  UNL1        0.0593
      5 C           5.0959   -1.9704   32.8756 C.ar    1  UNL1        0.0615
      6 CL          5.8555   -3.2224   32.5511 Cl      1  UNL1       -0.0821
      7 C           5.2276   -1.3435   34.2319 C.ar    1  UNL1        0.0129
      8 C           4.4680   -0.0914   34.5563 C.ar    1  UNL1        0.0192
      9 C           3.5767    0.5338   33.5245 C.ar    1  UNL1        0.0920
     10 N           2.9136    1.7721   34.0508 N.pl3   1  UNL1       -0.3094
     11 C           1.9551    2.6893   33.3509 C.ar    1  UNL1        0.0556
     12 C           1.5270    3.8178   34.2415 C.ar    1  UNL1        0.0149
     13 C           0.5667    4.8518   33.7328 C.ar    1  UNL1        0.0013
     14 C           0.0346    4.7573   32.3336 C.ar    1  UNL1        0.0003
     15 C           0.4627    3.6288   31.4430 C.ar    1  UNL1        0.0086
     16 C           1.4229    2.5948   31.9516 C.ar    1  UNL1        0.0956
     17 H           3.1371    2.0149   34.9784 H       1  UNL1        0.1523
     18 C          -1.0710    2.3025   25.6465 C.3     1  UNL1        0.0898
     19 N          -0.3737    2.1168   26.9616 N.3     1  UNL1       -0.2645
     20 C           0.9044    2.8496   27.2428 C.3     1  UNL1        0.1237
     21 C           1.6017    2.6640   28.5579 C.3     1  UNL1        0.2197
     22 N           1.0207    1.7454   29.5917 N.pl3   1  UNL1       -0.1877
     23 C          -0.2576    1.0126   29.3104 C.3     1  UNL1        0.2197
     24 C          -0.9548    1.1983   27.9953 C.3     1  UNL1        0.1237
@<TRIPOS>BOND
     1    18    19    1
     2    19    20    1
     3    20    21    1
     4    21    22    1
     5    22     1    1
     6     1     2    2
     7     2     3    1
     8     3     4   ar
     9     4     5   ar
    10     5     6    1
    11     5     7   ar
    12     7     8   ar
    13     8     9   ar
    14     9    10    1
    15    10    11    1
    16    11    12   ar
    17    12    13   ar
    18    13    14   ar
    19    14    15   ar
    20    15    16   ar
    21    22    23    1
    22    23    24    1
    23    24    19    1
    24    16     1    1
    25     9     3   ar
    26    16    11   ar
    27    10    17    1
@<TRIPOS>MOLECULE
*****
 24 27 0 0 0
SMALL
GASTEIGER

@<TRIPOS>ATOM
      1 C          -1.9481    3.1844   20.4819 C.2     1  UNL1        0.3251
      2 N          -0.9922    2.1406   20.9786 N.2     1  UNL1       -0.0388
      3 C           0.1463    1.4919   20.2485 C.ar    1  UNL1        0.2072
      4 C           0.8552    0.4937   21.1150 C.ar    1  UNL1        0.0593
      5 C           2.0279   -0.2696   20.5745 C.ar    1  UNL1        0.0615
      6 CL          2.7369   -1.2679   21.4411 Cl      1  UNL1       -0.0821
      7 C           2.4916   -0.0348   19.1675 C.ar    1  UNL1        0.0129
      8 C           1.7827    0.9634   18.3010 C.ar    1  UNL1        0.0192
      9 C           0.6100    1.7268   18.8414 C.ar    1  UNL1        0.0920
     10 N           0.0497    2.6684   17.8170 N.pl3   1  UNL1       -0.3094
     11 C          -1.1126    3.6077   17.9465 C.ar    1  UNL1        0.0556
     12 C          -1.3414    4.3747   16.6779 C.ar    1  UNL1        0.0149
     13 C          -2.4594    5.3713   16.5954 C.ar    1  UNL1        0.0013
     14 C          -3.3485    5.6010   17.7814 C.ar    1  UNL1        0.0003
     15 C          -3.1197    4.8340   19.0500 C.ar    1  UNL1        0.0086
     16 C          -2.0017    3.8374   19.1325 C.ar    1  UNL1        0.0956
     17 H           0.5051    2.6702   16.9441 H       1  UNL1        0.1523
     18 C          -6.1076    4.9865   24.4128 C.3     1  UNL1        0.0898
     19 N          -5.0678    4.5359   23.4300 N.3     1  UNL1       -0.2645
     20 C          -5.4022    3.4855   22.4130 C.3     1  UNL1        0.1237
     21 C          -4.3624    3.0349   21.4303 C.3     1  UNL1        0.2197
     22 N          -2.9880    3.6349   21.4646 N.pl3   1  UNL1       -0.1877
     23 C          -2.6536    4.6855   22.4818 C.3     1  UNL1        0.2197
     24 C          -3.6935    5.1360   23.4645 C.3     1  UNL1        0.1237
@<TRIPOS>BOND
     1    18    19    1
     2    19    20    1
     3    20    21    1
     4    21    22    1
     5    22     1    1
     6     1     2    2
     7     2     3    1
     8     3     4   ar
     9     4     5   ar
    10     5     6    1
    11     5     7   ar
    12     7     8   ar
    13     8     9   ar
    14     9    10    1
    15    10    11    1
    16    11    12   ar
    17    12    13   ar
    18    13    14   ar
    19    14    15   ar
    20    15    16   ar
    21    22    23    1
    22    23    24    1
    23    24    19    1
    24    16     1    1
    25     9     3   ar
    26    16    11   ar
    27    10    17    1
@<TRIPOS>MOLECULE
*****
 24 27 0 0 0
SMALL
GASTEIGER

@<TRIPOS>ATOM
      1 C           7.0479   -3.8615   26.5362 C.2     1  UNL1        0.3251
      2 N           6.7318   -3.1933   27.8414 N.2     1  UNL1       -0.0388
      3 C           6.7072   -3.7920   29.2166 C.ar    1  UNL1        0.2072
      4 C           6.3401   -2.7708   30.2522 C.ar    1  UNL1        0.0593
      5 C           6.2585   -3.1642   31.6974 C.ar    1  UNL1        0.0615
      6 CL          5.8914   -2.1431   32.7331 Cl      1  UNL1       -0.0821
      7 C           6.5439   -4.5787   32.1070 C.ar    1  UNL1        0.0129
      8 C           6.9110   -5.5998   31.0713 C.ar    1  UNL1        0.0192
      9 C           6.9927   -5.2065   29.6262 C.ar    1  UNL1        0.0920
     10 N           7.3732   -6.3717   28.7616 N.pl3   1  UNL1       -0.3094
     11 C           7.5623   -6.4103   27.2741 C.ar    1  UNL1        0.0556
     12 C           7.9441   -7.7832   26.8056 C.ar    1  UNL1        0.0149
     13 C           8.1811   -8.0388   25.3468 C.ar    1  UNL1        0.0013
     14 C           8.0363   -6.9217   24.3563 C.ar    1  UNL1        0.0003
     15 C           7.6546   -5.5488   24.8247 C.ar    1  UNL1        0.0086
     16 C           7.4175   -5.2932   26.2836 C.ar    1  UNL1        0.0956
     17 H           7.5180   -7.2239   29.2329 H       1  UNL1        0.1523
     18 C           6.8013   -0.3418   21.6832 C.3     1  UNL1        0.0898
     19 N           6.8631   -1.2217   22.8964 N.3     1  UNL1       -0.2645
     20 C           8.1544   -1.3808   23.6426 C.3     1  UNL1        0.1237
     21 C           8.2161   -2.2607   24.8559 C.3     1  UNL1        0.2197
     22 N           6.9863   -2.9816   25.3229 N.pl3   1  UNL1       -0.1877
     23 C           5.6948   -2.8224   24.5766 C.3     1  UNL1        0.2197
     24 C           5.6332   -1.9425   23.3634 C.3     1  UNL1        0.1237
@<TRIPOS>BOND
     1    18    19    1
     2    19    20    1
     3    20    21    1
     4    21    22    1
     5    22     1    1
     6     1     2    2
     7     2     3    1
     8     3     4   ar
     9     4     5   ar
    10     5     6    1
    11     5     7   ar
    12     7     8   ar
    13     8     9   ar
    14     9    10    1
    15    10    11    1
    16    11    12   ar
    17    12    13   ar
    18    13    14   ar
    19    14    15   ar
    20    15    16   ar
    21    22    23    1
    22    23    24    1
    23    24    19    1
    24    16     1    1
    25     9     3   ar
    26    16    11   ar
    27    10    17    1
@<TRIPOS>MOLECULE
*****
 24 27 0 0 0
SMALL
GASTEIGER

@<TRIPOS>ATOM
      1 C           2.8072    1.2261   19.0342 C.2     1  UNL1        0.3251
      2 N           2.6713   -0.2352   19.3445 N.2     1  UNL1       -0.0388
      3 C           3.6197   -1.3518   19.0223 C.ar    1  UNL1        0.2072
      4 C           3.1005   -2.6706   19.5132 C.ar    1  UNL1        0.0593
      5 C           3.8997   -3.9206   19.2921 C.ar    1  UNL1        0.0615
      6 CL          3.3804   -5.2395   19.7830 Cl      1  UNL1       -0.0821
      7 C           5.2181   -3.8517   18.5802 C.ar    1  UNL1        0.0129
      8 C           5.7374   -2.5329   18.0894 C.ar    1  UNL1        0.0192
      9 C           4.9383   -1.2829   18.3104 C.ar    1  UNL1        0.0920
     10 N           5.6339   -0.0804   17.7448 N.pl3   1  UNL1       -0.3094
     11 C           5.1830    1.3503   17.7513 C.ar    1  UNL1        0.0556
     12 C           6.1813    2.2426   17.0754 C.ar    1  UNL1        0.0149
     13 C           5.9217    3.7164   16.9732 C.ar    1  UNL1        0.0013
     14 C           4.6636    4.2978   17.5471 C.ar    1  UNL1        0.0003
     15 C           3.6653    3.4055   18.2231 C.ar    1  UNL1        0.0086
     16 C           3.9250    1.9317   18.3252 C.ar    1  UNL1        0.0956
     17 H           6.5012   -0.2529   17.3120 H       1  UNL1        0.1523
     18 C          -1.7191    4.7095   20.8722 C.3     1  UNL1        0.0898
     19 N          -0.5876    3.8386   20.4127 N.3     1  UNL1       -0.2645
     20 C          -0.5676    3.3142   19.0076 C.3     1  UNL1        0.1237
     21 C           0.5639    2.4433   18.5480 C.3     1  UNL1        0.2197
     22 N           1.6756    2.0969   19.4937 N.pl3   1  UNL1       -0.1877
     23 C           1.6557    2.6214   20.8989 C.3     1  UNL1        0.2197
     24 C           0.5241    3.4923   21.3584 C.3     1  UNL1        0.1237
@<TRIPOS>BOND
     1    18    19    1
     2    19    20    1
     3    20    21    1
     4    21    22    1
     5    22     1    1
     6     1     2    2
     7     2     3    1
     8     3     4   ar
     9     4     5   ar
    10     5     6    1
    11     5     7   ar
    12     7     8   ar
    13     8     9   ar
    14     9    10    1
    15    10    11    1
    16    11    12   ar
    17    12    13   ar
    18    13    14   ar
    19    14    15   ar
    20    15    16   ar
    21    22    23    1
    22    23    24    1
    23    24    19    1
    24    16     1    1
    25     9     3   ar
    26    16    11   ar
    27    10    17    1
