@<TRIPOS>MOLECULE
*****
 34 37 0 0 0
SMALL
GASTEIGER

@<TRIPOS>ATOM
      1 C          -7.6742  -20.0359   22.1789 C.ar    1  UNL1        0.1681
      2 C          -6.3311  -20.0055   22.8460 C.ar    1  UNL1        0.0702
      3 C          -5.0947  -19.7629   22.0321 C.ar    1  UNL1        0.1620
      4 F          -3.7515  -19.7325   22.6993 F       1  UNL1       -0.2026
      5 C          -5.2014  -19.5508   20.5511 C.ar    1  UNL1        0.1549
      6 C          -6.5445  -19.5812   19.8839 C.ar    1  UNL1        0.0553
      7 C          -7.7809  -19.8238   20.6978 C.ar    1  UNL1        0.1753
      8 F          -9.1240  -19.8542   20.0306 F       1  UNL1       -0.2009
      9 S          -3.9649  -19.3082   19.7372 S.O2    1  UNL1        0.0773
     10 O          -3.3604  -20.5692   20.2798 O.2     1  UNL1       -0.1498
     11 O          -4.5694  -18.0472   19.1946 O.2     1  UNL1       -0.1498
     12 N          -2.7285  -19.0657   18.9233 N.pl3   1  UNL1       -0.1925
     13 H          -2.6551  -19.4404   18.0159 H       1  UNL1        0.1758
     14 C          -1.6039  -18.2522   19.4920 C.ar    1  UNL1        0.1977
     15 N          -0.1477  -18.6097   19.4494 N.ar    1  UNL1       -0.1997
     16 C           0.6182  -17.5168   20.1342 C.ar    1  UNL1        0.2082
     17 N          -0.3647  -16.4838   20.6002 N.ar    1  UNL1       -0.1840
     18 S          -1.7380  -16.9383   20.2033 S.2     1  UNL1        0.0508
     19 O          -8.9106  -20.2785   22.9928 O.3     1  UNL1       -0.4731
     20 C          -9.4138  -19.2181   23.9267 C.3     1  UNL1        0.2071
     21 C         -13.9764  -18.0444   21.7348 C.3     1  UNL1        0.0896
     22 N         -12.6771  -17.6073   22.3437 N.3     1  UNL1       -0.2714
     23 C         -12.3598  -16.1463   22.4655 C.3     1  UNL1        0.0725
     24 C         -11.0605  -15.7093   23.0744 C.3     1  UNL1        0.0218
     25 C         -10.0785  -16.7332   23.5615 C.3     1  UNL1        0.0287
     26 C         -10.3958  -18.1941   23.4396 C.3     1  UNL1        0.0638
     27 C         -11.6951  -18.6312   22.8308 C.3     1  UNL1        0.0761
     28 C          -8.7792  -16.2961   24.1703 C.ar    1  UNL1       -0.0222
     29 C          -8.7074  -15.9737   25.6335 C.ar    1  UNL1       -0.0034
     30 C          -7.4081  -15.5366   26.2424 C.ar    1  UNL1        0.0111
     31 C          -6.1805  -15.4220   25.3881 C.ar    1  UNL1        0.0577
     32 CL         -4.8812  -14.9849   25.9970 Cl      1  UNL1       -0.0822
     33 C          -6.2522  -15.7444   23.9250 C.ar    1  UNL1        0.0111
     34 C          -7.5516  -16.1815   23.3161 C.ar    1  UNL1       -0.0034
@<TRIPOS>BOND
     1    21    22    1
     2    22    23    1
     3    23    24    1
     4    24    25    1
     5    25    28    1
     6    28    29   ar
     7    29    30   ar
     8    30    31   ar
     9    31    32    1
    10    31    33   ar
    11    33    34   ar
    12    25    26    1
    13    26    20    1
    14    20    19    1
    15    19     1    1
    16     1     2   ar
    17     2     3   ar
    18     3     4    1
    19     3     5   ar
    20     5     9    1
    21     9    10    2
    22     9    11    2
    23     9    12    1
    24    12    14    1
    25    14    15   ar
    26    15    16   ar
    27    16    17   ar
    28    17    18   ar
    29     5     6   ar
    30     6     7   ar
    31     7     8    1
    32    26    27    1
    33    27    22    1
    34    34    28   ar
    35     7     1   ar
    36    18    14   ar
    37    12    13    1
@<TRIPOS>MOLECULE
*****
 34 37 0 0 0
SMALL
GASTEIGER

@<TRIPOS>ATOM
      1 C          -9.0196  -19.2904   21.9269 C.ar    1  UNL1        0.1681
      2 C          -7.7643  -19.3958   22.7411 C.ar    1  UNL1        0.0702
      3 C          -6.4383  -19.5530   22.0578 C.ar    1  UNL1        0.1620
      4 F          -5.1828  -19.6584   22.8720 F       1  UNL1       -0.2026
      5 C          -6.3676  -19.6048   20.5604 C.ar    1  UNL1        0.1549
      6 C          -7.6229  -19.4994   19.7462 C.ar    1  UNL1        0.0553
      7 C          -8.9489  -19.3422   20.4295 C.ar    1  UNL1        0.1753
      8 F         -10.2044  -19.2368   19.6153 F       1  UNL1       -0.2009
      9 S          -5.0414  -19.7620   19.8772 S.O2    1  UNL1        0.0773
     10 O          -5.0358  -18.2979   19.5512 O.2     1  UNL1       -0.1498
     11 O          -5.0470  -21.2261   20.2031 O.2     1  UNL1       -0.1498
     12 N          -3.7154  -19.9192   19.1939 N.pl3   1  UNL1       -0.1925
     13 H          -3.6301  -20.5168   18.4162 H       1  UNL1        0.1758
     14 C          -2.5193  -19.1658   19.6957 C.ar    1  UNL1        0.1977
     15 N          -1.5659  -18.3660   18.8580 N.ar    1  UNL1       -0.1997
     16 C          -0.5239  -17.7859   19.7677 C.ar    1  UNL1        0.2082
     17 N          -0.8332  -18.2270   21.1677 N.ar    1  UNL1       -0.1840
     18 S          -2.0665  -19.0799   21.1231 S.2     1  UNL1        0.0508
     19 O         -10.3458  -19.1332   22.6101 O.3     1  UNL1       -0.4731
     20 C         -10.4046  -18.9218   24.0940 C.3     1  UNL1        0.2071
     21 C          -7.5949  -16.8186   27.9257 C.3     1  UNL1        0.0896
     22 N          -8.3284  -16.6781   26.6248 N.3     1  UNL1       -0.2714
     23 C          -8.3905  -15.3456   25.9389 C.3     1  UNL1        0.0725
     24 C          -9.1240  -15.2051   24.6381 C.3     1  UNL1        0.0218
     25 C          -9.7954  -16.3972   24.0231 C.3     1  UNL1        0.0287
     26 C          -9.7332  -17.7297   24.7090 C.3     1  UNL1        0.0638
     27 C          -8.9997  -17.8701   26.0098 C.3     1  UNL1        0.0761
     28 C         -10.5288  -16.2567   22.7222 C.ar    1  UNL1       -0.0222
     29 C         -12.0132  -16.4665   22.6717 C.ar    1  UNL1       -0.0034
     30 C         -12.7467  -16.3260   21.3708 C.ar    1  UNL1        0.0111
     31 C         -11.9958  -15.9757   20.1205 C.ar    1  UNL1        0.0577
     32 CL        -12.7293  -15.8353   18.8196 Cl      1  UNL1       -0.0822
     33 C         -10.5115  -15.7659   20.1710 C.ar    1  UNL1        0.0111
     34 C          -9.7780  -15.9064   21.4719 C.ar    1  UNL1       -0.0034
@<TRIPOS>BOND
     1    21    22    1
     2    22    23    1
     3    23    24    1
     4    24    25    1
     5    25    28    1
     6    28    29   ar
     7    29    30   ar
     8    30    31   ar
     9    31    32    1
    10    31    33   ar
    11    33    34   ar
    12    25    26    1
    13    26    20    1
    14    20    19    1
    15    19     1    1
    16     1     2   ar
    17     2     3   ar
    18     3     4    1
    19     3     5   ar
    20     5     9    1
    21     9    10    2
    22     9    11    2
    23     9    12    1
    24    12    14    1
    25    14    15   ar
    26    15    16   ar
    27    16    17   ar
    28    17    18   ar
    29     5     6   ar
    30     6     7   ar
    31     7     8    1
    32    26    27    1
    33    27    22    1
    34    34    28   ar
    35     7     1   ar
    36    18    14   ar
    37    12    13    1
@<TRIPOS>MOLECULE
*****
 34 37 0 0 0
SMALL
GASTEIGER

@<TRIPOS>ATOM
      1 C          -6.9008  -19.3644   21.5885 C.ar    1  UNL1        0.1681
      2 C          -7.3310  -18.6449   22.8323 C.ar    1  UNL1        0.0702
      3 C          -8.7597  -18.2182   22.9957 C.ar    1  UNL1        0.1620
      4 F          -9.1900  -17.4987   24.2396 F       1  UNL1       -0.2026
      5 C          -9.7581  -18.5108   21.9152 C.ar    1  UNL1        0.1549
      6 C          -9.3279  -19.2303   20.6713 C.ar    1  UNL1        0.0553
      7 C          -7.8992  -19.6571   20.5079 C.ar    1  UNL1        0.1753
      8 F          -7.4689  -20.3766   19.2640 F       1  UNL1       -0.2009
      9 S         -11.1869  -18.0840   22.0786 S.O2    1  UNL1        0.0773
     10 O         -11.6230  -19.5174   22.0088 O.2     1  UNL1       -0.1498
     11 O         -10.7507  -16.6505   22.1483 O.2     1  UNL1       -0.1498
     12 N         -12.6155  -17.6572   22.2420 N.pl3   1  UNL1       -0.1925
     13 H         -13.0524  -17.1211   21.5412 H       1  UNL1        0.1758
     14 C         -13.3786  -18.0472   23.4730 C.ar    1  UNL1        0.1977
     15 N         -14.8720  -18.0941   23.6068 N.ar    1  UNL1       -0.1997
     16 C         -15.1987  -18.5347   25.0029 C.ar    1  UNL1        0.2082
     17 N         -13.9073  -18.7602   25.7320 N.ar    1  UNL1       -0.1840
     18 S         -12.7824  -18.4589   24.7864 S.2     1  UNL1        0.0508
     19 O          -5.4721  -19.7912   21.4251 O.3     1  UNL1       -0.4731
     20 C          -4.4255  -19.2873   22.3741 C.3     1  UNL1        0.2071
     21 C          -0.4671  -18.1483   19.2065 C.3     1  UNL1        0.0896
     22 N          -1.4015  -17.7539   20.3117 N.3     1  UNL1       -0.2714
     23 C          -1.2910  -16.3955   20.9382 C.3     1  UNL1        0.0725
     24 C          -2.2254  -16.0010   22.0433 C.3     1  UNL1        0.0218
     25 C          -3.2702  -16.9649   22.5220 C.3     1  UNL1        0.0287
     26 C          -3.3807  -18.3233   21.8955 C.3     1  UNL1        0.0638
     27 C          -2.4463  -18.7178   20.7903 C.3     1  UNL1        0.0761
     28 C          -4.2046  -16.5705   23.6271 C.ar    1  UNL1       -0.0222
     29 C          -5.3595  -15.6567   23.3425 C.ar    1  UNL1       -0.0034
     30 C          -6.2938  -15.2622   24.4476 C.ar    1  UNL1        0.0111
     31 C          -6.0733  -15.7815   25.8374 C.ar    1  UNL1        0.0577
     32 CL         -7.0076  -15.3870   26.9426 Cl      1  UNL1       -0.0822
     33 C          -4.9184  -16.6953   26.1221 C.ar    1  UNL1        0.0111
     34 C          -3.9840  -17.0898   25.0169 C.ar    1  UNL1       -0.0034
@<TRIPOS>BOND
     1    21    22    1
     2    22    23    1
     3    23    24    1
     4    24    25    1
     5    25    28    1
     6    28    29   ar
     7    29    30   ar
     8    30    31   ar
     9    31    32    1
    10    31    33   ar
    11    33    34   ar
    12    25    26    1
    13    26    20    1
    14    20    19    1
    15    19     1    1
    16     1     2   ar
    17     2     3   ar
    18     3     4    1
    19     3     5   ar
    20     5     9    1
    21     9    10    2
    22     9    11    2
    23     9    12    1
    24    12    14    1
    25    14    15   ar
    26    15    16   ar
    27    16    17   ar
    28    17    18   ar
    29     5     6   ar
    30     6     7   ar
    31     7     8    1
    32    26    27    1
    33    27    22    1
    34    34    28   ar
    35     7     1   ar
    36    18    14   ar
    37    12    13    1
@<TRIPOS>MOLECULE
*****
 34 37 0 0 0
SMALL
GASTEIGER

@<TRIPOS>ATOM
      1 C           6.7165   -4.0745   20.3103 C.ar    1  UNL1        0.1681
      2 C           5.3877   -4.5728   19.8244 C.ar    1  UNL1        0.0702
      3 C           4.4511   -3.6407   19.1146 C.ar    1  UNL1        0.1620
      4 F           3.1223   -4.1390   18.6286 F       1  UNL1       -0.2026
      5 C           4.8433   -2.2103   18.8906 C.ar    1  UNL1        0.1549
      6 C           6.1720   -1.7120   19.3764 C.ar    1  UNL1        0.0553
      7 C           7.1086   -2.6441   20.0863 C.ar    1  UNL1        0.1753
      8 F           8.4374   -2.1458   20.5722 F       1  UNL1       -0.2009
      9 S           3.9066   -1.2782   18.1806 S.O2    1  UNL1        0.0773
     10 O           4.8549   -1.2088   17.0206 O.2     1  UNL1       -0.1498
     11 O           2.9583   -1.3476   19.3407 O.2     1  UNL1       -0.1498
     12 N           2.9700   -0.3462   17.4707 N.pl3   1  UNL1       -0.1925
     13 H           2.7830   -0.4718   16.5124 H       1  UNL1        0.1758
     14 C           2.3183    0.7773   18.2210 C.ar    1  UNL1        0.1977
     15 N           0.8480    0.9316   18.4756 N.ar    1  UNL1       -0.1997
     16 C           0.6434    2.1935   19.2604 C.ar    1  UNL1        0.2082
     17 N           1.9871    2.8191   19.4909 N.ar    1  UNL1       -0.1840
     18 S           3.0223    1.9438   18.8485 S.2     1  UNL1        0.0508
     19 O           7.6532   -5.0066   21.0202 O.3     1  UNL1       -0.4731
     20 C           8.4160   -4.5321   22.2214 C.3     1  UNL1        0.2071
     21 C           9.1201   -7.9195   26.0982 C.3     1  UNL1        0.0896
     22 N           8.4068   -6.7309   25.5252 N.3     1  UNL1       -0.2714
     23 C           7.3323   -6.0473   26.3177 C.3     1  UNL1        0.0725
     24 C           6.6190   -4.8586   25.7448 C.3     1  UNL1        0.0218
     25 C           6.9802   -4.3536   24.3793 C.3     1  UNL1        0.0287
     26 C           8.0547   -5.0372   23.5869 C.3     1  UNL1        0.0638
     27 C           8.7680   -6.2258   24.1598 C.3     1  UNL1        0.0761
     28 C           6.2669   -3.1649   23.8064 C.ar    1  UNL1       -0.0222
     29 C           6.9350   -1.8220   23.7972 C.ar    1  UNL1       -0.0034
     30 C           6.2217   -0.6333   23.2242 C.ar    1  UNL1        0.0111
     31 C           4.8403   -0.7876   22.6605 C.ar    1  UNL1        0.0577
     32 CL          4.1270    0.4011   22.0875 Cl      1  UNL1       -0.0822
     33 C           4.1722   -2.1305   22.6697 C.ar    1  UNL1        0.0111
     34 C           4.8855   -3.3192   23.2426 C.ar    1  UNL1       -0.0034
@<TRIPOS>BOND
     1    21    22    1
     2    22    23    1
     3    23    24    1
     4    24    25    1
     5    25    28    1
     6    28    29   ar
     7    29    30   ar
     8    30    31   ar
     9    31    32    1
    10    31    33   ar
    11    33    34   ar
    12    25    26    1
    13    26    20    1
    14    20    19    1
    15    19     1    1
    16     1     2   ar
    17     2     3   ar
    18     3     4    1
    19     3     5   ar
    20     5     9    1
    21     9    10    2
    22     9    11    2
    23     9    12    1
    24    12    14    1
    25    14    15   ar
    26    15    16   ar
    27    16    17   ar
    28    17    18   ar
    29     5     6   ar
    30     6     7   ar
    31     7     8    1
    32    26    27    1
    33    27    22    1
    34    34    28   ar
    35     7     1   ar
    36    18    14   ar
    37    12    13    1
@<TRIPOS>MOLECULE
*****
 34 37 0 0 0
SMALL
GASTEIGER

@<TRIPOS>ATOM
      1 C           3.4455   -1.2573   22.8248 C.ar    1  UNL1        0.1681
      2 C           3.1524   -1.3349   21.3558 C.ar    1  UNL1        0.0702
      3 C           2.1901   -0.3687   20.7310 C.ar    1  UNL1        0.1620
      4 F           1.8970   -0.4462   19.2619 F       1  UNL1       -0.2026
      5 C           1.5209    0.6751   21.5753 C.ar    1  UNL1        0.1549
      6 C           1.8140    0.7526   23.0443 C.ar    1  UNL1        0.0553
      7 C           2.7763   -0.2135   23.6690 C.ar    1  UNL1        0.1753
      8 F           3.0695   -0.1360   25.1381 F       1  UNL1       -0.2009
      9 S           0.5586    1.6413   20.9504 S.O2    1  UNL1        0.0773
     10 O          -0.4282    0.5294   20.7510 O.2     1  UNL1       -0.1498
     11 O           1.5454    2.7532   21.1499 O.2     1  UNL1       -0.1498
     12 N          -0.4038    2.6075   20.3256 N.pl3   1  UNL1       -0.1925
     13 H          -0.2333    2.9564   19.4210 H       1  UNL1        0.1758
     14 C          -1.6258    3.0419   21.0792 C.ar    1  UNL1        0.1977
     15 N          -3.0468    2.8617   20.6337 N.ar    1  UNL1       -0.1997
     16 C          -3.9407    3.4413   21.6897 C.ar    1  UNL1        0.2082
     17 N          -3.0722    3.9797   22.7879 N.ar    1  UNL1       -0.1840
     18 S          -1.6415    3.7328   22.4105 S.2     1  UNL1        0.0508
     19 O           4.4079   -2.2235   23.4496 O.3     1  UNL1       -0.4731
     20 C           4.8005   -3.4714   22.7158 C.3     1  UNL1        0.2071
     21 C           9.1367   -5.5538   24.6808 C.3     1  UNL1        0.0896
     22 N           8.4174   -4.8734   23.5540 N.3     1  UNL1       -0.2714
     23 C           9.1468   -4.5539   22.2828 C.3     1  UNL1        0.0725
     24 C           8.4275   -3.8736   21.1560 C.3     1  UNL1        0.0218
     25 C           6.9787   -3.5128   21.3003 C.3     1  UNL1        0.0287
     26 C           6.2493   -3.8323   22.5714 C.3     1  UNL1        0.0638
     27 C           6.9686   -4.5126   23.6983 C.3     1  UNL1        0.0761
     28 C           6.2594   -2.8324   20.1735 C.ar    1  UNL1       -0.0222
     29 C           5.3193   -3.6132   19.3038 C.ar    1  UNL1       -0.0034
     30 C           4.6000   -2.9329   18.1770 C.ar    1  UNL1        0.0111
     31 C           4.8208   -1.4717   17.9198 C.ar    1  UNL1        0.0577
     32 CL          4.1015   -0.7914   16.7930 Cl      1  UNL1       -0.0822
     33 C           5.7610   -0.6909   18.7895 C.ar    1  UNL1        0.0111
     34 C           6.4803   -1.3713   19.9163 C.ar    1  UNL1       -0.0034
@<TRIPOS>BOND
     1    21    22    1
     2    22    23    1
     3    23    24    1
     4    24    25    1
     5    25    28    1
     6    28    29   ar
     7    29    30   ar
     8    30    31   ar
     9    31    32    1
    10    31    33   ar
    11    33    34   ar
    12    25    26    1
    13    26    20    1
    14    20    19    1
    15    19     1    1
    16     1     2   ar
    17     2     3   ar
    18     3     4    1
    19     3     5   ar
    20     5     9    1
    21     9    10    2
    22     9    11    2
    23     9    12    1
    24    12    14    1
    25    14    15   ar
    26    15    16   ar
    27    16    17   ar
    28    17    18   ar
    29     5     6   ar
    30     6     7   ar
    31     7     8    1
    32    26    27    1
    33    27    22    1
    34    34    28   ar
    35     7     1   ar
    36    18    14   ar
    37    12    13    1
@<TRIPOS>MOLECULE
*****
 34 37 0 0 0
SMALL
GASTEIGER

@<TRIPOS>ATOM
      1 C           5.6909   -3.5259   20.1642 C.ar    1  UNL1        0.1681
      2 C           6.1715   -2.1166   19.9832 C.ar    1  UNL1        0.0702
      3 C           5.2282   -1.0601   19.4895 C.ar    1  UNL1        0.1620
      4 F           5.7089    0.3493   19.3085 F       1  UNL1       -0.2026
      5 C           3.8042   -1.4128   19.1768 C.ar    1  UNL1        0.1549
      6 C           3.3236   -2.8221   19.3577 C.ar    1  UNL1        0.0553
      7 C           4.2669   -3.8787   19.8514 C.ar    1  UNL1        0.1753
      8 F           3.7863   -5.2881   20.0324 F       1  UNL1       -0.2009
      9 S           2.8609   -0.3562   18.6830 S.O2    1  UNL1        0.0773
     10 O           2.2618   -0.2504   20.0541 O.2     1  UNL1       -0.1498
     11 O           3.4599   -0.4619   17.3119 O.2     1  UNL1       -0.1498
     12 N           1.9176    0.7004   18.1894 N.pl3   1  UNL1       -0.1925
     13 H           1.1571    0.4522   17.6155 H       1  UNL1        0.1758
     14 C           2.1329    2.1352   18.5701 C.ar    1  UNL1        0.1977
     15 N           3.4568    2.8351   18.6574 N.ar    1  UNL1       -0.1997
     16 C           3.2043    4.2545   19.0716 C.ar    1  UNL1        0.2082
     17 N           1.7244    4.4319   19.2403 N.ar    1  UNL1       -0.1840
     18 S           1.0622    3.1220   18.9304 S.2     1  UNL1        0.0508
     19 O           6.6342   -4.5825   20.6579 O.3     1  UNL1       -0.4731
     20 C           7.7012   -4.2304   21.6516 C.3     1  UNL1        0.2071
     21 C           8.9888   -7.8157   25.1854 C.3     1  UNL1        0.0896
     22 N           8.2684   -6.5517   24.8202 N.3     1  UNL1       -0.2714
     23 C           7.4715   -5.8164   25.8566 C.3     1  UNL1        0.0725
     24 C           6.7511   -4.5524   25.4913 C.3     1  UNL1        0.0218
     25 C           6.8277   -4.0237   24.0897 C.3     1  UNL1        0.0287
     26 C           7.6246   -4.7590   23.0533 C.3     1  UNL1        0.0638
     27 C           8.3450   -6.0230   23.4186 C.3     1  UNL1        0.0761
     28 C           6.1073   -2.7597   23.7245 C.ar    1  UNL1       -0.0222
     29 C           4.6463   -2.7998   23.3872 C.ar    1  UNL1       -0.0034
     30 C           3.9259   -1.5358   23.0219 C.ar    1  UNL1        0.0111
     31 C           4.6665   -0.2318   22.9940 C.ar    1  UNL1        0.0577
     32 CL          3.9461    1.0322   22.6287 Cl      1  UNL1       -0.0822
     33 C           6.1275   -0.1917   23.3312 C.ar    1  UNL1        0.0111
     34 C           6.8479   -1.4557   23.6965 C.ar    1  UNL1       -0.0034
@<TRIPOS>BOND
     1    21    22    1
     2    22    23    1
     3    23    24    1
     4    24    25    1
     5    25    28    1
     6    28    29   ar
     7    29    30   ar
     8    30    31   ar
     9    31    32    1
    10    31    33   ar
    11    33    34   ar
    12    25    26    1
    13    26    20    1
    14    20    19    1
    15    19     1    1
    16     1     2   ar
    17     2     3   ar
    18     3     4    1
    19     3     5   ar
    20     5     9    1
    21     9    10    2
    22     9    11    2
    23     9    12    1
    24    12    14    1
    25    14    15   ar
    26    15    16   ar
    27    16    17   ar
    28    17    18   ar
    29     5     6   ar
    30     6     7   ar
    31     7     8    1
    32    26    27    1
    33    27    22    1
    34    34    28   ar
    35     7     1   ar
    36    18    14   ar
    37    12    13    1
@<TRIPOS>MOLECULE
*****
 34 37 0 0 0
SMALL
GASTEIGER

@<TRIPOS>ATOM
      1 C           4.5435   -0.0933   22.3348 C.ar    1  UNL1        0.1681
      2 C           5.7114   -0.2999   21.4165 C.ar    1  UNL1        0.0702
      3 C           6.5757   -1.5169   21.5645 C.ar    1  UNL1        0.1620
      4 F           7.7436   -1.7235   20.6462 F       1  UNL1       -0.2026
      5 C           6.2720   -2.5273   22.6308 C.ar    1  UNL1        0.1549
      6 C           5.1041   -2.3207   23.5491 C.ar    1  UNL1        0.0553
      7 C           4.2399   -1.1037   23.4011 C.ar    1  UNL1        0.1753
      8 F           3.0719   -0.8970   24.3194 F       1  UNL1       -0.2009
      9 S           7.1364   -3.7443   22.7788 S.O2    1  UNL1        0.0773
     10 O           8.1524   -2.9319   23.5255 O.2     1  UNL1       -0.1498
     11 O           6.1204   -4.5567   22.0320 O.2     1  UNL1       -0.1498
     12 N           8.0007   -4.9612   22.9268 N.pl3   1  UNL1       -0.1925
     13 H           8.6761   -5.1715   22.2420 H       1  UNL1        0.1758
     14 C           7.8360   -5.8577   24.1180 C.ar    1  UNL1        0.1977
     15 N           7.1377   -5.5043   25.3977 N.ar    1  UNL1       -0.1997
     16 C           7.2107   -6.6932   26.3094 C.ar    1  UNL1        0.2082
     17 N           7.9542   -7.7815   25.5932 N.ar    1  UNL1       -0.1840
     18 S           8.3406   -7.2651   24.2388 S.2     1  UNL1        0.0508
     19 O           3.6791    1.1237   22.1869 O.3     1  UNL1       -0.4731
     20 C           3.7925    1.9795   20.9602 C.3     1  UNL1        0.2071
     21 C          -0.0923    5.1131   19.5148 C.3     1  UNL1        0.0896
     22 N           0.6393    3.8094   19.3920 N.3     1  UNL1       -0.2714
     23 C           0.1601    2.7687   18.4239 C.3     1  UNL1        0.0725
     24 C           0.8917    1.4650   18.3011 C.3     1  UNL1        0.0218
     25 C           2.1025    1.2019   19.1465 C.3     1  UNL1        0.0287
     26 C           2.5816    2.2426   20.1147 C.3     1  UNL1        0.0638
     27 C           1.8500    3.5463   20.2375 C.3     1  UNL1        0.0761
     28 C           2.8340   -0.1018   19.0237 C.ar    1  UNL1       -0.0222
     29 C           3.9535   -0.2435   18.0355 C.ar    1  UNL1       -0.0034
     30 C           4.6851   -1.5472   17.9127 C.ar    1  UNL1        0.0111
     31 C           4.2972   -2.7093   18.7782 C.ar    1  UNL1        0.0577
     32 CL          5.0288   -4.0130   18.6554 Cl      1  UNL1       -0.0822
     33 C           3.1777   -2.5676   19.7665 C.ar    1  UNL1        0.0111
     34 C           2.4462   -1.2639   19.8892 C.ar    1  UNL1       -0.0034
@<TRIPOS>BOND
     1    21    22    1
     2    22    23    1
     3    23    24    1
     4    24    25    1
     5    25    28    1
     6    28    29   ar
     7    29    30   ar
     8    30    31   ar
     9    31    32    1
    10    31    33   ar
    11    33    34   ar
    12    25    26    1
    13    26    20    1
    14    20    19    1
    15    19     1    1
    16     1     2   ar
    17     2     3   ar
    18     3     4    1
    19     3     5   ar
    20     5     9    1
    21     9    10    2
    22     9    11    2
    23     9    12    1
    24    12    14    1
    25    14    15   ar
    26    15    16   ar
    27    16    17   ar
    28    17    18   ar
    29     5     6   ar
    30     6     7   ar
    31     7     8    1
    32    26    27    1
    33    27    22    1
    34    34    28   ar
    35     7     1   ar
    36    18    14   ar
    37    12    13    1
@<TRIPOS>MOLECULE
*****
 34 37 0 0 0
SMALL
GASTEIGER

@<TRIPOS>ATOM
      1 C           2.4807   -1.1008   20.5706 C.ar    1  UNL1        0.1681
      2 C           3.2115   -2.0380   19.6554 C.ar    1  UNL1        0.0702
      3 C           4.4322   -2.7613   20.1418 C.ar    1  UNL1        0.1620
      4 F           5.1631   -3.6986   19.2266 F       1  UNL1       -0.2026
      5 C           4.9221   -2.5475   21.5433 C.ar    1  UNL1        0.1549
      6 C           4.1914   -1.6103   22.4585 C.ar    1  UNL1        0.0553
      7 C           2.9706   -0.8869   21.9721 C.ar    1  UNL1        0.1753
      8 F           2.2398    0.0503   22.8873 F       1  UNL1       -0.2009
      9 S           6.1429   -3.2709   22.0296 S.O2    1  UNL1        0.0773
     10 O           5.3699   -4.5559   22.0585 O.2     1  UNL1       -0.1498
     11 O           6.9160   -1.9858   22.0007 O.2     1  UNL1       -0.1498
     12 N           7.3636   -3.9943   22.5159 N.pl3   1  UNL1       -0.1925
     13 H           8.1973   -3.9596   21.9933 H       1  UNL1        0.1758
     14 C           7.3142   -4.7705   23.7984 C.ar    1  UNL1        0.1977
     15 N           7.7428   -6.1962   23.9833 N.ar    1  UNL1       -0.1997
     16 C           7.5210   -6.5643   25.4204 C.ar    1  UNL1        0.2082
     17 N           6.9553   -5.3662   26.1238 N.ar    1  UNL1       -0.1840
     18 S           6.8275   -4.2576   25.1214 S.2     1  UNL1        0.0508
     19 O           1.2599   -0.3774   20.0843 O.3     1  UNL1       -0.4731
     20 C           1.2538    0.2522   18.7228 C.3     1  UNL1        0.2071
     21 C          -0.8559    4.9868   18.3584 C.3     1  UNL1        0.0896
     22 N           0.3565    4.1046   18.4003 N.3     1  UNL1       -0.2714
     23 C           1.7265    4.7074   18.3020 C.3     1  UNL1        0.0725
     24 C           2.9389    3.8252   18.3439 C.3     1  UNL1        0.0218
     25 C           2.7813    2.3402   18.4842 C.3     1  UNL1        0.0287
     26 C           1.4114    1.7373   18.5825 C.3     1  UNL1        0.0638
     27 C           0.1990    2.6195   18.5406 C.3     1  UNL1        0.0761
     28 C           3.9938    1.4580   18.5262 C.ar    1  UNL1       -0.0222
     29 C           4.3242    0.5812   17.3549 C.ar    1  UNL1       -0.0034
     30 C           5.5366   -0.3010   17.3968 C.ar    1  UNL1        0.0111
     31 C           6.4186   -0.3065   18.6101 C.ar    1  UNL1        0.0577
     32 CL          7.6310   -1.1887   18.6520 Cl      1  UNL1       -0.0822
     33 C           6.0881    0.5703   19.7814 C.ar    1  UNL1        0.0111
     34 C           4.8757    1.4525   19.7394 C.ar    1  UNL1       -0.0034
@<TRIPOS>BOND
     1    21    22    1
     2    22    23    1
     3    23    24    1
     4    24    25    1
     5    25    28    1
     6    28    29   ar
     7    29    30   ar
     8    30    31   ar
     9    31    32    1
    10    31    33   ar
    11    33    34   ar
    12    25    26    1
    13    26    20    1
    14    20    19    1
    15    19     1    1
    16     1     2   ar
    17     2     3   ar
    18     3     4    1
    19     3     5   ar
    20     5     9    1
    21     9    10    2
    22     9    11    2
    23     9    12    1
    24    12    14    1
    25    14    15   ar
    26    15    16   ar
    27    16    17   ar
    28    17    18   ar
    29     5     6   ar
    30     6     7   ar
    31     7     8    1
    32    26    27    1
    33    27    22    1
    34    34    28   ar
    35     7     1   ar
    36    18    14   ar
    37    12    13    1
@<TRIPOS>MOLECULE
*****
 34 37 0 0 0
SMALL
GASTEIGER

@<TRIPOS>ATOM
      1 C           5.9594    0.3327   20.9544 C.ar    1  UNL1        0.1681
      2 C           5.5567   -0.1860   22.3030 C.ar    1  UNL1        0.0702
      3 C           6.0524   -1.5220   22.7713 C.ar    1  UNL1        0.1620
      4 F           5.6496   -2.0408   24.1199 F       1  UNL1       -0.2026
      5 C           6.9508   -2.3393   21.8911 C.ar    1  UNL1        0.1549
      6 C           7.3536   -1.8206   20.5425 C.ar    1  UNL1        0.0553
      7 C           6.8579   -0.4846   20.0742 C.ar    1  UNL1        0.1753
      8 F           7.2607    0.0342   18.7255 F       1  UNL1       -0.2009
      9 S           7.4466   -3.6753   22.3595 S.O2    1  UNL1        0.0773
     10 O           8.7548   -3.0534   22.7488 O.2     1  UNL1       -0.1498
     11 O           6.1383   -4.2973   21.9702 O.2     1  UNL1       -0.1498
     12 N           7.9423   -5.0113   22.8279 N.pl3   1  UNL1       -0.1925
     13 H           8.4755   -5.5777   22.2245 H       1  UNL1        0.1758
     14 C           7.6257   -5.4842   24.2157 C.ar    1  UNL1        0.1977
     15 N           6.8663   -4.7166   25.2570 N.ar    1  UNL1       -0.1997
     16 C           6.7841   -5.5657   26.4908 C.ar    1  UNL1        0.2082
     17 N           7.4927   -6.8582   26.2121 N.ar    1  UNL1       -0.1840
     18 S           8.0128   -6.8077   24.8059 S.2     1  UNL1        0.0508
     19 O           5.4637    1.6687   20.4860 O.3     1  UNL1       -0.4731
     20 C           4.9500    1.8293   19.0859 C.3     1  UNL1        0.2071
     21 C           0.8248    4.9228   18.4431 C.3     1  UNL1        0.0896
     22 N           1.4174    3.5470   18.5199 N.3     1  UNL1       -0.2714
     23 C           0.5399    2.3420   18.3522 C.3     1  UNL1        0.0725
     24 C           1.1325    0.9662   18.4291 C.3     1  UNL1        0.0218
     25 C           2.6025    0.7953   18.6736 C.3     1  UNL1        0.0287
     26 C           3.4799    2.0002   18.8413 C.3     1  UNL1        0.0638
     27 C           2.8874    3.3761   18.7645 C.3     1  UNL1        0.0761
     28 C           3.1950   -0.5806   18.7504 C.ar    1  UNL1       -0.0222
     29 C           4.0740   -1.0815   17.6431 C.ar    1  UNL1       -0.0034
     30 C           4.6666   -2.4574   17.7199 C.ar    1  UNL1        0.0111
     31 C           4.3801   -3.3323   18.9041 C.ar    1  UNL1        0.0577
     32 CL          4.9727   -4.7082   18.9809 Cl      1  UNL1       -0.0822
     33 C           3.5011   -2.8314   20.0115 C.ar    1  UNL1        0.0111
     34 C           2.9086   -1.4555   19.9347 C.ar    1  UNL1       -0.0034
@<TRIPOS>BOND
     1    21    22    1
     2    22    23    1
     3    23    24    1
     4    24    25    1
     5    25    28    1
     6    28    29   ar
     7    29    30   ar
     8    30    31   ar
     9    31    32    1
    10    31    33   ar
    11    33    34   ar
    12    25    26    1
    13    26    20    1
    14    20    19    1
    15    19     1    1
    16     1     2   ar
    17     2     3   ar
    18     3     4    1
    19     3     5   ar
    20     5     9    1
    21     9    10    2
    22     9    11    2
    23     9    12    1
    24    12    14    1
    25    14    15   ar
    26    15    16   ar
    27    16    17   ar
    28    17    18   ar
    29     5     6   ar
    30     6     7   ar
    31     7     8    1
    32    26    27    1
    33    27    22    1
    34    34    28   ar
    35     7     1   ar
    36    18    14   ar
    37    12    13    1
