@<TRIPOS>MOLECULE
*****
 35 38 0 0 0
SMALL
GASTEIGER

@<TRIPOS>ATOM
      1 C           7.4007   -8.0144   26.5275 C.ar    1  UNL1        0.0908
      2 C           8.8212   -8.0220   26.0456 C.ar    1  UNL1        0.1363
      3 N           9.2174   -6.6062   25.7484 N.ar    1  UNL1       -0.1660
      4 N           8.0418   -5.7235   26.0466 N.ar    1  UNL1       -0.2436
      5 C           6.9190   -6.5939   26.5281 C.ar    1  UNL1        0.1117
      6 O           8.7273  -10.2658   28.0013 O.2     1  UNL1       -0.2680
      7 C           7.2654  -10.3420   27.6739 C.2     1  UNL1        0.2706
      8 N           6.6021   -9.2164   26.9370 N.am    1  UNL1       -0.2766
      9 H           5.6427   -9.2664   26.7221 H       1  UNL1        0.1553
     10 C           6.4669  -11.5440   28.0834 C.ar    1  UNL1        0.1764
     11 C           4.9880  -11.7222   27.9060 C.ar    1  UNL1        0.0688
     12 C           4.6141  -13.0671   28.4551 C.ar    1  UNL1        0.1945
     13 O           5.8618  -13.7200   28.9718 O.2     1  UNL1       -0.3517
     14 N           7.0069  -12.7787   28.7421 N.ar    1  UNL1       -0.0722
     15 C           3.2347  -13.6557   28.4826 C.ar    1  UNL1        0.1184
     16 C           2.0387  -12.7584   28.6033 C.ar    1  UNL1        0.0223
     17 C           0.6593  -13.3470   28.6308 C.ar    1  UNL1        0.0032
     18 C           0.4759  -14.8328   28.5377 C.ar    1  UNL1        0.0207
     19 C           1.6718  -15.7300   28.4171 C.ar    1  UNL1        0.0989
     20 N           3.0513  -15.1415   28.3896 N.ar    1  UNL1       -0.2407
     21 C           7.9968   -4.2324   25.8906 C.3     1  UNL1        0.1538
     22 C           6.8919   -3.5937   25.1023 C.ar    1  UNL1        0.0060
     23 C           6.5857   -4.0744   23.7148 C.ar    1  UNL1       -0.0024
     24 C           5.4809   -3.4358   22.9265 C.ar    1  UNL1        0.0036
     25 C           4.6822   -2.3164   23.5258 C.ar    1  UNL1        0.0714
     26 C           4.9884   -1.8357   24.9132 C.ar    1  UNL1        0.0074
     27 C           6.0933   -2.4743   25.7015 C.ar    1  UNL1        0.0693
     28 C           3.5773   -1.6777   22.7375 C.3     1  UNL1        0.4186
     29 F           2.4725   -1.0390   21.9492 F       1  UNL1       -0.1659
     30 F           4.0426   -2.3944   21.5047 F       1  UNL1       -0.1659
     31 F           3.1120   -0.9610   23.9702 F       1  UNL1       -0.1659
     32 C           6.3994   -1.9936   27.0890 C.3     1  UNL1        0.4183
     33 F           6.7056   -1.5128   28.4765 F       1  UNL1       -0.1659
     34 F           7.3906   -1.0154   26.5314 F       1  UNL1       -0.1659
     35 F           5.4083   -2.9717   27.6466 F       1  UNL1       -0.1659
@<TRIPOS>BOND
     1     6     7    2
     2     7     8   am
     3     8     1    1
     4     1     2   ar
     5     2     3   ar
     6     3     4   ar
     7     4    21    1
     8    21    22    1
     9    22    23   ar
    10    23    24   ar
    11    24    25   ar
    12    25    28    1
    13    28    29    1
    14    28    30    1
    15    28    31    1
    16    25    26   ar
    17    26    27   ar
    18    27    32    1
    19    32    33    1
    20    32    34    1
    21    32    35    1
    22     4     5   ar
    23     7    10    1
    24    10    11   ar
    25    11    12   ar
    26    12    15    1
    27    15    16   ar
    28    16    17   ar
    29    17    18   ar
    30    18    19   ar
    31    19    20   ar
    32    12    13   ar
    33    13    14   ar
    34     5     1   ar
    35    14    10   ar
    36    27    22   ar
    37    20    15   ar
    38     8     9    1
@<TRIPOS>MOLECULE
*****
 35 38 0 0 0
SMALL
GASTEIGER

@<TRIPOS>ATOM
      1 C           7.7932   -8.1935   26.9292 C.ar    1  UNL1        0.0908
      2 C           8.5870   -8.0412   25.6654 C.ar    1  UNL1        0.1363
      3 N           9.3160   -6.7319   25.7310 N.ar    1  UNL1       -0.1660
      4 N           8.9728   -6.0750   27.0351 N.ar    1  UNL1       -0.2436
      5 C           8.0317   -6.9783   27.7756 C.ar    1  UNL1        0.1117
      6 O           8.9988  -10.6843   28.0878 O.2     1  UNL1       -0.2680
      7 C           7.5179  -10.6021   27.8634 C.2     1  UNL1        0.2706
      8 N           6.9152   -9.3567   27.2840 N.am    1  UNL1       -0.2766
      9 H           5.9432   -9.3028   27.1367 H       1  UNL1        0.1553
     10 C           6.6399  -11.7654   28.2183 C.ar    1  UNL1        0.1764
     11 C           5.1597  -11.8539   27.9923 C.ar    1  UNL1        0.0688
     12 C           4.6929  -13.1875   28.4958 C.ar    1  UNL1        0.1945
     13 O           5.8846  -13.9232   29.0330 O.2     1  UNL1       -0.3517
     14 N           7.0879  -13.0443   28.8615 N.ar    1  UNL1       -0.0722
     15 C           3.2821  -13.6962   28.4671 C.ar    1  UNL1        0.1184
     16 C           2.1356  -12.7290   28.4819 C.ar    1  UNL1        0.0223
     17 C           0.7248  -13.2376   28.4533 C.ar    1  UNL1        0.0032
     18 C           0.4604  -14.7135   28.4098 C.ar    1  UNL1        0.0207
     19 C           1.6067  -15.6806   28.3950 C.ar    1  UNL1        0.0989
     20 N           3.0177  -15.1720   28.4236 N.ar    1  UNL1       -0.2407
     21 C           9.4815   -4.7479   27.5145 C.3     1  UNL1        0.1538
     22 C           8.8909   -4.1167   28.7405 C.ar    1  UNL1        0.0060
     23 C           9.5360   -4.3286   30.0780 C.ar    1  UNL1       -0.0024
     24 C           8.9454   -3.6974   31.3039 C.ar    1  UNL1        0.0036
     25 C           7.7098   -2.8545   31.1923 C.ar    1  UNL1        0.0714
     26 C           7.0647   -2.6426   29.8548 C.ar    1  UNL1        0.0074
     27 C           7.6552   -3.2737   28.6289 C.ar    1  UNL1        0.0693
     28 C           7.1192   -2.2233   32.4182 C.3     1  UNL1        0.4186
     29 F           6.5286   -1.5922   33.6441 F       1  UNL1       -0.1659
     30 F           6.0303   -3.2548   32.4247 F       1  UNL1       -0.1659
     31 F           8.2081   -1.1917   32.4118 F       1  UNL1       -0.1659
     32 C           7.0101   -3.0619   27.2913 C.3     1  UNL1        0.4183
     33 F           6.3650   -2.8500   25.9538 F       1  UNL1       -0.1659
     34 F           6.1622   -4.2802   27.5073 F       1  UNL1       -0.1659
     35 F           7.8581   -1.8435   27.0753 F       1  UNL1       -0.1659
@<TRIPOS>BOND
     1     6     7    2
     2     7     8   am
     3     8     1    1
     4     1     2   ar
     5     2     3   ar
     6     3     4   ar
     7     4    21    1
     8    21    22    1
     9    22    23   ar
    10    23    24   ar
    11    24    25   ar
    12    25    28    1
    13    28    29    1
    14    28    30    1
    15    28    31    1
    16    25    26   ar
    17    26    27   ar
    18    27    32    1
    19    32    33    1
    20    32    34    1
    21    32    35    1
    22     4     5   ar
    23     7    10    1
    24    10    11   ar
    25    11    12   ar
    26    12    15    1
    27    15    16   ar
    28    16    17   ar
    29    17    18   ar
    30    18    19   ar
    31    19    20   ar
    32    12    13   ar
    33    13    14   ar
    34     5     1   ar
    35    14    10   ar
    36    27    22   ar
    37    20    15   ar
    38     8     9    1
@<TRIPOS>MOLECULE
*****
 35 38 0 0 0
SMALL
GASTEIGER

@<TRIPOS>ATOM
      1 C           7.7346   -8.0869   26.7452 C.ar    1  UNL1        0.0908
      2 C           8.9668   -8.1207   25.8904 C.ar    1  UNL1        0.1363
      3 N           9.4902   -6.7196   25.7761 N.ar    1  UNL1       -0.1660
      4 N           8.5815   -5.8200   26.5602 N.ar    1  UNL1       -0.2436
      5 C           7.4965   -6.6650   27.1591 C.ar    1  UNL1        0.1117
      6 O           8.9856  -10.4638   28.0816 O.2     1  UNL1       -0.2680
      7 C           7.5145  -10.4562   27.7883 C.2     1  UNL1        0.2706
      8 N           6.8890   -9.2678   27.1201 N.am    1  UNL1       -0.2766
      9 H           5.9235   -9.2628   26.9277 H       1  UNL1        0.1553
     10 C           6.6690  -11.6371   28.1633 C.ar    1  UNL1        0.1764
     11 C           5.1873  -11.7595   27.9638 C.ar    1  UNL1        0.0688
     12 C           4.7592  -13.1009   28.4808 C.ar    1  UNL1        0.1945
     13 O           5.9763  -13.8076   28.9998 O.2     1  UNL1       -0.3517
     14 N           7.1566  -12.9029   28.8036 N.ar    1  UNL1       -0.0722
     15 C           3.3598  -13.6409   28.4790 C.ar    1  UNL1        0.1184
     16 C           2.1971  -12.7114   28.6640 C.ar    1  UNL1        0.0223
     17 C           0.7976  -13.2514   28.6622 C.ar    1  UNL1        0.0032
     18 C           0.5609  -14.7207   28.4756 C.ar    1  UNL1        0.0207
     19 C           1.7236  -15.6501   28.2906 C.ar    1  UNL1        0.0989
     20 N           3.1231  -15.1102   28.2924 N.ar    1  UNL1       -0.2407
     21 C           8.7314   -4.3359   26.7178 C.3     1  UNL1        0.1538
     22 C           7.5171   -3.4551   26.7179 C.ar    1  UNL1        0.0060
     23 C           6.9203   -3.0006   25.4190 C.ar    1  UNL1       -0.0024
     24 C           5.7061   -2.1199   25.4190 C.ar    1  UNL1        0.0036
     25 C           5.0887   -1.6938   26.7179 C.ar    1  UNL1        0.0714
     26 C           5.6855   -2.1483   28.0168 C.ar    1  UNL1        0.0074
     27 C           6.8997   -3.0290   28.0168 C.ar    1  UNL1        0.0693
     28 C           3.8744   -0.8131   26.7180 C.3     1  UNL1        0.4186
     29 F           2.6602    0.0676   26.7181 F       1  UNL1       -0.1659
     30 F           4.2325   -0.3196   28.0884 F       1  UNL1       -0.1659
     31 F           3.5164   -1.3065   25.3475 F       1  UNL1       -0.1659
     32 C           7.4966   -3.4836   29.3157 C.3     1  UNL1        0.4183
     33 F           8.0934   -3.9382   30.6146 F       1  UNL1       -0.1659
     34 F           6.4618   -4.5652   29.4127 F       1  UNL1       -0.1659
     35 F           8.5314   -2.4020   29.2187 F       1  UNL1       -0.1659
@<TRIPOS>BOND
     1     6     7    2
     2     7     8   am
     3     8     1    1
     4     1     2   ar
     5     2     3   ar
     6     3     4   ar
     7     4    21    1
     8    21    22    1
     9    22    23   ar
    10    23    24   ar
    11    24    25   ar
    12    25    28    1
    13    28    29    1
    14    28    30    1
    15    28    31    1
    16    25    26   ar
    17    26    27   ar
    18    27    32    1
    19    32    33    1
    20    32    34    1
    21    32    35    1
    22     4     5   ar
    23     7    10    1
    24    10    11   ar
    25    11    12   ar
    26    12    15    1
    27    15    16   ar
    28    16    17   ar
    29    17    18   ar
    30    18    19   ar
    31    19    20   ar
    32    12    13   ar
    33    13    14   ar
    34     5     1   ar
    35    14    10   ar
    36    27    22   ar
    37    20    15   ar
    38     8     9    1
@<TRIPOS>MOLECULE
*****
 35 38 0 0 0
SMALL
GASTEIGER

@<TRIPOS>ATOM
      1 C           6.9235   -3.1379   25.2748 C.ar    1  UNL1        0.0908
      2 C           8.1113   -2.7876   24.4282 C.ar    1  UNL1        0.1363
      3 N           7.7464   -3.0320   22.9939 N.ar    1  UNL1       -0.1660
      4 N           6.3332   -3.5333   22.9541 N.ar    1  UNL1       -0.2436
      5 C           5.8246   -3.5988   24.3637 C.ar    1  UNL1        0.1117
      6 O           6.7713   -5.6360   26.9291 O.2     1  UNL1       -0.2680
      7 C           6.7718   -4.2928   27.5971 C.2     1  UNL1        0.2706
      8 N           6.8479   -3.0438   26.7699 N.am    1  UNL1       -0.2766
      9 H           6.8483   -2.1623   27.2083 H       1  UNL1        0.1553
     10 C           6.6963   -4.1989   29.0923 C.ar    1  UNL1        0.1764
     11 C           6.3321   -2.9763   29.8815 C.ar    1  UNL1        0.0688
     12 C           6.3823   -3.3327   31.3377 C.ar    1  UNL1        0.1945
     13 O           6.7775   -4.7755   31.4484 O.2     1  UNL1       -0.3517
     14 N           6.9715   -5.3108   30.0607 N.ar    1  UNL1       -0.0722
     15 C           6.0889   -2.4086   32.4821 C.ar    1  UNL1        0.1184
     16 C           4.7257   -2.3990   33.1079 C.ar    1  UNL1        0.0223
     17 C           4.4323   -1.4749   34.2524 C.ar    1  UNL1        0.0032
     18 C           5.5021   -0.5603   34.7711 C.ar    1  UNL1        0.0207
     19 C           6.8652   -0.5698   34.1454 C.ar    1  UNL1        0.0989
     20 N           7.1587   -1.4940   33.0009 N.ar    1  UNL1       -0.2407
     21 C           5.5637   -3.9041   21.7211 C.3     1  UNL1        0.1538
     22 C           4.5302   -2.9660   21.1715 C.ar    1  UNL1        0.0060
     23 C           4.0897   -1.7800   21.9774 C.ar    1  UNL1       -0.0024
     24 C           3.0563   -0.8419   21.4279 C.ar    1  UNL1        0.0036
     25 C           2.4633   -1.0898   20.0726 C.ar    1  UNL1        0.0714
     26 C           2.9038   -2.2758   19.2668 C.ar    1  UNL1        0.0074
     27 C           3.9372   -3.2139   19.8162 C.ar    1  UNL1        0.0693
     28 C           1.4298   -0.1516   19.5231 C.3     1  UNL1        0.4186
     29 F           0.3963    0.7864   18.9737 F       1  UNL1       -0.1659
     30 F           0.4372   -0.6567   20.5279 F       1  UNL1       -0.1659
     31 F           2.4224    0.3534   18.5184 F       1  UNL1       -0.1659
     32 C           4.3777   -4.3999   19.0104 C.3     1  UNL1        0.4183
     33 F           4.8181   -5.5859   18.2045 F       1  UNL1       -0.1659
     34 F           5.4311   -3.5603   18.3505 F       1  UNL1       -0.1659
     35 F           3.3243   -5.2394   19.6703 F       1  UNL1       -0.1659
@<TRIPOS>BOND
     1     6     7    2
     2     7     8   am
     3     8     1    1
     4     1     2   ar
     5     2     3   ar
     6     3     4   ar
     7     4    21    1
     8    21    22    1
     9    22    23   ar
    10    23    24   ar
    11    24    25   ar
    12    25    28    1
    13    28    29    1
    14    28    30    1
    15    28    31    1
    16    25    26   ar
    17    26    27   ar
    18    27    32    1
    19    32    33    1
    20    32    34    1
    21    32    35    1
    22     4     5   ar
    23     7    10    1
    24    10    11   ar
    25    11    12   ar
    26    12    15    1
    27    15    16   ar
    28    16    17   ar
    29    17    18   ar
    30    18    19   ar
    31    19    20   ar
    32    12    13   ar
    33    13    14   ar
    34     5     1   ar
    35    14    10   ar
    36    27    22   ar
    37    20    15   ar
    38     8     9    1
@<TRIPOS>MOLECULE
*****
 35 38 0 0 0
SMALL
GASTEIGER

@<TRIPOS>ATOM
      1 C           1.5218    0.7842   25.2840 C.ar    1  UNL1        0.0908
      2 C           0.3992    1.3025   24.4347 C.ar    1  UNL1        0.1363
      3 N           0.8853    1.3745   23.0175 N.ar    1  UNL1       -0.1660
      4 N           2.3083    0.9007   22.9909 N.ar    1  UNL1       -0.2436
      5 C           2.7016    0.5358   24.3916 C.ar    1  UNL1        0.1117
      6 O           2.3764    2.9571   27.1677 O.2     1  UNL1       -0.2680
      7 C           1.9003    1.6410   27.7074 C.2     1  UNL1        0.2706
      8 N           1.4730    0.5545   26.7655 N.am    1  UNL1       -0.2766
      9 H           1.1606   -0.3093   27.1197 H       1  UNL1        0.1553
     10 C           1.8516    1.4114   29.1889 C.ar    1  UNL1        0.1764
     11 C           2.9454    0.8161   30.0252 C.ar    1  UNL1        0.0688
     12 C           2.4705    0.7736   31.4474 C.ar    1  UNL1        0.1945
     13 O           1.0832    1.3425   31.4900 O.2     1  UNL1       -0.3517
     14 N           0.7007    1.7367   30.0942 N.ar    1  UNL1       -0.0722
     15 C           3.2465    0.2535   32.6209 C.ar    1  UNL1        0.1184
     16 C           3.5788    1.1658   33.7642 C.ar    1  UNL1        0.0223
     17 C           4.3549    0.6457   34.9377 C.ar    1  UNL1        0.0032
     18 C           4.7987   -0.7868   34.9679 C.ar    1  UNL1        0.0207
     19 C           4.4665   -1.6992   33.8246 C.ar    1  UNL1        0.0989
     20 N           3.6904   -1.1790   32.6510 N.ar    1  UNL1       -0.2407
     21 C           3.1841    0.8079   21.7767 C.3     1  UNL1        0.1538
     22 C           3.4842   -0.5302   21.1688 C.ar    1  UNL1        0.0060
     23 C           4.5822   -1.3815   21.7342 C.ar    1  UNL1       -0.0024
     24 C           4.8824   -2.7195   21.1264 C.ar    1  UNL1        0.0036
     25 C           4.0846   -3.2063   19.9532 C.ar    1  UNL1        0.0714
     26 C           2.9866   -2.3550   19.3878 C.ar    1  UNL1        0.0074
     27 C           2.6864   -1.0169   19.9956 C.ar    1  UNL1        0.0693
     28 C           4.3847   -4.5444   19.3453 C.3     1  UNL1        0.4186
     29 F           4.6849   -5.8824   18.7375 F       1  UNL1       -0.1659
     30 F           5.7886   -4.4668   19.8678 F       1  UNL1       -0.1659
     31 F           2.9808   -4.6220   18.8228 F       1  UNL1       -0.1659
     32 C           1.5884   -0.1656   19.4301 C.3     1  UNL1        0.4183
     33 F           0.4904    0.6857   18.8647 F       1  UNL1       -0.1659
     34 F           2.5592    0.4437   18.4625 F       1  UNL1       -0.1659
     35 F           0.6177   -0.7750   20.3978 F       1  UNL1       -0.1659
@<TRIPOS>BOND
     1     6     7    2
     2     7     8   am
     3     8     1    1
     4     1     2   ar
     5     2     3   ar
     6     3     4   ar
     7     4    21    1
     8    21    22    1
     9    22    23   ar
    10    23    24   ar
    11    24    25   ar
    12    25    28    1
    13    28    29    1
    14    28    30    1
    15    28    31    1
    16    25    26   ar
    17    26    27   ar
    18    27    32    1
    19    32    33    1
    20    32    34    1
    21    32    35    1
    22     4     5   ar
    23     7    10    1
    24    10    11   ar
    25    11    12   ar
    26    12    15    1
    27    15    16   ar
    28    16    17   ar
    29    17    18   ar
    30    18    19   ar
    31    19    20   ar
    32    12    13   ar
    33    13    14   ar
    34     5     1   ar
    35    14    10   ar
    36    27    22   ar
    37    20    15   ar
    38     8     9    1
@<TRIPOS>MOLECULE
*****
 35 38 0 0 0
SMALL
GASTEIGER

@<TRIPOS>ATOM
      1 C           7.8309   -8.1180   26.8384 C.ar    1  UNL1        0.0908
      2 C           8.7655   -8.0525   25.6669 C.ar    1  UNL1        0.1363
      3 N           9.4241   -6.7048   25.6743 N.ar    1  UNL1       -0.1660
      4 N           8.8964   -5.9375   26.8502 N.ar    1  UNL1       -0.2436
      5 C           7.9118   -6.8109   27.5696 C.ar    1  UNL1        0.1117
      6 O           9.0613  -10.5587   28.0750 O.2     1  UNL1       -0.2680
      7 C           7.5821  -10.5061   27.8311 C.2     1  UNL1        0.2706
      8 N           6.9670   -9.2857   27.2128 N.am    1  UNL1       -0.2766
      9 H           5.9962   -9.2512   27.0527 H       1  UNL1        0.1553
     10 C           6.7183  -11.6738   28.2055 C.ar    1  UNL1        0.1764
     11 C           5.2341  -11.7707   28.0110 C.ar    1  UNL1        0.0688
     12 C           4.7855  -13.1064   28.5254 C.ar    1  UNL1        0.1945
     13 O           5.9923  -13.8350   29.0379 O.2     1  UNL1       -0.3517
     14 N           7.1869  -12.9496   28.8402 N.ar    1  UNL1       -0.0722
     15 C           3.3772  -13.6228   28.5271 C.ar    1  UNL1        0.1184
     16 C           2.2354  -12.6868   28.7921 C.ar    1  UNL1        0.0223
     17 C           0.8271  -13.2033   28.7938 C.ar    1  UNL1        0.0032
     18 C           0.5606  -14.6557   28.5304 C.ar    1  UNL1        0.0207
     19 C           1.7023  -15.5917   28.2653 C.ar    1  UNL1        0.0989
     20 N           3.1107  -15.0753   28.2636 N.ar    1  UNL1       -0.2407
     21 C           9.2852   -4.5418   27.2385 C.3     1  UNL1        0.1538
     22 C           8.2331   -3.5612   27.6646 C.ar    1  UNL1        0.0060
     23 C           8.1582   -3.1158   29.0950 C.ar    1  UNL1       -0.0024
     24 C           7.1061   -2.1353   29.5212 C.ar    1  UNL1        0.0036
     25 C           6.1289   -1.6001   28.5169 C.ar    1  UNL1        0.0714
     26 C           6.2038   -2.0454   27.0865 C.ar    1  UNL1        0.0074
     27 C           7.2559   -3.0260   26.6603 C.ar    1  UNL1        0.0693
     28 C           5.0767   -0.6195   28.9430 C.3     1  UNL1        0.4186
     29 F           4.0247    0.3610   29.3690 F       1  UNL1       -0.1659
     30 F           5.2995    0.1662   27.6848 F       1  UNL1       -0.1659
     31 F           4.8540   -1.4052   30.2012 F       1  UNL1       -0.1659
     32 C           7.3308   -3.4713   25.2299 C.3     1  UNL1        0.4183
     33 F           7.4057   -3.9166   23.7995 F       1  UNL1       -0.1659
     34 F           8.3081   -2.3713   24.9386 F       1  UNL1       -0.1659
     35 F           6.3534   -4.5713   25.5212 F       1  UNL1       -0.1659
@<TRIPOS>BOND
     1     6     7    2
     2     7     8   am
     3     8     1    1
     4     1     2   ar
     5     2     3   ar
     6     3     4   ar
     7     4    21    1
     8    21    22    1
     9    22    23   ar
    10    23    24   ar
    11    24    25   ar
    12    25    28    1
    13    28    29    1
    14    28    30    1
    15    28    31    1
    16    25    26   ar
    17    26    27   ar
    18    27    32    1
    19    32    33    1
    20    32    34    1
    21    32    35    1
    22     4     5   ar
    23     7    10    1
    24    10    11   ar
    25    11    12   ar
    26    12    15    1
    27    15    16   ar
    28    16    17   ar
    29    17    18   ar
    30    18    19   ar
    31    19    20   ar
    32    12    13   ar
    33    13    14   ar
    34     5     1   ar
    35    14    10   ar
    36    27    22   ar
    37    20    15   ar
    38     8     9    1
@<TRIPOS>MOLECULE
*****
 35 38 0 0 0
SMALL
GASTEIGER

@<TRIPOS>ATOM
      1 C           1.2922    0.9811   24.9712 C.ar    1  UNL1        0.0908
      2 C           0.2737    1.3967   23.9514 C.ar    1  UNL1        0.1363
      3 N           0.9324    1.3773   22.6039 N.ar    1  UNL1       -0.1660
      4 N           2.3580    0.9496   22.7909 N.ar    1  UNL1       -0.2436
      5 C           2.5803    0.7047   24.2540 C.ar    1  UNL1        0.1117
      6 O           0.7492    3.4369   26.6066 O.2     1  UNL1       -0.2680
      7 C           0.7913    2.0904   27.2665 C.2     1  UNL1        0.2706
      8 N           1.0629    0.8626   26.4488 N.am    1  UNL1       -0.2766
      9 H           1.0905   -0.0211   26.8820 H       1  UNL1        0.1553
     10 C           0.5619    1.9720   28.7442 C.ar    1  UNL1        0.1764
     11 C           1.2583    2.7644   29.8107 C.ar    1  UNL1        0.0688
     12 C           0.7227    2.3226   31.1404 C.ar    1  UNL1        0.1945
     13 O          -0.3046    1.2573   30.8956 O.2     1  UNL1       -0.3517
     14 N          -0.4039    1.0407   29.4147 N.ar    1  UNL1       -0.0722
     15 C           1.1410    2.8531   32.4796 C.ar    1  UNL1        0.1184
     16 C           0.6562    4.1962   32.9391 C.ar    1  UNL1        0.0223
     17 C           1.0745    4.7266   34.2784 C.ar    1  UNL1        0.0032
     18 C           1.9775    3.9140   35.1582 C.ar    1  UNL1        0.0207
     19 C           2.4623    2.5709   34.6988 C.ar    1  UNL1        0.0989
     20 N           2.0440    2.0404   33.3595 N.ar    1  UNL1       -0.2407
     21 C           3.3814    0.7940   21.7054 C.3     1  UNL1        0.1538
     22 C           3.6455   -0.5580   21.1118 C.ar    1  UNL1        0.0060
     23 C           4.7585   -1.4084   21.6485 C.ar    1  UNL1       -0.0024
     24 C           5.0227   -2.7603   21.0549 C.ar    1  UNL1        0.0036
     25 C           4.1738   -3.2619   19.9245 C.ar    1  UNL1        0.0714
     26 C           3.0609   -2.4115   19.3877 C.ar    1  UNL1        0.0074
     27 C           2.7967   -1.0595   19.9814 C.ar    1  UNL1        0.0693
     28 C           4.4380   -4.6139   19.3308 C.3     1  UNL1        0.4186
     29 F           4.7021   -5.9658   18.7372 F       1  UNL1       -0.1659
     30 F           5.8785   -4.5102   19.7357 F       1  UNL1       -0.1659
     31 F           2.9974   -4.7175   18.9259 F       1  UNL1       -0.1659
     32 C           1.6837   -0.2092   19.4446 C.3     1  UNL1        0.4183
     33 F           0.5708    0.6412   18.9078 F       1  UNL1       -0.1659
     34 F           2.6500    0.4734   18.5224 F       1  UNL1       -0.1659
     35 F           0.7175   -0.8917   20.3667 F       1  UNL1       -0.1659
@<TRIPOS>BOND
     1     6     7    2
     2     7     8   am
     3     8     1    1
     4     1     2   ar
     5     2     3   ar
     6     3     4   ar
     7     4    21    1
     8    21    22    1
     9    22    23   ar
    10    23    24   ar
    11    24    25   ar
    12    25    28    1
    13    28    29    1
    14    28    30    1
    15    28    31    1
    16    25    26   ar
    17    26    27   ar
    18    27    32    1
    19    32    33    1
    20    32    34    1
    21    32    35    1
    22     4     5   ar
    23     7    10    1
    24    10    11   ar
    25    11    12   ar
    26    12    15    1
    27    15    16   ar
    28    16    17   ar
    29    17    18   ar
    30    18    19   ar
    31    19    20   ar
    32    12    13   ar
    33    13    14   ar
    34     5     1   ar
    35    14    10   ar
    36    27    22   ar
    37    20    15   ar
    38     8     9    1
@<TRIPOS>MOLECULE
*****
 35 38 0 0 0
SMALL
GASTEIGER

@<TRIPOS>ATOM
      1 C           4.0935    0.6784   26.2391 C.ar    1  UNL1        0.0908
      2 C           5.3095    1.0108   25.4261 C.ar    1  UNL1        0.1363
      3 N           4.9692    0.8088   23.9793 N.ar    1  UNL1       -0.1660
      4 N           3.5429    0.3516   23.8980 N.ar    1  UNL1       -0.2436
      5 C           3.0017    0.2710   25.2946 C.ar    1  UNL1        0.1117
      6 O           3.6852   -1.8368   27.8226 O.2     1  UNL1       -0.2680
      7 C           3.7837   -0.5154   28.5258 C.2     1  UNL1        0.2706
      8 N           3.9878    0.7421   27.7340 N.am    1  UNL1       -0.2766
      9 H           4.0524    1.6094   28.1955 H       1  UNL1        0.1553
     10 C           3.6780   -0.4517   30.0207 C.ar    1  UNL1        0.1764
     11 C           4.7692   -0.0421   30.9650 C.ar    1  UNL1        0.0688
     12 C           4.2283   -0.1236   32.3617 C.ar    1  UNL1        0.1945
     13 O           2.8028   -0.5836   32.2806 O.2     1  UNL1       -0.3517
     14 N           2.4628   -0.7863   30.8338 N.ar    1  UNL1       -0.0722
     15 C           4.9807    0.1983   33.6187 C.ar    1  UNL1        0.1184
     16 C           4.8501   -0.6910   34.8196 C.ar    1  UNL1        0.0223
     17 C           5.6026   -0.3691   36.0767 C.ar    1  UNL1        0.0032
     18 C           6.4856    0.8421   36.1328 C.ar    1  UNL1        0.0207
     19 C           6.6162    1.7313   34.9320 C.ar    1  UNL1        0.0989
     20 N           5.8638    1.4095   33.6749 N.ar    1  UNL1       -0.2407
     21 C           2.7900    0.0312   22.6408 C.3     1  UNL1        0.1538
     22 C           3.2009   -1.1399   21.7983 C.ar    1  UNL1        0.0060
     23 C           4.0687   -2.2155   22.3814 C.ar    1  UNL1       -0.0024
     24 C           4.4795   -3.3866   21.5390 C.ar    1  UNL1        0.0036
     25 C           4.0226   -3.4821   20.1135 C.ar    1  UNL1        0.0714
     26 C           3.1547   -2.4065   19.5305 C.ar    1  UNL1        0.0074
     27 C           2.7439   -1.2354   20.3729 C.ar    1  UNL1        0.0693
     28 C           4.4334   -4.6533   19.2710 C.3     1  UNL1        0.4186
     29 F           4.8442   -5.8243   18.4286 F       1  UNL1       -0.1659
     30 F           3.0400   -4.7486   18.7241 F       1  UNL1       -0.1659
     31 F           5.8269   -4.5579   19.8179 F       1  UNL1       -0.1659
     32 C           1.8761   -0.1598   19.7898 C.3     1  UNL1        0.4183
     33 F           1.0083    0.9158   19.2068 F       1  UNL1       -0.1659
     34 F           0.6527   -0.9121   20.2228 F       1  UNL1       -0.1659
     35 F           3.0994    0.5925   19.3568 F       1  UNL1       -0.1659
@<TRIPOS>BOND
     1     6     7    2
     2     7     8   am
     3     8     1    1
     4     1     2   ar
     5     2     3   ar
     6     3     4   ar
     7     4    21    1
     8    21    22    1
     9    22    23   ar
    10    23    24   ar
    11    24    25   ar
    12    25    28    1
    13    28    29    1
    14    28    30    1
    15    28    31    1
    16    25    26   ar
    17    26    27   ar
    18    27    32    1
    19    32    33    1
    20    32    34    1
    21    32    35    1
    22     4     5   ar
    23     7    10    1
    24    10    11   ar
    25    11    12   ar
    26    12    15    1
    27    15    16   ar
    28    16    17   ar
    29    17    18   ar
    30    18    19   ar
    31    19    20   ar
    32    12    13   ar
    33    13    14   ar
    34     5     1   ar
    35    14    10   ar
    36    27    22   ar
    37    20    15   ar
    38     8     9    1
@<TRIPOS>MOLECULE
*****
 35 38 0 0 0
SMALL
GASTEIGER

@<TRIPOS>ATOM
      1 C           4.4087   -0.9159   32.4290 C.ar    1  UNL1        0.0908
      2 C           3.2347   -0.1342   31.9183 C.ar    1  UNL1        0.1363
      3 N           3.1294    1.1250   32.7266 N.ar    1  UNL1       -0.1660
      4 N           4.2383    1.1215   33.7368 N.ar    1  UNL1       -0.2436
      5 C           5.0289   -0.1399   33.5528 C.ar    1  UNL1        0.1117
      6 O           6.7812   -1.0496   30.5976 O.2     1  UNL1       -0.2680
      7 C           6.0660   -2.3080   30.9916 C.2     1  UNL1        0.2706
      8 N           4.8798   -2.2411   31.9073 N.am    1  UNL1       -0.2766
      9 H           4.4104   -3.0669   32.1659 H       1  UNL1        0.1553
     10 C           6.5371   -3.6331   30.4699 C.ar    1  UNL1        0.1764
     11 C           6.7516   -3.9871   29.0281 C.ar    1  UNL1        0.0688
     12 C           7.2235   -5.4095   28.9654 C.ar    1  UNL1        0.1945
     13 O           7.3006   -5.9346   30.3684 O.2     1  UNL1       -0.3517
     14 N           6.8763   -4.8367   31.2982 N.ar    1  UNL1       -0.0722
     15 C           7.5593   -6.1729   27.7186 C.ar    1  UNL1        0.1184
     16 C           7.3710   -5.5342   26.3745 C.ar    1  UNL1        0.0223
     17 C           7.7068   -6.2975   25.1277 C.ar    1  UNL1        0.0032
     18 C           8.2309   -7.6996   25.2250 C.ar    1  UNL1        0.0207
     19 C           8.4193   -8.3383   26.5690 C.ar    1  UNL1        0.0989
     20 N           8.0835   -7.5749   27.8159 N.ar    1  UNL1       -0.2407
     21 C           4.5090    2.1914   34.7526 C.3     1  UNL1        0.1538
     22 C           3.6932    2.2558   36.0098 C.ar    1  UNL1        0.0060
     23 C           2.5602    3.2327   36.1194 C.ar    1  UNL1       -0.0024
     24 C           1.7444    3.2970   37.3765 C.ar    1  UNL1        0.0036
     25 C           2.0616    2.3845   38.5239 C.ar    1  UNL1        0.0714
     26 C           3.1946    1.4076   38.4143 C.ar    1  UNL1        0.0074
     27 C           4.0104    1.3432   37.1572 C.ar    1  UNL1        0.0693
     28 C           1.2458    2.4488   39.7811 C.3     1  UNL1        0.4186
     29 F           0.4301    2.5132   41.0382 F       1  UNL1       -0.1659
     30 F           2.2332    3.4107   40.3726 F       1  UNL1       -0.1659
     31 F           0.2584    1.4870   39.1896 F       1  UNL1       -0.1659
     32 C           5.1433    0.3663   37.0475 C.3     1  UNL1        0.4183
     33 F           6.2763   -0.6106   36.9378 F       1  UNL1       -0.1659
     34 F           4.1956   -0.6747   36.5298 F       1  UNL1       -0.1659
     35 F           6.0911    1.4073   37.5652 F       1  UNL1       -0.1659
@<TRIPOS>BOND
     1     6     7    2
     2     7     8   am
     3     8     1    1
     4     1     2   ar
     5     2     3   ar
     6     3     4   ar
     7     4    21    1
     8    21    22    1
     9    22    23   ar
    10    23    24   ar
    11    24    25   ar
    12    25    28    1
    13    28    29    1
    14    28    30    1
    15    28    31    1
    16    25    26   ar
    17    26    27   ar
    18    27    32    1
    19    32    33    1
    20    32    34    1
    21    32    35    1
    22     4     5   ar
    23     7    10    1
    24    10    11   ar
    25    11    12   ar
    26    12    15    1
    27    15    16   ar
    28    16    17   ar
    29    17    18   ar
    30    18    19   ar
    31    19    20   ar
    32    12    13   ar
    33    13    14   ar
    34     5     1   ar
    35    14    10   ar
    36    27    22   ar
    37    20    15   ar
    38     8     9    1
