@<TRIPOS>MOLECULE
*****
 38 40 0 0 0
SMALL
GASTEIGER

@<TRIPOS>ATOM
      1 C           6.5686   -2.9117   25.8543 C.2     1  UNL1        0.2485
      2 O           6.9986   -1.5571   25.3748 O.2     1  UNL1       -0.2726
      3 N           5.8094   -3.8253   24.9384 N.am    1  UNL1       -0.2823
      4 H           5.5271   -4.7145   25.2531 H       1  UNL1        0.1549
      5 C           5.6048   -2.0136   31.3224 C.ar    1  UNL1        0.1054
      6 C           5.0073   -1.2698   30.1650 C.ar    1  UNL1        0.0181
      7 C           5.3784   -1.6444   28.7607 C.ar    1  UNL1       -0.0011
      8 C           6.3469   -2.7628   28.5139 C.ar    1  UNL1        0.0022
      9 C           6.9444   -3.5067   29.6713 C.ar    1  UNL1       -0.0030
     10 C           6.5733   -3.1321   31.0756 C.ar    1  UNL1        0.0155
     11 C           7.8646   -4.5564   29.1224 C.3     1  UNL1        0.1206
     12 N           7.8359   -4.4613   27.6257 N.am    1  UNL1       -0.2655
     13 C           8.6093   -5.3234   26.6724 C.2     1  UNL1        0.2269
     14 C           9.5135   -6.3986   27.1981 C.3     1  UNL1        0.0949
     15 O           8.4786   -5.1102   25.1934 O.2     1  UNL1       -0.2748
     16 C           6.8979   -3.3528   27.2496 C.3     1  UNL1        0.1750
     17 S           5.2337   -1.6390   32.7267 S.O2    1  UNL1        0.0086
     18 O           3.8196   -2.0666   32.4671 O.2     1  UNL1       -0.1686
     19 O           6.6478   -1.2114   32.9863 O.2     1  UNL1       -0.1686
     20 C           5.7947   -0.4263   34.9548 C.3     1  UNL1        0.0276
     21 C           4.8627   -1.2644   34.1310 C.3     1  UNL1        0.1560
     22 C           5.4801   -3.3842   23.5430 C.ar    1  UNL1        0.0503
     23 C           6.3166   -3.8553   22.3905 C.ar    1  UNL1        0.0144
     24 C           5.9874   -3.4142   20.9951 C.ar    1  UNL1       -0.0002
     25 C           4.8217   -2.5021   20.7522 C.ar    1  UNL1        0.0182
     26 C           3.9852   -2.0310   21.9048 C.ar    1  UNL1       -0.0002
     27 C           4.3144   -2.4721   23.3001 C.ar    1  UNL1        0.0144
     28 C           4.4924   -2.0610   19.3569 C.3     1  UNL1        0.2827
     29 O           5.2872   -0.8062   19.5660 O.3     1  UNL1       -0.3692
     30 H           5.6592   -0.8046   20.4618 H       1  UNL1        0.2112
     31 C           4.1632   -1.6199   17.9615 C.3     1  UNL1        0.4311
     32 F           3.8339   -1.1788   16.5662 F       1  UNL1       -0.1669
     33 F           3.1054   -0.7033   18.5009 F       1  UNL1       -0.1669
     34 F           4.7595   -2.1254   17.5450 F       1  UNL1       -0.1669
     35 C           3.6977   -3.3158   19.1477 C.3     1  UNL1        0.4311
     36 F           2.9029   -4.5707   18.9386 F       1  UNL1       -0.1669
     37 F           2.9347   -3.0179   19.4848 F       1  UNL1       -0.1669
     38 F           4.6738   -4.2623   18.5142 F       1  UNL1       -0.1669
@<TRIPOS>BOND
     1    20    21    1
     2    21    17    1
     3    17    18    2
     4    17    19    2
     5    17     5    1
     6     5     6   ar
     7     6     7   ar
     8     7     8   ar
     9     8     9   ar
    10     9    10   ar
    11     9    11    1
    12    11    12    1
    13    12    13   am
    14    13    14    1
    15    13    15    2
    16    12    16    1
    17    16     1    1
    18     1     2    2
    19     1     3   am
    20     3    22    1
    21    22    23   ar
    22    23    24   ar
    23    24    25   ar
    24    25    28    1
    25    28    29    1
    26    28    31    1
    27    31    32    1
    28    31    33    1
    29    31    34    1
    30    28    35    1
    31    35    36    1
    32    35    37    1
    33    35    38    1
    34    25    26   ar
    35    26    27   ar
    36    10     5   ar
    37    27    22   ar
    38    16     8    1
    39     3     4    1
    40    29    30    1
@<TRIPOS>MOLECULE
*****
 38 40 0 0 0
SMALL
GASTEIGER

@<TRIPOS>ATOM
      1 C          -0.5578    2.8110   20.7802 C.2     1  UNL1        0.2485
      2 O           0.7538    3.4135   21.1885 O.2     1  UNL1       -0.2726
      3 N          -0.5953    1.4458   20.1598 N.am    1  UNL1       -0.2823
      4 H          -1.4561    1.0504   19.8918 H       1  UNL1        0.1549
      5 C          -4.2103    4.7129   24.6114 C.ar    1  UNL1        0.1054
      6 C          -2.9605    3.9239   24.8673 C.ar    1  UNL1        0.0181
      7 C          -2.0960    3.4951   23.7189 C.ar    1  UNL1       -0.0011
      8 C          -2.4813    3.8552   22.3147 C.ar    1  UNL1        0.0022
      9 C          -3.7310    4.6442   22.0589 C.ar    1  UNL1       -0.0030
     10 C          -4.5955    5.0731   23.2072 C.ar    1  UNL1        0.0155
     11 C          -3.8541    4.8504   20.5781 C.3     1  UNL1        0.1206
     12 N          -2.6804    4.1887   19.9189 N.am    1  UNL1       -0.2655
     13 C          -2.4037    4.1491   18.4452 C.2     1  UNL1        0.2269
     14 C          -3.3477    4.8125   17.4867 C.3     1  UNL1        0.0949
     15 O          -1.1830    3.4459   17.9299 O.2     1  UNL1       -0.2748
     16 C          -1.8319    3.5737   20.9922 C.3     1  UNL1        0.1750
     17 S          -5.0748    5.1418   25.7597 S.O2    1  UNL1        0.0086
     18 O          -5.4844    6.3652   24.9945 O.2     1  UNL1       -0.1686
     19 O          -4.6653    3.9184   26.5250 O.2     1  UNL1       -0.1686
     20 C          -7.2041    6.3348   26.6502 C.3     1  UNL1        0.0276
     21 C          -5.9393    5.5707   26.9081 C.3     1  UNL1        0.1560
     22 C           0.6788    0.6832   19.9477 C.ar    1  UNL1        0.0503
     23 C           1.2537   -0.1412   21.0613 C.ar    1  UNL1        0.0144
     24 C           2.5278   -0.9039   20.8493 C.ar    1  UNL1       -0.0002
     25 C           3.2271   -0.8422   19.5237 C.ar    1  UNL1        0.0182
     26 C           2.6523   -0.0178   18.4102 C.ar    1  UNL1       -0.0002
     27 C           1.3782    0.7448   18.6222 C.ar    1  UNL1        0.0144
     28 C           4.5012   -1.6049   19.3117 C.3     1  UNL1        0.2827
     29 O           5.2797   -0.3249   19.3858 O.3     1  UNL1       -0.3692
     30 H           4.6708    0.4160   19.5311 H       1  UNL1        0.2112
     31 C           5.7753   -2.3675   19.0997 C.3     1  UNL1        0.4311
     32 F           7.0494   -3.1302   18.8877 F       1  UNL1       -0.1669
     33 F           6.1822   -2.0812   20.5147 F       1  UNL1       -0.1669
     34 F           5.6285   -2.5903   18.2550 F       1  UNL1       -0.1669
     35 C           3.7227   -2.8849   19.2376 C.3     1  UNL1        0.4311
     36 F           2.9442   -4.1649   19.1635 F       1  UNL1       -0.1669
     37 F           3.3768   -2.7545   18.4327 F       1  UNL1       -0.1669
     38 F           4.0141   -3.5630   20.5434 F       1  UNL1       -0.1669
@<TRIPOS>BOND
     1    20    21    1
     2    21    17    1
     3    17    18    2
     4    17    19    2
     5    17     5    1
     6     5     6   ar
     7     6     7   ar
     8     7     8   ar
     9     8     9   ar
    10     9    10   ar
    11     9    11    1
    12    11    12    1
    13    12    13   am
    14    13    14    1
    15    13    15    2
    16    12    16    1
    17    16     1    1
    18     1     2    2
    19     1     3   am
    20     3    22    1
    21    22    23   ar
    22    23    24   ar
    23    24    25   ar
    24    25    28    1
    25    28    29    1
    26    28    31    1
    27    31    32    1
    28    31    33    1
    29    31    34    1
    30    28    35    1
    31    35    36    1
    32    35    37    1
    33    35    38    1
    34    25    26   ar
    35    26    27   ar
    36    10     5   ar
    37    27    22   ar
    38    16     8    1
    39     3     4    1
    40    29    30    1
@<TRIPOS>MOLECULE
*****
 38 40 0 0 0
SMALL
GASTEIGER

@<TRIPOS>ATOM
      1 C           1.8573    1.2699   25.1620 C.2     1  UNL1        0.2485
      2 O           3.1271    1.9231   25.6213 O.2     1  UNL1       -0.2726
      3 N           0.8041    0.8926   26.1612 N.am    1  UNL1       -0.2823
      4 H          -0.0294    0.4639   25.8597 H       1  UNL1        0.1549
      5 C           3.5222   -1.8005   20.7532 C.ar    1  UNL1        0.1054
      6 C           4.0635   -1.8578   22.1510 C.ar    1  UNL1        0.0181
      7 C           3.4982   -0.9603   23.2116 C.ar    1  UNL1       -0.0011
      8 C           2.3916   -0.0055   22.8745 C.ar    1  UNL1        0.0022
      9 C           1.8503    0.0519   21.4767 C.ar    1  UNL1       -0.0030
     10 C           2.4156   -0.8456   20.4161 C.ar    1  UNL1        0.0155
     11 C           0.7649    1.0868   21.4420 C.3     1  UNL1        0.1206
     12 N           0.6355    1.6690   22.8183 N.am    1  UNL1       -0.2655
     13 C          -0.3298    2.7385   23.2361 C.2     1  UNL1        0.2269
     14 C          -1.2812    3.3229   22.2344 C.3     1  UNL1        0.0949
     15 O          -0.3437    3.2235   24.6554 O.2     1  UNL1       -0.2748
     16 C           1.6408    0.9940   23.7036 C.3     1  UNL1        0.1750
     17 S           4.0875   -2.6980   19.6926 S.O2    1  UNL1        0.0086
     18 O           4.0431   -1.5652   18.7104 O.2     1  UNL1       -0.1686
     19 O           4.1318   -3.8308   20.6749 O.2     1  UNL1       -0.1686
     20 C           4.5628   -5.0851   18.7838 C.3     1  UNL1        0.0276
     21 C           4.6528   -3.5955   18.6320 C.3     1  UNL1        0.1560
     22 C           1.0206    1.1686   27.6196 C.ar    1  UNL1        0.0503
     23 C           1.6089    0.1095   28.5040 C.ar    1  UNL1        0.0144
     24 C           1.8254    0.3854   29.9624 C.ar    1  UNL1       -0.0002
     25 C           1.4537    1.7204   30.5365 C.ar    1  UNL1        0.0182
     26 C           0.8654    2.7795   29.6520 C.ar    1  UNL1       -0.0002
     27 C           0.6489    2.5036   28.1936 C.ar    1  UNL1        0.0144
     28 C           1.6702    1.9963   31.9949 C.3     1  UNL1        0.2827
     29 O           0.2160    1.7407   32.2591 O.3     1  UNL1       -0.3692
     30 H          -0.2295    1.5174   31.4269 H       1  UNL1        0.2112
     31 C           1.8868    2.2723   33.4533 C.3     1  UNL1        0.4311
     32 F           2.1033    2.5482   34.9117 F       1  UNL1       -0.1669
     33 F           1.1201    3.5551   33.3244 F       1  UNL1       -0.1669
     34 F           2.3517    1.5403   33.6338 F       1  UNL1       -0.1669
     35 C           3.1245    2.2519   31.7306 C.3     1  UNL1        0.4311
     36 F           4.5787    2.5075   31.4663 F       1  UNL1       -0.1669
     37 F           3.0540    3.1200   31.5694 F       1  UNL1       -0.1669
     38 F           3.7664    0.9071   31.9021 F       1  UNL1       -0.1669
@<TRIPOS>BOND
     1    20    21    1
     2    21    17    1
     3    17    18    2
     4    17    19    2
     5    17     5    1
     6     5     6   ar
     7     6     7   ar
     8     7     8   ar
     9     8     9   ar
    10     9    10   ar
    11     9    11    1
    12    11    12    1
    13    12    13   am
    14    13    14    1
    15    13    15    2
    16    12    16    1
    17    16     1    1
    18     1     2    2
    19     1     3   am
    20     3    22    1
    21    22    23   ar
    22    23    24   ar
    23    24    25   ar
    24    25    28    1
    25    28    29    1
    26    28    31    1
    27    31    32    1
    28    31    33    1
    29    31    34    1
    30    28    35    1
    31    35    36    1
    32    35    37    1
    33    35    38    1
    34    25    26   ar
    35    26    27   ar
    36    10     5   ar
    37    27    22   ar
    38    16     8    1
    39     3     4    1
    40    29    30    1
@<TRIPOS>MOLECULE
*****
 38 40 0 0 0
SMALL
GASTEIGER

@<TRIPOS>ATOM
      1 C           3.4927    0.1064   26.6076 C.2     1  UNL1        0.2485
      2 O           4.6777    0.9611   26.9470 O.2     1  UNL1       -0.2726
      3 N           2.8388   -0.7253   27.6709 N.am    1  UNL1       -0.2823
      4 H           2.0610   -1.2863   27.4482 H       1  UNL1        0.1549
      5 C           4.0354   -2.2056   21.5089 C.ar    1  UNL1        0.1054
      6 C           4.8535   -2.5063   22.7297 C.ar    1  UNL1        0.0181
      7 C           4.5703   -1.7908   24.0172 C.ar    1  UNL1       -0.0011
      8 C           3.4690   -0.7746   24.0841 C.ar    1  UNL1        0.0022
      9 C           2.6509   -0.4739   22.8633 C.ar    1  UNL1       -0.0030
     10 C           2.9341   -1.1895   21.5757 C.ar    1  UNL1        0.0155
     11 C           1.6379    0.5699   23.2297 C.3     1  UNL1        0.1206
     12 N           1.8299    0.9144   24.6769 N.am    1  UNL1       -0.2655
     13 C           1.0306    1.9142   25.4589 C.2     1  UNL1        0.2269
     14 C          -0.0776    2.6745   24.7927 C.3     1  UNL1        0.0949
     15 O           1.3394    2.1537   26.9071 O.2     1  UNL1       -0.2748
     16 C           2.9616    0.0834   25.2049 C.3     1  UNL1        0.1750
     17 S           4.3186   -2.9212   20.2214 S.O2    1  UNL1        0.0086
     18 O           4.5085   -4.2036   20.9758 O.2     1  UNL1       -0.1686
     19 O           4.1286   -1.6387   19.4669 O.2     1  UNL1       -0.1686
     20 C           4.5124   -5.1327   18.8718 C.3     1  UNL1        0.0276
     21 C           4.6017   -3.6367   18.9338 C.3     1  UNL1        0.1560
     22 C           3.3699   -0.7023   29.0735 C.ar    1  UNL1        0.0503
     23 C           2.5393   -0.1240   30.1806 C.ar    1  UNL1        0.0144
     24 C           3.0704   -0.1010   31.5832 C.ar    1  UNL1       -0.0002
     25 C           4.4320   -0.6563   31.8789 C.ar    1  UNL1        0.0182
     26 C           5.2627   -1.2346   30.7718 C.ar    1  UNL1       -0.0002
     27 C           4.7316   -1.2576   29.3691 C.ar    1  UNL1        0.0144
     28 C           4.9631   -0.6333   33.2815 C.3     1  UNL1        0.2827
     29 O           5.4247    0.7801   33.0836 O.3     1  UNL1       -0.3692
     30 H           5.2004    1.0708   32.1857 H       1  UNL1        0.2112
     31 C           5.4942   -0.6103   34.6841 C.3     1  UNL1        0.4311
     32 F           6.0253   -0.5873   36.0868 F       1  UNL1       -0.1669
     33 F           4.2870    0.1612   35.1286 F       1  UNL1       -0.1669
     34 F           6.2400   -1.0608   34.5246 F       1  UNL1       -0.1669
     35 C           4.5016   -2.0467   33.4794 C.3     1  UNL1        0.4311
     36 F           4.0400   -3.4601   33.6774 F       1  UNL1       -0.1669
     37 F           3.7072   -1.8541   33.8207 F       1  UNL1       -0.1669
     38 F           5.6499   -2.8760   32.9860 F       1  UNL1       -0.1669
@<TRIPOS>BOND
     1    20    21    1
     2    21    17    1
     3    17    18    2
     4    17    19    2
     5    17     5    1
     6     5     6   ar
     7     6     7   ar
     8     7     8   ar
     9     8     9   ar
    10     9    10   ar
    11     9    11    1
    12    11    12    1
    13    12    13   am
    14    13    14    1
    15    13    15    2
    16    12    16    1
    17    16     1    1
    18     1     2    2
    19     1     3   am
    20     3    22    1
    21    22    23   ar
    22    23    24   ar
    23    24    25   ar
    24    25    28    1
    25    28    29    1
    26    28    31    1
    27    31    32    1
    28    31    33    1
    29    31    34    1
    30    28    35    1
    31    35    36    1
    32    35    37    1
    33    35    38    1
    34    25    26   ar
    35    26    27   ar
    36    10     5   ar
    37    27    22   ar
    38    16     8    1
    39     3     4    1
    40    29    30    1
@<TRIPOS>MOLECULE
*****
 38 40 0 0 0
SMALL
GASTEIGER

@<TRIPOS>ATOM
      1 C           5.0143   -0.9735   26.1710 C.2     1  UNL1        0.2485
      2 O           5.6218    0.2232   25.5009 O.2     1  UNL1       -0.2726
      3 N           4.3202   -2.0202   25.3509 N.am    1  UNL1       -0.2823
      4 H           3.9214   -2.8057   25.7906 H       1  UNL1        0.1549
      5 C           3.1013    0.9096   31.1137 C.ar    1  UNL1        0.1054
      6 C           2.7054    1.3895   29.7488 C.ar    1  UNL1        0.0181
      7 C           3.3201    0.7705   28.5286 C.ar    1  UNL1       -0.0011
      8 C           4.3308   -0.3284   28.6732 C.ar    1  UNL1        0.0022
      9 C           4.7268   -0.8082   30.0381 C.ar    1  UNL1       -0.0030
     10 C           4.1120   -0.1892   31.2583 C.ar    1  UNL1        0.0155
     11 C           5.7417   -1.8998   29.8693 C.3     1  UNL1        0.1206
     12 N           5.9729   -2.0946   28.4001 N.am    1  UNL1       -0.2655
     13 C           6.9114   -3.0864   27.7791 C.2     1  UNL1        0.2269
     14 C           7.7236   -3.9979   28.6506 C.3     1  UNL1        0.0949
     15 O           7.0377   -3.1667   26.2866 O.2     1  UNL1       -0.2748
     16 C           5.1009   -1.1234   27.6609 C.3     1  UNL1        0.1750
     17 S           2.4866    1.5286   32.3339 S.O2    1  UNL1        0.0086
     18 O           3.8358    1.5803   32.9874 O.2     1  UNL1       -0.1686
     19 O           1.1374    1.4770   31.6804 O.2     1  UNL1       -0.1686
     20 C           2.7477    2.6347   34.6702 C.3     1  UNL1        0.0276
     21 C           1.8719    2.1476   33.5542 C.3     1  UNL1        0.1560
     22 C           4.2335   -1.8703   23.8610 C.ar    1  UNL1        0.0503
     23 C           3.2153   -0.9487   23.2578 C.ar    1  UNL1        0.0144
     24 C           3.1287   -0.7988   21.7679 C.ar    1  UNL1       -0.0002
     25 C           4.0602   -1.5705   20.8810 C.ar    1  UNL1        0.0182
     26 C           5.0784   -2.4921   21.4841 C.ar    1  UNL1       -0.0002
     27 C           5.1651   -2.6421   22.9741 C.ar    1  UNL1        0.0144
     28 C           3.9736   -1.4206   19.3910 C.3     1  UNL1        0.2827
     29 O           4.5037   -0.0217   19.5009 O.3     1  UNL1       -0.3692
     30 H           4.6708    0.1884   20.4330 H       1  UNL1        0.2112
     31 C           3.8869   -1.2707   17.9010 C.3     1  UNL1        0.4311
     32 F           3.8003   -1.1207   16.4111 F       1  UNL1       -0.1669
     33 F           2.6866   -0.3852   18.0599 F       1  UNL1       -0.1669
     34 F           4.5842   -1.7788   17.7007 F       1  UNL1       -0.1669
     35 C           3.4434   -2.8194   19.2811 C.3     1  UNL1        0.4311
     36 F           2.9133   -4.2183   19.1712 F       1  UNL1       -0.1669
     37 F           2.6164   -2.6425   19.5442 F       1  UNL1       -0.1669
     38 F           4.6211   -3.6176   18.8058 F       1  UNL1       -0.1669
@<TRIPOS>BOND
     1    20    21    1
     2    21    17    1
     3    17    18    2
     4    17    19    2
     5    17     5    1
     6     5     6   ar
     7     6     7   ar
     8     7     8   ar
     9     8     9   ar
    10     9    10   ar
    11     9    11    1
    12    11    12    1
    13    12    13   am
    14    13    14    1
    15    13    15    2
    16    12    16    1
    17    16     1    1
    18     1     2    2
    19     1     3   am
    20     3    22    1
    21    22    23   ar
    22    23    24   ar
    23    24    25   ar
    24    25    28    1
    25    28    29    1
    26    28    31    1
    27    31    32    1
    28    31    33    1
    29    31    34    1
    30    28    35    1
    31    35    36    1
    32    35    37    1
    33    35    38    1
    34    25    26   ar
    35    26    27   ar
    36    10     5   ar
    37    27    22   ar
    38    16     8    1
    39     3     4    1
    40    29    30    1
@<TRIPOS>MOLECULE
*****
 38 40 0 0 0
SMALL
GASTEIGER

@<TRIPOS>ATOM
      1 C          -0.6181    2.7225   20.6367 C.2     1  UNL1        0.2485
      2 O           0.5408    3.5824   20.2276 O.2     1  UNL1       -0.2726
      3 N          -0.4968    1.2282   20.5893 N.am    1  UNL1       -0.2823
      4 H          -1.2575    0.6638   20.8578 H       1  UNL1        0.1549
      5 C          -5.4713    5.0282   18.9733 C.ar    1  UNL1        0.1054
      6 C          -4.3857    4.4760   18.0977 C.ar    1  UNL1        0.0181
      7 C          -3.1484    3.8938   18.7142 C.ar    1  UNL1       -0.0011
      8 C          -2.9966    3.8637   20.2061 C.ar    1  UNL1        0.0022
      9 C          -4.0821    4.4159   21.0817 C.ar    1  UNL1       -0.0030
     10 C          -5.3195    4.9982   20.4652 C.ar    1  UNL1        0.0155
     11 C          -3.6549    4.2504   22.5100 C.3     1  UNL1        0.1206
     12 N          -2.3052    3.5958   22.5172 N.am    1  UNL1       -0.2655
     13 C          -1.5032    3.2423   23.7345 C.2     1  UNL1        0.2269
     14 C          -2.0423    3.5438   25.1014 C.3     1  UNL1        0.0949
     15 O          -0.1621    2.5874   23.5849 O.2     1  UNL1       -0.2748
     16 C          -1.8984    3.3569   21.0933 C.3     1  UNL1        0.1750
     17 S          -6.7086    5.6105   18.3568 S.O2    1  UNL1        0.0086
     18 O          -6.0434    6.9532   18.2898 O.2     1  UNL1       -0.1686
     19 O          -7.3738    4.2677   18.4239 O.2     1  UNL1       -0.1686
     20 C          -9.1508    6.4652   18.5913 C.3     1  UNL1        0.0276
     21 C          -7.9459    6.1927   17.7404 C.3     1  UNL1        0.1560
     22 C           0.7835    0.5938   20.1327 C.ar    1  UNL1        0.0503
     23 C           1.6715   -0.0999   21.1228 C.ar    1  UNL1        0.0144
     24 C           2.9518   -0.7343   20.6662 C.ar    1  UNL1       -0.0002
     25 C           3.3440   -0.6751   19.2196 C.ar    1  UNL1        0.0182
     26 C           2.4560    0.0186   18.2296 C.ar    1  UNL1       -0.0002
     27 C           1.1757    0.6530   18.6862 C.ar    1  UNL1        0.0144
     28 C           4.6243   -1.3095   18.7631 C.3     1  UNL1        0.2827
     29 O           5.1736    0.0441   18.4224 O.3     1  UNL1       -0.3692
     30 H           4.5114    0.7227   18.6273 H       1  UNL1        0.2112
     31 C           5.9046   -1.9439   18.3065 C.3     1  UNL1        0.4311
     32 F           7.1848   -2.5783   17.8500 F       1  UNL1       -0.1669
     33 F           6.6483   -1.2246   19.3925 F       1  UNL1       -0.1669
     34 F           5.5608   -2.4111   17.6371 F       1  UNL1       -0.1669
     35 C           4.0750   -2.6631   19.1037 C.3     1  UNL1        0.4311
     36 F           3.5258   -4.0167   19.4444 F       1  UNL1       -0.1669
     37 F           3.4700   -2.6998   18.4579 F       1  UNL1       -0.1669
     38 F           4.8782   -3.0911   20.2961 F       1  UNL1       -0.1669
@<TRIPOS>BOND
     1    20    21    1
     2    21    17    1
     3    17    18    2
     4    17    19    2
     5    17     5    1
     6     5     6   ar
     7     6     7   ar
     8     7     8   ar
     9     8     9   ar
    10     9    10   ar
    11     9    11    1
    12    11    12    1
    13    12    13   am
    14    13    14    1
    15    13    15    2
    16    12    16    1
    17    16     1    1
    18     1     2    2
    19     1     3   am
    20     3    22    1
    21    22    23   ar
    22    23    24   ar
    23    24    25   ar
    24    25    28    1
    25    28    29    1
    26    28    31    1
    27    31    32    1
    28    31    33    1
    29    31    34    1
    30    28    35    1
    31    35    36    1
    32    35    37    1
    33    35    38    1
    34    25    26   ar
    35    26    27   ar
    36    10     5   ar
    37    27    22   ar
    38    16     8    1
    39     3     4    1
    40    29    30    1
@<TRIPOS>MOLECULE
*****
 38 40 0 0 0
SMALL
GASTEIGER

@<TRIPOS>ATOM
      1 C           1.3640    1.4864   24.4819 C.2     1  UNL1        0.2485
      2 O           2.0886    2.4954   23.6412 O.2     1  UNL1       -0.2726
      3 N           1.5318    0.0215   24.2065 N.am    1  UNL1       -0.2823
      4 H           1.0562   -0.6407   24.7583 H       1  UNL1        0.1549
      5 C          -3.4760    4.0505   25.7614 C.ar    1  UNL1        0.1054
      6 C          -2.9288    3.7842   24.3904 C.ar    1  UNL1        0.0181
      7 C          -1.6123    3.0831   24.2314 C.ar    1  UNL1       -0.0011
      8 C          -0.8429    2.6483   25.4434 C.ar    1  UNL1        0.0022
      9 C          -1.3901    2.9146   26.8144 C.ar    1  UNL1       -0.0030
     10 C          -2.7066    3.6157   26.9734 C.ar    1  UNL1        0.0155
     11 C          -0.4138    2.3732   27.8164 C.3     1  UNL1        0.1206
     12 N           0.7367    1.7723   27.0645 N.am    1  UNL1       -0.2655
     13 C           1.9411    1.1165   27.6725 C.2     1  UNL1        0.2269
     14 C           2.0694    1.0192   29.1638 C.3     1  UNL1        0.0949
     15 O           3.0170    0.5580   26.7891 O.2     1  UNL1       -0.2748
     16 C           0.4715    1.9423   25.5980 C.3     1  UNL1        0.1750
     17 S          -4.7925    4.7515   25.9205 S.O2    1  UNL1        0.0086
     18 O          -4.9324    4.8270   24.4289 O.2     1  UNL1       -0.1686
     19 O          -4.6525    4.6761   27.4120 O.2     1  UNL1       -0.1686
     20 C          -6.4962    6.0285   27.4093 C.3     1  UNL1        0.0276
     21 C          -6.1090    5.4526   26.0795 C.3     1  UNL1        0.1560
     22 C           2.4243   -0.4344   23.0904 C.ar    1  UNL1        0.0503
     23 C           3.7307   -1.1031   23.4003 C.ar    1  UNL1        0.0144
     24 C           4.6232   -1.5590   22.2842 C.ar    1  UNL1       -0.0002
     25 C           4.2093   -1.3462   20.8583 C.ar    1  UNL1        0.0182
     26 C           2.9028   -0.6776   20.5484 C.ar    1  UNL1       -0.0002
     27 C           2.0104   -0.2217   21.6645 C.ar    1  UNL1        0.0144
     28 C           5.1018   -1.8021   19.7422 C.3     1  UNL1        0.2827
     29 O           6.0536   -0.6834   20.0464 O.3     1  UNL1       -0.3692
     30 H           5.7146   -0.1643   20.7924 H       1  UNL1        0.2112
     31 C           5.9943   -2.2580   18.6262 C.3     1  UNL1        0.4311
     32 F           6.8868   -2.7139   17.5101 F       1  UNL1       -0.1669
     33 F           5.5290   -1.1073   17.7840 F       1  UNL1       -0.1669
     34 F           6.3312   -2.9653   19.0394 F       1  UNL1       -0.1669
     35 C           4.1500   -2.9208   19.4381 C.3     1  UNL1        0.4311
     36 F           3.1982   -4.0396   19.1339 F       1  UNL1       -0.1669
     37 F           3.7664   -2.5475   18.7324 F       1  UNL1       -0.1669
     38 F           4.4413   -3.9431   20.4965 F       1  UNL1       -0.1669
@<TRIPOS>BOND
     1    20    21    1
     2    21    17    1
     3    17    18    2
     4    17    19    2
     5    17     5    1
     6     5     6   ar
     7     6     7   ar
     8     7     8   ar
     9     8     9   ar
    10     9    10   ar
    11     9    11    1
    12    11    12    1
    13    12    13   am
    14    13    14    1
    15    13    15    2
    16    12    16    1
    17    16     1    1
    18     1     2    2
    19     1     3   am
    20     3    22    1
    21    22    23   ar
    22    23    24   ar
    23    24    25   ar
    24    25    28    1
    25    28    29    1
    26    28    31    1
    27    31    32    1
    28    31    33    1
    29    31    34    1
    30    28    35    1
    31    35    36    1
    32    35    37    1
    33    35    38    1
    34    25    26   ar
    35    26    27   ar
    36    10     5   ar
    37    27    22   ar
    38    16     8    1
    39     3     4    1
    40    29    30    1
@<TRIPOS>MOLECULE
*****
 38 40 0 0 0
SMALL
GASTEIGER

@<TRIPOS>ATOM
      1 C           3.5102    0.1357   26.4542 C.2     1  UNL1        0.2485
      2 O           4.6442    0.9845   25.9610 O.2     1  UNL1       -0.2726
      3 N           2.9905   -0.9876   25.6067 N.am    1  UNL1       -0.2823
      4 H           2.2462   -1.5448   25.9304 H       1  UNL1        0.1549
      5 C           4.1255   -0.4467   32.0147 C.ar    1  UNL1        0.1054
      6 C           5.0701   -0.9127   30.9468 C.ar    1  UNL1        0.0181
      7 C           4.7464   -0.6723   29.5020 C.ar    1  UNL1       -0.0011
      8 C           3.4781    0.0341   29.1251 C.ar    1  UNL1        0.0022
      9 C           2.5334    0.5002   30.1929 C.ar    1  UNL1       -0.0030
     10 C           2.8571    0.2598   31.6377 C.ar    1  UNL1        0.0155
     11 C           1.3672    1.1642   29.5226 C.3     1  UNL1        0.1206
     12 N           1.5912    1.1084   28.0405 N.am    1  UNL1       -0.2655
     13 C           0.6720    1.6551   26.9887 C.2     1  UNL1        0.2269
     14 C          -0.6058    2.3321   27.3876 C.3     1  UNL1        0.0949
     15 O           1.0305    1.5248   25.5380 O.2     1  UNL1       -0.2748
     16 C           2.8958    0.4100   27.7948 C.3     1  UNL1        0.1750
     17 S           4.4492   -0.6871   33.4595 S.O2    1  UNL1        0.0086
     18 O           3.7943   -2.0343   33.3820 O.2     1  UNL1       -0.1686
     19 O           5.1041    0.6602   33.5369 O.2     1  UNL1       -0.1686
     20 C           4.6045    0.1776   35.9045 C.3     1  UNL1        0.0276
     21 C           4.7729   -0.9274   34.9042 C.3     1  UNL1        0.1560
     22 C           3.6049   -1.2619   24.2661 C.ar    1  UNL1        0.0503
     23 C           4.8099   -2.1490   24.1607 C.ar    1  UNL1        0.0144
     24 C           5.4243   -2.4234   22.8201 C.ar    1  UNL1       -0.0002
     25 C           4.8338   -1.8107   21.5849 C.ar    1  UNL1        0.0182
     26 C           3.6288   -0.9236   21.6903 C.ar    1  UNL1       -0.0002
     27 C           3.0144   -0.6493   23.0309 C.ar    1  UNL1        0.0144
     28 C           5.4482   -2.0850   20.2443 C.3     1  UNL1        0.2827
     29 O           6.6970   -1.3719   20.6707 O.3     1  UNL1       -0.3692
     30 H           6.5916   -1.0509   21.5800 H       1  UNL1        0.2112
     31 C           6.0626   -2.3594   18.9037 C.3     1  UNL1        0.4311
     32 F           6.6770   -2.6337   17.5631 F       1  UNL1       -0.1669
     33 F           5.9782   -0.9002   18.5664 F       1  UNL1       -0.1669
     34 F           6.1563   -3.2343   19.0049 F       1  UNL1       -0.1669
     35 C           4.1994   -2.7982   19.8179 C.3     1  UNL1        0.4311
     36 F           2.9505   -3.5113   19.3915 F       1  UNL1       -0.1669
     37 F           3.9213   -2.1907   19.2363 F       1  UNL1       -0.1669
     38 F           4.2086   -4.0614   20.6266 F       1  UNL1       -0.1669
@<TRIPOS>BOND
     1    20    21    1
     2    21    17    1
     3    17    18    2
     4    17    19    2
     5    17     5    1
     6     5     6   ar
     7     6     7   ar
     8     7     8   ar
     9     8     9   ar
    10     9    10   ar
    11     9    11    1
    12    11    12    1
    13    12    13   am
    14    13    14    1
    15    13    15    2
    16    12    16    1
    17    16     1    1
    18     1     2    2
    19     1     3   am
    20     3    22    1
    21    22    23   ar
    22    23    24   ar
    23    24    25   ar
    24    25    28    1
    25    28    29    1
    26    28    31    1
    27    31    32    1
    28    31    33    1
    29    31    34    1
    30    28    35    1
    31    35    36    1
    32    35    37    1
    33    35    38    1
    34    25    26   ar
    35    26    27   ar
    36    10     5   ar
    37    27    22   ar
    38    16     8    1
    39     3     4    1
    40    29    30    1
@<TRIPOS>MOLECULE
*****
 38 40 0 0 0
SMALL
GASTEIGER

@<TRIPOS>ATOM
      1 C          -0.8063    3.1614   20.7976 C.2     1  UNL1        0.2485
      2 O          -2.1330    2.4979   20.5746 O.2     1  UNL1       -0.2726
      3 N          -0.6448    4.1623   21.9030 N.am    1  UNL1       -0.2823
      4 H           0.2259    4.5978   22.0494 H       1  UNL1        0.1549
      5 C           2.8577   -0.8454   19.3291 C.ar    1  UNL1        0.1054
      6 C           1.7616   -0.9519   20.3474 C.ar    1  UNL1        0.0181
      7 C           0.8700    0.2242   20.6154 C.ar    1  UNL1       -0.0011
      8 C           1.0746    1.5069   19.8652 C.ar    1  UNL1        0.0022
      9 C           2.1708    1.6134   18.8469 C.ar    1  UNL1       -0.0030
     10 C           3.0624    0.4372   18.5788 C.ar    1  UNL1        0.0155
     11 C           2.1324    2.9964   18.2674 C.3     1  UNL1        0.1206
     12 N           1.0125    3.7446   18.9276 N.am    1  UNL1       -0.2655
     13 C           0.6158    5.1643   18.6492 C.2     1  UNL1        0.2269
     14 C           1.3669    5.9663   17.6281 C.3     1  UNL1        0.0949
     15 O          -0.5318    5.7818   19.3919 O.2     1  UNL1       -0.2748
     16 C           0.3587    2.8240   19.9151 C.3     1  UNL1        0.1750
     17 S           3.7493   -2.0215   19.0610 S.O2    1  UNL1        0.0086
     18 O           3.9204   -1.5682   17.6414 O.2     1  UNL1       -0.1686
     19 O           3.5782   -2.4748   20.4806 O.2     1  UNL1       -0.1686
     20 C           4.1055   -4.5918   18.9326 C.3     1  UNL1        0.0276
     21 C           4.6409   -3.1976   18.7929 C.3     1  UNL1        0.1560
     22 C          -1.8099    4.4996   22.7855 C.ar    1  UNL1        0.0503
     23 C          -2.6510    5.7056   22.4888 C.ar    1  UNL1        0.0144
     24 C          -3.8161    6.0430   23.3713 C.ar    1  UNL1       -0.0002
     25 C          -4.1401    5.1744   24.5505 C.ar    1  UNL1        0.0182
     26 C          -3.2990    3.9684   24.8472 C.ar    1  UNL1       -0.0002
     27 C          -2.1339    3.6310   23.9647 C.ar    1  UNL1        0.0144
     28 C          -5.3052    5.5117   25.4329 C.3     1  UNL1        0.2827
     29 O          -4.4003    6.3127   26.3215 O.3     1  UNL1       -0.3692
     30 H          -3.4949    6.2797   25.9749 H       1  UNL1        0.2112
     31 C          -6.4703    5.8490   26.3154 C.3     1  UNL1        0.4311
     32 F          -7.6354    6.1864   27.1979 F       1  UNL1       -0.1669
     33 F          -5.8057    5.1458   27.4616 F       1  UNL1       -0.1669
     34 F          -6.9436    6.2855   25.7071 F       1  UNL1       -0.1669
     35 C          -6.2101    4.7107   24.5444 C.3     1  UNL1        0.4311
     36 F          -7.1150    3.9096   23.6559 F       1  UNL1       -0.1669
     37 F          -6.1588    3.9501   24.9955 F       1  UNL1       -0.1669
     38 F          -6.6220    5.6805   23.4768 F       1  UNL1       -0.1669
@<TRIPOS>BOND
     1    20    21    1
     2    21    17    1
     3    17    18    2
     4    17    19    2
     5    17     5    1
     6     5     6   ar
     7     6     7   ar
     8     7     8   ar
     9     8     9   ar
    10     9    10   ar
    11     9    11    1
    12    11    12    1
    13    12    13   am
    14    13    14    1
    15    13    15    2
    16    12    16    1
    17    16     1    1
    18     1     2    2
    19     1     3   am
    20     3    22    1
    21    22    23   ar
    22    23    24   ar
    23    24    25   ar
    24    25    28    1
    25    28    29    1
    26    28    31    1
    27    31    32    1
    28    31    33    1
    29    31    34    1
    30    28    35    1
    31    35    36    1
    32    35    37    1
    33    35    38    1
    34    25    26   ar
    35    26    27   ar
    36    10     5   ar
    37    27    22   ar
    38    16     8    1
    39     3     4    1
    40    29    30    1
