@<TRIPOS>MOLECULE
*****
 13 14 0 0 0
SMALL
GASTEIGER

@<TRIPOS>ATOM
      1 C          -4.2232  -19.2128   19.7687 C.ar    1  UNL1        0.1874
      2 C          -4.3884  -20.6730   20.0699 C.ar    1  UNL1        0.0441
      3 C          -5.8356  -20.9222   20.3759 C.ar    1  UNL1        0.0408
      4 C          -6.5647  -19.6162   20.2639 C.ar    1  UNL1        0.1470
      5 O          -5.5682  -18.5597   19.8886 O.2     1  UNL1       -0.4501
      6 C          -8.0327  -19.4039   20.4878 C.ar    1  UNL1        0.0537
      7 C          -8.9966  -19.5700   19.3506 C.ar    1  UNL1        0.0062
      8 C         -10.4644  -19.3577   19.5746 C.ar    1  UNL1        0.0208
      9 C         -10.9684  -18.9793   20.9358 C.ar    1  UNL1        0.0989
     10 N         -10.0045  -18.8131   22.0730 N.ar    1  UNL1       -0.2422
     11 C          -8.5367  -19.0254   21.8490 C.ar    1  UNL1        0.1019
     12 O          -2.8360  -17.0325   19.5003 O.2     1  UNL1       -0.2797
     13 C          -2.9385  -18.5263   19.4106 C.2     1  UNL1        0.2714
@<TRIPOS>BOND
     1    12    13    2
     2    13     1    1
     3     1     2   ar
     4     2     3   ar
     5     3     4   ar
     6     4     6    1
     7     6     7   ar
     8     7     8   ar
     9     8     9   ar
    10     9    10   ar
    11    10    11   ar
    12     4     5   ar
    13     5     1   ar
    14    11     6   ar
@<TRIPOS>MOLECULE
*****
 13 14 0 0 0
SMALL
GASTEIGER

@<TRIPOS>ATOM
      1 C         -11.4086  -17.1062   22.5709 C.ar    1  UNL1        0.1874
      2 C         -11.4069  -18.2913   23.4906 C.ar    1  UNL1        0.0441
      3 C         -10.2898  -18.1121   24.4754 C.ar    1  UNL1        0.0408
      4 C          -9.6011  -16.8163   24.1645 C.ar    1  UNL1        0.1470
      5 O         -10.2926  -16.1947   22.9874 O.2     1  UNL1       -0.4501
      6 C          -8.4270  -16.2429   24.9012 C.ar    1  UNL1        0.0537
      7 C          -8.3530  -16.3521   26.3954 C.ar    1  UNL1        0.0062
      8 C          -7.1790  -15.7787   27.1321 C.ar    1  UNL1        0.0208
      9 C          -6.0789  -15.0960   26.3746 C.ar    1  UNL1        0.0989
     10 N          -6.1528  -14.9868   24.8804 N.ar    1  UNL1       -0.2422
     11 C          -7.3269  -15.5602   24.1438 C.ar    1  UNL1        0.1019
     12 O         -11.9940  -17.3155   20.0483 O.2     1  UNL1       -0.2797
     13 C         -12.3595  -16.8736   21.4344 C.2     1  UNL1        0.2714
@<TRIPOS>BOND
     1    12    13    2
     2    13     1    1
     3     1     2   ar
     4     2     3   ar
     5     3     4   ar
     6     4     6    1
     7     6     7   ar
     8     7     8   ar
     9     8     9   ar
    10     9    10   ar
    11    10    11   ar
    12     4     5   ar
    13     5     1   ar
    14    11     6   ar
@<TRIPOS>MOLECULE
*****
 13 14 0 0 0
SMALL
GASTEIGER

@<TRIPOS>ATOM
      1 C          -9.0985  -17.4989   21.9256 C.ar    1  UNL1        0.1874
      2 C          -9.3505  -18.8470   22.5335 C.ar    1  UNL1        0.0441
      3 C          -8.0748  -19.6328   22.4632 C.ar    1  UNL1        0.0408
      4 C          -7.0344  -18.7706   21.8118 C.ar    1  UNL1        0.1470
      5 O          -7.6671  -17.4518   21.4796 O.2     1  UNL1       -0.4501
      6 C          -5.6112  -19.1590   21.5404 C.ar    1  UNL1        0.0537
      7 C          -5.2789  -20.0030   20.3458 C.ar    1  UNL1        0.0062
      8 C          -3.8557  -20.3913   20.0744 C.ar    1  UNL1        0.0208
      9 C          -2.7648  -19.9357   20.9977 C.ar    1  UNL1        0.0989
     10 N          -3.0971  -19.0917   22.1923 N.ar    1  UNL1       -0.2422
     11 C          -4.5203  -18.7033   22.4637 C.ar    1  UNL1        0.1019
     12 O         -10.1061  -15.5325   20.5588 O.2     1  UNL1       -0.2797
     13 C         -10.1019  -16.3924   21.7878 C.2     1  UNL1        0.2714
@<TRIPOS>BOND
     1    12    13    2
     2    13     1    1
     3     1     2   ar
     4     2     3   ar
     5     3     4   ar
     6     4     6    1
     7     6     7   ar
     8     7     8   ar
     9     8     9   ar
    10     9    10   ar
    11    10    11   ar
    12     4     5   ar
    13     5     1   ar
    14    11     6   ar
@<TRIPOS>MOLECULE
*****
 13 14 0 0 0
SMALL
GASTEIGER

@<TRIPOS>ATOM
      1 C          -6.5539  -15.6631   23.9464 C.ar    1  UNL1        0.1874
      2 C          -7.3554  -15.3705   25.1801 C.ar    1  UNL1        0.0441
      3 C          -8.7884  -15.7076   24.8925 C.ar    1  UNL1        0.0408
      4 C          -8.8726  -16.2086   23.4811 C.ar    1  UNL1        0.1470
      5 O          -7.4915  -16.1811   22.8964 O.2     1  UNL1       -0.4501
      6 C         -10.1190  -16.6582   22.7780 C.ar    1  UNL1        0.0537
      7 C         -11.0624  -17.6066   23.4566 C.ar    1  UNL1        0.0062
      8 C         -12.3087  -18.0561   22.7535 C.ar    1  UNL1        0.0208
      9 C         -12.6117  -17.5573   21.3717 C.ar    1  UNL1        0.0989
     10 N         -11.6683  -16.6089   20.6930 N.ar    1  UNL1       -0.2422
     11 C         -10.4220  -16.1594   21.3962 C.ar    1  UNL1        0.1019
     12 O          -4.5451  -14.5515   22.7301 O.2     1  UNL1       -0.2797
     13 C          -5.0744  -15.4714   23.7901 C.2     1  UNL1        0.2714
@<TRIPOS>BOND
     1    12    13    2
     2    13     1    1
     3     1     2   ar
     4     2     3   ar
     5     3     4   ar
     6     4     6    1
     7     6     7   ar
     8     7     8   ar
     9     8     9   ar
    10     9    10   ar
    11    10    11   ar
    12     4     5   ar
    13     5     1   ar
    14    11     6   ar
@<TRIPOS>MOLECULE
*****
 13 14 0 0 0
SMALL
GASTEIGER

@<TRIPOS>ATOM
      1 C          -2.5306  -18.6816   20.2490 C.ar    1  UNL1        0.1874
      2 C          -2.4721  -19.4092   21.5595 C.ar    1  UNL1        0.0441
      3 C          -3.8792  -19.6852   21.9996 C.ar    1  UNL1        0.0408
      4 C          -4.8074  -19.1283   20.9612 C.ar    1  UNL1        0.1470
      5 O          -3.9739  -18.5080   19.8793 O.2     1  UNL1       -0.4501
      6 C          -6.3060  -19.1821   20.9983 C.ar    1  UNL1        0.0537
      7 C          -7.0228  -19.2207   22.3153 C.ar    1  UNL1        0.0062
      8 C          -8.5213  -19.2746   22.3523 C.ar    1  UNL1        0.0208
      9 C          -9.3031  -19.2898   21.0722 C.ar    1  UNL1        0.0989
     10 N          -8.5863  -19.2511   19.7552 N.ar    1  UNL1       -0.2422
     11 C          -7.0878  -19.1973   19.7182 C.ar    1  UNL1        0.1019
     12 O           0.0187  -18.7379   19.7510 O.2     1  UNL1       -0.2797
     13 C          -1.3526  -18.2104   19.4488 C.2     1  UNL1        0.2714
@<TRIPOS>BOND
     1    12    13    2
     2    13     1    1
     3     1     2   ar
     4     2     3   ar
     5     3     4   ar
     6     4     6    1
     7     6     7   ar
     8     7     8   ar
     9     8     9   ar
    10     9    10   ar
    11    10    11   ar
    12     4     5   ar
    13     5     1   ar
    14    11     6   ar
@<TRIPOS>MOLECULE
*****
 13 14 0 0 0
SMALL
GASTEIGER

@<TRIPOS>ATOM
      1 C          -7.2897  -19.3154   20.8335 C.ar    1  UNL1        0.1874
      2 C          -6.7786  -19.9381   22.0989 C.ar    1  UNL1        0.0441
      3 C          -5.2844  -19.8068   22.1094 C.ar    1  UNL1        0.0408
      4 C          -4.8720  -19.1031   20.8506 C.ar    1  UNL1        0.1470
      5 O          -6.1114  -18.7994   20.0620 O.2     1  UNL1       -0.4501
      6 C          -3.4669  -18.7628   20.4505 C.ar    1  UNL1        0.0537
      7 C          -3.1977  -18.1422   19.1117 C.ar    1  UNL1        0.0062
      8 C          -1.7927  -17.8020   18.7117 C.ar    1  UNL1        0.0208
      9 C          -0.6569  -18.0822   19.6506 C.ar    1  UNL1        0.0989
     10 N          -0.9261  -18.7027   20.9894 N.ar    1  UNL1       -0.2422
     11 C          -2.3311  -19.0430   21.3893 C.ar    1  UNL1        0.1019
     12 O          -9.0741  -19.0068   18.9705 O.2     1  UNL1       -0.2797
     13 C          -8.7268  -19.2248   20.4134 C.2     1  UNL1        0.2714
@<TRIPOS>BOND
     1    12    13    2
     2    13     1    1
     3     1     2   ar
     4     2     3   ar
     5     3     4   ar
     6     4     6    1
     7     6     7   ar
     8     7     8   ar
     9     8     9   ar
    10     9    10   ar
    11    10    11   ar
    12     4     5   ar
    13     5     1   ar
    14    11     6   ar
@<TRIPOS>MOLECULE
*****
 13 14 0 0 0
SMALL
GASTEIGER

@<TRIPOS>ATOM
      1 C          -4.1991  -19.4381   20.9854 C.ar    1  UNL1        0.1874
      2 C          -5.0043  -20.5047   20.3040 C.ar    1  UNL1        0.0441
      3 C          -6.4341  -20.3491   20.7297 C.ar    1  UNL1        0.0408
      4 C          -6.5127  -19.1864   21.6741 C.ar    1  UNL1        0.1470
      5 O          -5.1314  -18.6234   21.8321 O.2     1  UNL1       -0.4501
      6 C          -7.7546  -18.6763   22.3431 C.ar    1  UNL1        0.0537
      7 C          -8.7627  -19.6428   22.8905 C.ar    1  UNL1        0.0062
      8 C         -10.0045  -19.1327   23.5594 C.ar    1  UNL1        0.0208
      9 C         -10.2383  -17.6560   23.6810 C.ar    1  UNL1        0.0989
     10 N          -9.2303  -16.6895   23.1336 N.ar    1  UNL1       -0.2422
     11 C          -7.9885  -17.1996   22.4647 C.ar    1  UNL1        0.1019
     12 O          -1.7604  -20.2129   21.4351 O.2     1  UNL1       -0.2797
     13 C          -2.7212  -19.2239   20.8446 C.2     1  UNL1        0.2714
@<TRIPOS>BOND
     1    12    13    2
     2    13     1    1
     3     1     2   ar
     4     2     3   ar
     5     3     4   ar
     6     4     6    1
     7     6     7   ar
     8     7     8   ar
     9     8     9   ar
    10     9    10   ar
    11    10    11   ar
    12     4     5   ar
    13     5     1   ar
    14    11     6   ar
@<TRIPOS>MOLECULE
*****
 13 14 0 0 0
SMALL
GASTEIGER

@<TRIPOS>ATOM
      1 C          -6.4539  -19.2097   20.9362 C.ar    1  UNL1        0.1874
      2 C          -6.7534  -20.1831   22.0376 C.ar    1  UNL1        0.0441
      3 C          -8.0997  -19.8418   22.6043 C.ar    1  UNL1        0.0408
      4 C          -8.6321  -18.6575   21.8532 C.ar    1  UNL1        0.1470
      5 O          -7.6149  -18.2669   20.8223 O.2     1  UNL1       -0.4501
      6 C          -9.9503  -17.9824   22.0913 C.ar    1  UNL1        0.0537
      7 C         -11.0174  -18.6786   22.8827 C.ar    1  UNL1        0.0062
      8 C         -12.3355  -18.0035   23.1208 C.ar    1  UNL1        0.0208
      9 C         -12.5865  -16.6321   22.5674 C.ar    1  UNL1        0.0989
     10 N         -11.5194  -15.9359   21.7759 N.ar    1  UNL1       -0.2422
     11 C         -10.2013  -16.6110   21.5379 C.ar    1  UNL1        0.1019
     12 O          -4.0420  -18.3417   20.5127 O.2     1  UNL1       -0.2797
     13 C          -5.2113  -19.1838   20.0963 C.2     1  UNL1        0.2714
@<TRIPOS>BOND
     1    12    13    2
     2    13     1    1
     3     1     2   ar
     4     2     3   ar
     5     3     4   ar
     6     4     6    1
     7     6     7   ar
     8     7     8   ar
     9     8     9   ar
    10     9    10   ar
    11    10    11   ar
    12     4     5   ar
    13     5     1   ar
    14    11     6   ar
@<TRIPOS>MOLECULE
*****
 13 14 0 0 0
SMALL
GASTEIGER

@<TRIPOS>ATOM
      1 C          -8.5086  -16.2110   26.0941 C.ar    1  UNL1        0.1874
      2 C          -9.1045  -17.5576   26.3798 C.ar    1  UNL1        0.0441
      3 C          -9.8548  -18.0009   25.1589 C.ar    1  UNL1        0.0408
      4 C          -9.7226  -16.9282   24.1187 C.ar    1  UNL1        0.1470
      5 O          -8.8907  -15.8220   24.6967 O.2     1  UNL1       -0.4501
      6 C         -10.3180  -16.9568   22.7422 C.ar    1  UNL1        0.0537
      7 C         -11.6846  -16.3860   22.5041 C.ar    1  UNL1        0.0062
      8 C         -12.2798  -16.4146   21.1276 C.ar    1  UNL1        0.0208
      9 C         -11.5086  -17.0139   19.9892 C.ar    1  UNL1        0.0989
     10 N         -10.1420  -17.5847   20.2273 N.ar    1  UNL1       -0.2422
     11 C          -9.5467  -17.5561   21.6038 C.ar    1  UNL1        0.1019
     12 O          -6.2288  -15.1451   26.7394 O.2     1  UNL1       -0.2797
     13 C          -7.6767  -15.3963   27.0399 C.2     1  UNL1        0.2714
@<TRIPOS>BOND
     1    12    13    2
     2    13     1    1
     3     1     2   ar
     4     2     3   ar
     5     3     4   ar
     6     4     6    1
     7     6     7   ar
     8     7     8   ar
     9     8     9   ar
    10     9    10   ar
    11    10    11   ar
    12     4     5   ar
    13     5     1   ar
    14    11     6   ar
