@<TRIPOS>MOLECULE
*****
 33 37 0 0 0
SMALL
GASTEIGER

@<TRIPOS>ATOM
      1 O          -4.5947  -20.8547   20.1680 O.2     1  UNL1       -0.2728
      2 C          -5.7017  -19.9491   20.6203 C.2     1  UNL1        0.2489
      3 N          -7.0601  -20.0538   19.9926 N.am    1  UNL1       -0.2779
      4 C          -7.3114  -21.0642   18.9128 C.3     1  UNL1        0.0935
      5 C          -8.6697  -21.1689   18.2851 C.3     1  UNL1        0.0219
      6 C          -9.7767  -20.2634   18.7372 C.3     1  UNL1        0.0078
      7 C          -9.5254  -19.2531   19.8171 C.3     1  UNL1        0.0419
      8 C          -8.1671  -19.1483   20.4448 C.3     1  UNL1        0.0953
      9 C         -10.6323  -18.3475   20.2693 C.ar    1  UNL1       -0.0209
     10 C         -11.5991  -18.8108   21.3184 C.ar    1  UNL1       -0.0042
     11 C         -12.7061  -17.9051   21.7706 C.ar    1  UNL1       -0.0003
     12 C         -12.8463  -16.5361   21.1737 C.ar    1  UNL1       -0.0000
     13 C         -11.8795  -16.0728   20.1246 C.ar    1  UNL1       -0.0003
     14 C         -10.7725  -16.9785   19.6724 C.ar    1  UNL1       -0.0042
     15 C          -5.4503  -18.9388   21.7001 C.3     1  UNL1        0.1972
     16 N          -4.0629  -18.4178   21.9315 N.ar    1  UNL1       -0.2530
     17 C          -3.4491  -18.1061   23.2642 C.ar    1  UNL1        0.4224
     18 O          -4.1149  -18.2607   24.5994 O.2     1  UNL1       -0.2226
     19 O          -2.0525  -17.6127   23.0272 O.2     1  UNL1       -0.4068
     20 C          -1.8032  -17.6194   21.5481 C.ar    1  UNL1        0.1661
     21 C          -0.6054  -17.2367   20.7304 C.ar    1  UNL1        0.0400
     22 C          -0.6501  -17.3517   19.2355 C.ar    1  UNL1        0.0146
     23 C          -1.8926  -17.8493   18.5583 C.ar    1  UNL1        0.0593
     24 CL         -1.9372  -17.9642   17.0633 Cl      1  UNL1       -0.0822
     25 C          -3.0904  -18.2319   19.3760 C.ar    1  UNL1        0.0319
     26 C          -3.0458  -18.1170   20.8709 C.ar    1  UNL1        0.1013
     27 C          -7.9158  -18.1380   21.5246 C.3     1  UNL1        0.0926
     28 N          -8.5241  -18.3248   22.8829 N.3     1  UNL1       -0.2670
     29 C          -8.6578  -17.1549   23.8121 C.3     1  UNL1        0.1047
     30 C          -9.2661  -17.3417   25.1705 C.3     1  UNL1        0.1595
     31 O          -9.7407  -18.6984   25.5996 O.3     1  UNL1       -0.3508
     32 C          -9.6070  -19.8683   24.6703 C.3     1  UNL1        0.1595
     33 C          -8.9987  -19.6815   23.3120 C.3     1  UNL1        0.1047
@<TRIPOS>BOND
     1     1     2    2
     2     2    15    1
     3    15    16    1
     4    16    17   ar
     5    17    18    2
     6    17    19   ar
     7    19    20   ar
     8    20    21   ar
     9    21    22   ar
    10    22    23   ar
    11    23    24    1
    12    23    25   ar
    13    25    26   ar
    14     2     3   am
    15     3     4    1
    16     4     5    1
    17     5     6    1
    18     6     7    1
    19     7     9    1
    20     9    10   ar
    21    10    11   ar
    22    11    12   ar
    23    12    13   ar
    24    13    14   ar
    25     7     8    1
    26     8    27    1
    27    27    28    1
    28    28    29    1
    29    29    30    1
    30    30    31    1
    31    31    32    1
    32    32    33    1
    33    26    16   ar
    34     8     3    1
    35    33    28    1
    36    26    20   ar
    37    14     9   ar
@<TRIPOS>MOLECULE
*****
 33 37 0 0 0
SMALL
GASTEIGER

@<TRIPOS>ATOM
      1 O          -3.5809  -18.0038   24.0411 O.2     1  UNL1       -0.2728
      2 C          -4.9179  -18.0867   23.3661 C.2     1  UNL1        0.2489
      3 N          -5.9385  -17.0103   23.5891 N.am    1  UNL1       -0.2779
      4 C          -5.6222  -15.8512   24.4870 C.3     1  UNL1        0.0935
      5 C          -6.6429  -14.7748   24.7100 C.3     1  UNL1        0.0219
      6 C          -7.9799  -14.8576   24.0350 C.3     1  UNL1        0.0078
      7 C          -8.2962  -16.0167   23.1371 C.3     1  UNL1        0.0419
      8 C          -7.2755  -17.0931   22.9141 C.3     1  UNL1        0.0953
      9 C          -9.6331  -16.0996   22.4621 C.ar    1  UNL1       -0.0209
     10 C          -9.7640  -15.7434   21.0109 C.ar    1  UNL1       -0.0042
     11 C         -11.1011  -15.8263   20.3359 C.ar    1  UNL1       -0.0003
     12 C         -12.3072  -16.2653   21.1121 C.ar    1  UNL1       -0.0000
     13 C         -12.1763  -16.6215   22.5633 C.ar    1  UNL1       -0.0003
     14 C         -10.8393  -16.5386   23.2383 C.ar    1  UNL1       -0.0042
     15 C          -5.2341  -19.2457   22.4681 C.3     1  UNL1        0.1972
     16 N          -4.4797  -19.4278   21.1845 N.ar    1  UNL1       -0.2530
     17 C          -4.7651  -20.4583   20.1326 C.ar    1  UNL1        0.4224
     18 O          -5.8552  -21.4877   20.1796 O.2     1  UNL1       -0.2226
     19 O          -3.7692  -20.2787   19.0255 O.2     1  UNL1       -0.4068
     20 C          -2.8682  -19.1372   19.3931 C.ar    1  UNL1        0.1661
     21 C          -1.7046  -18.5087   18.6852 C.ar    1  UNL1        0.0400
     22 C          -0.9802  -17.3543   19.3117 C.ar    1  UNL1        0.0146
     23 C          -1.4193  -16.8284   20.6461 C.ar    1  UNL1        0.0593
     24 CL         -0.6949  -15.6740   21.2726 Cl      1  UNL1       -0.0822
     25 C          -2.5829  -17.4569   21.3540 C.ar    1  UNL1        0.0319
     26 C          -3.3073  -18.6113   20.7275 C.ar    1  UNL1        0.1013
     27 C          -7.5918  -18.2522   22.0161 C.3     1  UNL1        0.0926
     28 N          -8.8322  -19.0634   22.2472 N.3     1  UNL1       -0.2670
     29 C          -9.7880  -19.3102   21.1178 C.3     1  UNL1        0.1047
     30 C         -11.0285  -20.1215   21.3489 C.3     1  UNL1        0.1595
     31 O         -11.3130  -20.6858   22.7093 O.3     1  UNL1       -0.3508
     32 C         -10.3571  -20.4388   23.8386 C.3     1  UNL1        0.1595
     33 C          -9.1167  -19.6276   23.6076 C.3     1  UNL1        0.1047
@<TRIPOS>BOND
     1     1     2    2
     2     2    15    1
     3    15    16    1
     4    16    17   ar
     5    17    18    2
     6    17    19   ar
     7    19    20   ar
     8    20    21   ar
     9    21    22   ar
    10    22    23   ar
    11    23    24    1
    12    23    25   ar
    13    25    26   ar
    14     2     3   am
    15     3     4    1
    16     4     5    1
    17     5     6    1
    18     6     7    1
    19     7     9    1
    20     9    10   ar
    21    10    11   ar
    22    11    12   ar
    23    12    13   ar
    24    13    14   ar
    25     7     8    1
    26     8    27    1
    27    27    28    1
    28    28    29    1
    29    29    30    1
    30    30    31    1
    31    31    32    1
    32    32    33    1
    33    26    16   ar
    34     8     3    1
    35    33    28    1
    36    26    20   ar
    37    14     9   ar
@<TRIPOS>MOLECULE
*****
 33 37 0 0 0
SMALL
GASTEIGER

@<TRIPOS>ATOM
      1 O          -4.8759  -20.2005   19.8412 O.2     1  UNL1       -0.2728
      2 C          -5.9119  -19.7639   20.8343 C.2     1  UNL1        0.2489
      3 N          -7.3580  -19.7186   20.4384 N.am    1  UNL1       -0.2779
      4 C          -7.7681  -20.1099   19.0496 C.3     1  UNL1        0.0935
      5 C          -9.2142  -20.0646   18.6538 C.3     1  UNL1        0.0219
      6 C         -10.2503  -19.6281   19.6467 C.3     1  UNL1        0.0078
      7 C          -9.8402  -19.2368   21.0355 C.3     1  UNL1        0.0419
      8 C          -8.3941  -19.2821   21.4314 C.3     1  UNL1        0.0953
      9 C         -10.8762  -18.8002   22.0285 C.ar    1  UNL1       -0.0209
     10 C         -11.7078  -17.5815   21.7581 C.ar    1  UNL1       -0.0042
     11 C         -12.7439  -17.1449   22.7512 C.ar    1  UNL1       -0.0003
     12 C         -12.9483  -17.9272   24.0147 C.ar    1  UNL1       -0.0000
     13 C         -12.1167  -19.1459   24.2851 C.ar    1  UNL1       -0.0003
     14 C         -11.0807  -19.5824   23.2920 C.ar    1  UNL1       -0.0042
     15 C          -5.5018  -19.3726   22.2230 C.3     1  UNL1        0.1972
     16 N          -4.4791  -18.2945   22.4274 N.ar    1  UNL1       -0.2530
     17 C          -4.3616  -17.4076   23.6314 C.ar    1  UNL1        0.4224
     18 O          -5.2460  -17.4431   24.8424 O.2     1  UNL1       -0.2226
     19 O          -3.2043  -16.4790   23.4117 O.2     1  UNL1       -0.4068
     20 C          -2.6066  -16.7919   22.0720 C.ar    1  UNL1        0.1661
     21 C          -1.4467  -16.2001   21.3274 C.ar    1  UNL1        0.0400
     22 C          -1.0747  -16.7304   19.9745 C.ar    1  UNL1        0.0146
     23 C          -1.8627  -17.8525   19.3662 C.ar    1  UNL1        0.0593
     24 CL         -1.4907  -18.3828   18.0132 Cl      1  UNL1       -0.0822
     25 C          -3.0226  -18.4443   20.1107 C.ar    1  UNL1        0.0319
     26 C          -3.3945  -17.9140   21.4636 C.ar    1  UNL1        0.1013
     27 C          -7.9841  -18.8908   22.8201 C.3     1  UNL1        0.0926
     28 N          -8.0871  -17.4597   23.2575 N.3     1  UNL1       -0.2670
     29 C          -7.5681  -16.3657   22.3721 C.3     1  UNL1        0.1047
     30 C          -7.6711  -14.9345   22.8094 C.3     1  UNL1        0.1595
     31 O          -8.2931  -14.5973   24.1320 O.3     1  UNL1       -0.3508
     32 C          -8.8121  -15.6914   25.0174 C.3     1  UNL1        0.1595
     33 C          -8.7091  -17.1225   24.5801 C.3     1  UNL1        0.1047
@<TRIPOS>BOND
     1     1     2    2
     2     2    15    1
     3    15    16    1
     4    16    17   ar
     5    17    18    2
     6    17    19   ar
     7    19    20   ar
     8    20    21   ar
     9    21    22   ar
    10    22    23   ar
    11    23    24    1
    12    23    25   ar
    13    25    26   ar
    14     2     3   am
    15     3     4    1
    16     4     5    1
    17     5     6    1
    18     6     7    1
    19     7     9    1
    20     9    10   ar
    21    10    11   ar
    22    11    12   ar
    23    12    13   ar
    24    13    14   ar
    25     7     8    1
    26     8    27    1
    27    27    28    1
    28    28    29    1
    29    29    30    1
    30    30    31    1
    31    31    32    1
    32    32    33    1
    33    26    16   ar
    34     8     3    1
    35    33    28    1
    36    26    20   ar
    37    14     9   ar
@<TRIPOS>MOLECULE
*****
 33 37 0 0 0
SMALL
GASTEIGER

@<TRIPOS>ATOM
      1 O           5.2379   -0.8851   27.1239 O.2     1  UNL1       -0.2728
      2 C           5.5398   -1.5756   25.8269 C.2     1  UNL1        0.2489
      3 N           4.6439   -1.3700   24.6415 N.am    1  UNL1       -0.2779
      4 C           3.4462   -0.4739   24.7532 C.3     1  UNL1        0.0935
      5 C           2.5502   -0.2682   23.5679 C.3     1  UNL1        0.0219
      6 C           2.8520   -0.9586   22.2709 C.3     1  UNL1        0.0078
      7 C           4.0497   -1.8547   22.1592 C.3     1  UNL1        0.0419
      8 C           4.9457   -2.0603   23.3445 C.3     1  UNL1        0.0953
      9 C           4.3516   -2.5451   20.8622 C.ar    1  UNL1       -0.0209
     10 C           4.0304   -4.0007   20.6949 C.ar    1  UNL1       -0.0042
     11 C           4.3323   -4.6911   19.3978 C.ar    1  UNL1       -0.0003
     12 C           4.9554   -3.9259   18.2681 C.ar    1  UNL1       -0.0000
     13 C           5.2766   -2.4703   18.4355 C.ar    1  UNL1       -0.0003
     14 C           4.9747   -1.7799   19.7325 C.ar    1  UNL1       -0.0042
     15 C           6.7375   -2.4717   25.7153 C.3     1  UNL1        0.1972
     16 N           6.7882   -3.7559   26.4887 N.ar    1  UNL1       -0.2530
     17 C           6.3748   -3.9408   27.9187 C.ar    1  UNL1        0.4224
     18 O           5.8382   -2.8740   28.8264 O.2     1  UNL1       -0.2226
     19 O           6.5922   -5.3799   28.2816 O.2     1  UNL1       -0.4068
     20 C           7.1400   -6.0844   27.0759 C.ar    1  UNL1        0.1661
     21 C           7.5441   -7.5101   26.8439 C.ar    1  UNL1        0.0400
     22 C           8.0694   -7.9322   25.5038 C.ar    1  UNL1        0.0146
     23 C           8.1905   -6.9285   24.3957 C.ar    1  UNL1        0.0593
     24 CL          8.7157   -7.3506   23.0555 Cl      1  UNL1       -0.0822
     25 C           7.7863   -5.5027   24.6277 C.ar    1  UNL1        0.0319
     26 C           7.2611   -5.0807   25.9678 C.ar    1  UNL1        0.1013
     27 C           6.1434   -2.9564   23.2328 C.3     1  UNL1        0.0926
     28 N           7.2515   -2.6124   22.2822 N.3     1  UNL1       -0.2670
     29 C           7.8041   -1.2184   22.2475 C.3     1  UNL1        0.1047
     30 C           8.9122   -0.8743   21.2968 C.3     1  UNL1        0.1595
     31 O           9.4677   -1.9242   20.3808 O.3     1  UNL1       -0.3508
     32 C           8.9150   -3.3183   20.4156 C.3     1  UNL1        0.1595
     33 C           7.8069   -3.6624   21.3662 C.3     1  UNL1        0.1047
@<TRIPOS>BOND
     1     1     2    2
     2     2    15    1
     3    15    16    1
     4    16    17   ar
     5    17    18    2
     6    17    19   ar
     7    19    20   ar
     8    20    21   ar
     9    21    22   ar
    10    22    23   ar
    11    23    24    1
    12    23    25   ar
    13    25    26   ar
    14     2     3   am
    15     3     4    1
    16     4     5    1
    17     5     6    1
    18     6     7    1
    19     7     9    1
    20     9    10   ar
    21    10    11   ar
    22    11    12   ar
    23    12    13   ar
    24    13    14   ar
    25     7     8    1
    26     8    27    1
    27    27    28    1
    28    28    29    1
    29    29    30    1
    30    30    31    1
    31    31    32    1
    32    32    33    1
    33    26    16   ar
    34     8     3    1
    35    33    28    1
    36    26    20   ar
    37    14     9   ar
@<TRIPOS>MOLECULE
*****
 33 37 0 0 0
SMALL
GASTEIGER

@<TRIPOS>ATOM
      1 O          -5.1655  -21.6944   19.9188 O.2     1  UNL1       -0.2728
      2 C          -6.1046  -20.7554   20.6163 C.2     1  UNL1        0.2489
      3 N          -7.4307  -20.4245   19.9983 N.am    1  UNL1       -0.2779
      4 C          -7.8177  -21.0326   18.6828 C.3     1  UNL1        0.0935
      5 C          -9.1438  -20.7017   18.0648 C.3     1  UNL1        0.0219
      6 C         -10.0829  -19.7627   18.7622 C.3     1  UNL1        0.0078
      7 C          -9.6959  -19.1547   20.0777 C.3     1  UNL1        0.0419
      8 C          -8.3698  -19.4856   20.6957 C.3     1  UNL1        0.0953
      9 C         -10.6349  -18.2158   20.7752 C.ar    1  UNL1       -0.0209
     10 C         -10.4095  -16.7348   20.6980 C.ar    1  UNL1       -0.0042
     11 C         -11.3487  -15.7959   21.3956 C.ar    1  UNL1       -0.0003
     12 C         -12.5132  -16.3380   22.1703 C.ar    1  UNL1       -0.0000
     13 C         -12.7385  -17.8189   22.2475 C.ar    1  UNL1       -0.0003
     14 C         -11.7995  -18.7578   21.5499 C.ar    1  UNL1       -0.0042
     15 C          -5.7175  -20.1475   21.9317 C.3     1  UNL1        0.1972
     16 N          -4.6442  -19.1011   21.9876 N.ar    1  UNL1       -0.2530
     17 C          -3.2424  -19.2477   21.4744 C.ar    1  UNL1        0.4224
     18 O          -2.6677  -20.4664   20.8153 O.2     1  UNL1       -0.2226
     19 O          -2.5162  -17.9616   21.7361 O.2     1  UNL1       -0.4068
     20 C          -3.4692  -17.0201   22.4110 C.ar    1  UNL1        0.1661
     21 C          -3.3092  -15.6126   22.9041 C.ar    1  UNL1        0.0400
     22 C          -4.4645  -14.9093   23.5526 C.ar    1  UNL1        0.0146
     23 C          -5.7798  -15.6136   23.7080 C.ar    1  UNL1        0.0593
     24 CL         -6.9351  -14.9102   24.3566 Cl      1  UNL1       -0.0822
     25 C          -5.9397  -17.0211   23.2149 C.ar    1  UNL1        0.0319
     26 C          -4.7844  -17.7244   22.5664 C.ar    1  UNL1        0.1013
     27 C          -7.9828  -18.8776   22.0112 C.3     1  UNL1        0.0926
     28 N          -8.7922  -19.1700   23.2397 N.3     1  UNL1       -0.2670
     29 C          -9.1058  -20.5891   23.6110 C.3     1  UNL1        0.1047
     30 C          -9.9152  -20.8816   24.8396 C.3     1  UNL1        0.1595
     31 O         -10.4111  -19.7550   25.6969 O.3     1  UNL1       -0.3508
     32 C         -10.0974  -18.3359   25.3255 C.3     1  UNL1        0.1595
     33 C          -9.2880  -18.0434   24.0970 C.3     1  UNL1        0.1047
@<TRIPOS>BOND
     1     1     2    2
     2     2    15    1
     3    15    16    1
     4    16    17   ar
     5    17    18    2
     6    17    19   ar
     7    19    20   ar
     8    20    21   ar
     9    21    22   ar
    10    22    23   ar
    11    23    24    1
    12    23    25   ar
    13    25    26   ar
    14     2     3   am
    15     3     4    1
    16     4     5    1
    17     5     6    1
    18     6     7    1
    19     7     9    1
    20     9    10   ar
    21    10    11   ar
    22    11    12   ar
    23    12    13   ar
    24    13    14   ar
    25     7     8    1
    26     8    27    1
    27    27    28    1
    28    28    29    1
    29    29    30    1
    30    30    31    1
    31    31    32    1
    32    32    33    1
    33    26    16   ar
    34     8     3    1
    35    33    28    1
    36    26    20   ar
    37    14     9   ar
@<TRIPOS>MOLECULE
*****
 33 37 0 0 0
SMALL
GASTEIGER

@<TRIPOS>ATOM
      1 O           0.1381    2.0136   24.1693 O.2     1  UNL1       -0.2728
      2 C           1.1653    1.0762   23.6070 C.2     1  UNL1        0.2489
      3 N           1.1851    0.7798   22.1367 N.am    1  UNL1       -0.2779
      4 C           0.1777    1.4207   21.2288 C.3     1  UNL1        0.0935
      5 C           0.1975    1.1243   19.7585 C.3     1  UNL1        0.0219
      6 C           1.2246    0.1869   19.1962 C.3     1  UNL1        0.0078
      7 C           2.2320   -0.4541   20.1041 C.3     1  UNL1        0.0419
      8 C           2.2122   -0.1576   21.5744 C.3     1  UNL1        0.0953
      9 C           3.2592   -1.3914   19.5418 C.ar    1  UNL1       -0.0209
     10 C           3.0921   -2.8730   19.7057 C.ar    1  UNL1       -0.0042
     11 C           4.1194   -3.8104   19.1434 C.ar    1  UNL1       -0.0003
     12 C           5.3137   -3.2661   18.4172 C.ar    1  UNL1       -0.0000
     13 C           5.4808   -1.7845   18.2533 C.ar    1  UNL1       -0.0003
     14 C           4.4536   -0.8472   18.8156 C.ar    1  UNL1       -0.0042
     15 C           2.1726    0.4353   24.5150 C.3     1  UNL1        0.1972
     16 N           2.5343    1.0902   25.8151 N.ar    1  UNL1       -0.2530
     17 C           3.8103    1.8222   26.1086 C.ar    1  UNL1        0.4224
     18 O           4.9485    2.0278   25.1536 O.2     1  UNL1       -0.2226
     19 O           3.7480    2.3125   27.5249 O.2     1  UNL1       -0.4068
     20 C           2.4337    1.8835   28.1066 C.ar    1  UNL1        0.1661
     21 C           1.8230    2.0832   29.4620 C.ar    1  UNL1        0.0400
     22 C           0.4621    1.5275   29.7607 C.ar    1  UNL1        0.0146
     23 C          -0.2880    0.7720   28.7040 C.ar    1  UNL1        0.0593
     24 CL         -1.6489    0.2163   29.0027 Cl      1  UNL1       -0.0822
     25 C           0.3227    0.5724   27.3486 C.ar    1  UNL1        0.0319
     26 C           1.6835    1.1281   27.0499 C.ar    1  UNL1        0.1013
     27 C           3.2196   -0.7985   22.4823 C.3     1  UNL1        0.0926
     28 N           4.6846   -0.5641   22.2616 N.3     1  UNL1       -0.2670
     29 C           5.1937    0.8263   22.0210 C.3     1  UNL1        0.1047
     30 C           6.6588    1.0608   21.8002 C.3     1  UNL1        0.1595
     31 O           7.6147   -0.0949   21.8200 O.3     1  UNL1       -0.3508
     32 C           7.1055   -1.4853   22.0605 C.3     1  UNL1        0.1595
     33 C           5.6405   -1.7198   22.2813 C.3     1  UNL1        0.1047
@<TRIPOS>BOND
     1     1     2    2
     2     2    15    1
     3    15    16    1
     4    16    17   ar
     5    17    18    2
     6    17    19   ar
     7    19    20   ar
     8    20    21   ar
     9    21    22   ar
    10    22    23   ar
    11    23    24    1
    12    23    25   ar
    13    25    26   ar
    14     2     3   am
    15     3     4    1
    16     4     5    1
    17     5     6    1
    18     6     7    1
    19     7     9    1
    20     9    10   ar
    21    10    11   ar
    22    11    12   ar
    23    12    13   ar
    24    13    14   ar
    25     7     8    1
    26     8    27    1
    27    27    28    1
    28    28    29    1
    29    29    30    1
    30    30    31    1
    31    31    32    1
    32    32    33    1
    33    26    16   ar
    34     8     3    1
    35    33    28    1
    36    26    20   ar
    37    14     9   ar
@<TRIPOS>MOLECULE
*****
 33 37 0 0 0
SMALL
GASTEIGER

@<TRIPOS>ATOM
      1 O           1.0160    2.0867   24.6062 O.2     1  UNL1       -0.2728
      2 C           2.0124    1.2189   23.8959 C.2     1  UNL1        0.2489
      3 N           1.7287    0.7358   22.5045 N.am    1  UNL1       -0.2779
      4 C           0.4488    1.1204   21.8233 C.3     1  UNL1        0.0935
      5 C           0.1652    0.6373   20.4319 C.3     1  UNL1        0.0219
      6 C           1.1614   -0.2304   19.7215 C.3     1  UNL1        0.0078
      7 C           2.4413   -0.6150   20.4027 C.3     1  UNL1        0.0419
      8 C           2.7250   -0.1319   21.7941 C.3     1  UNL1        0.0953
      9 C           3.4376   -1.4826   19.6924 C.ar    1  UNL1       -0.0209
     10 C           4.3755   -0.8806   18.6885 C.ar    1  UNL1       -0.0042
     11 C           5.3718   -1.7484   17.9782 C.ar    1  UNL1       -0.0003
     12 C           5.4302   -3.2182   18.2720 C.ar    1  UNL1       -0.0000
     13 C           4.4924   -3.8202   19.2759 C.ar    1  UNL1       -0.0003
     14 C           3.4961   -2.9525   19.9861 C.ar    1  UNL1       -0.0042
     15 C           3.2922    0.8344   24.5771 C.3     1  UNL1        0.1972
     16 N           3.2560    0.0314   25.8435 N.ar    1  UNL1       -0.2530
     17 C           3.8382   -1.3374   26.0365 C.ar    1  UNL1        0.4224
     18 O           4.5589   -2.1436   24.9969 O.2     1  UNL1       -0.2226
     19 O           3.5732   -1.7585   27.4516 O.2     1  UNL1       -0.4068
     20 C           2.8272   -0.6499   28.1332 C.ar    1  UNL1        0.1661
     21 C           2.3012   -0.5049   29.5303 C.ar    1  UNL1        0.0400
     22 C           1.5790    0.7464   29.9337 C.ar    1  UNL1        0.0146
     23 C           1.3830    1.8527   28.9398 C.ar    1  UNL1        0.0593
     24 CL          0.6608    3.1040   29.3432 Cl      1  UNL1       -0.0822
     25 C           1.9090    1.7076   27.5426 C.ar    1  UNL1        0.0319
     26 C           2.6312    0.4563   27.1393 C.ar    1  UNL1        0.1013
     27 C           4.0049   -0.5164   22.4753 C.3     1  UNL1        0.0926
     28 N           5.3178   -0.0384   21.9298 N.3     1  UNL1       -0.2670
     29 C           6.4586   -0.9994   21.7712 C.3     1  UNL1        0.1047
     30 C           7.7716   -0.5214   21.2257 C.3     1  UNL1        0.1595
     31 O           7.9439    0.9175   20.8387 O.3     1  UNL1       -0.3508
     32 C           6.8031    1.8785   20.9973 C.3     1  UNL1        0.1595
     33 C           5.4901    1.4005   21.5428 C.3     1  UNL1        0.1047
@<TRIPOS>BOND
     1     1     2    2
     2     2    15    1
     3    15    16    1
     4    16    17   ar
     5    17    18    2
     6    17    19   ar
     7    19    20   ar
     8    20    21   ar
     9    21    22   ar
    10    22    23   ar
    11    23    24    1
    12    23    25   ar
    13    25    26   ar
    14     2     3   am
    15     3     4    1
    16     4     5    1
    17     5     6    1
    18     6     7    1
    19     7     9    1
    20     9    10   ar
    21    10    11   ar
    22    11    12   ar
    23    12    13   ar
    24    13    14   ar
    25     7     8    1
    26     8    27    1
    27    27    28    1
    28    28    29    1
    29    29    30    1
    30    30    31    1
    31    31    32    1
    32    32    33    1
    33    26    16   ar
    34     8     3    1
    35    33    28    1
    36    26    20   ar
    37    14     9   ar
@<TRIPOS>MOLECULE
*****
 33 37 0 0 0
SMALL
GASTEIGER

@<TRIPOS>ATOM
      1 O           0.7210    1.7904   20.2460 O.2     1  UNL1       -0.2728
      2 C           1.0105    1.4017   21.6656 C.2     1  UNL1        0.2489
      3 N           0.2159    2.0055   22.7854 N.am    1  UNL1       -0.2779
      4 C          -0.8682    2.9980   22.4856 C.3     1  UNL1        0.0935
      5 C          -1.6628    3.6018   23.6054 C.3     1  UNL1        0.0219
      6 C          -1.3734    3.2131   25.0250 C.3     1  UNL1        0.0078
      7 C          -0.2894    2.2207   25.3248 C.3     1  UNL1        0.0419
      8 C           0.5052    1.6169   24.2049 C.3     1  UNL1        0.0953
      9 C           0.0001    1.8320   26.7443 C.ar    1  UNL1       -0.0209
     10 C          -0.5889    0.5750   27.3128 C.ar    1  UNL1       -0.0042
     11 C          -0.2994    0.1863   28.7324 C.ar    1  UNL1       -0.0003
     12 C           0.5791    1.0546   29.5834 C.ar    1  UNL1       -0.0000
     13 C           1.1681    2.3116   29.0150 C.ar    1  UNL1       -0.0003
     14 C           0.8786    2.7002   27.5954 C.ar    1  UNL1       -0.0042
     15 C           2.0945    0.4093   21.9652 C.3     1  UNL1        0.1972
     16 N           3.3152    0.3464   21.0958 N.ar    1  UNL1       -0.2530
     17 C           4.3125    1.4488   20.8952 C.ar    1  UNL1        0.4224
     18 O           4.2642    2.8075   21.5288 O.2     1  UNL1       -0.2226
     19 O           5.3665    0.9538   19.9497 O.2     1  UNL1       -0.4068
     20 C           5.0207   -0.4544   19.5659 C.ar    1  UNL1        0.1661
     21 C           5.6964   -1.4434   18.6630 C.ar    1  UNL1        0.0400
     22 C           5.1043   -2.8078   18.4684 C.ar    1  UNL1        0.0146
     23 C           3.8365   -3.1831   19.1768 C.ar    1  UNL1        0.0593
     24 CL          3.2444   -4.5476   18.9822 Cl      1  UNL1       -0.0822
     25 C           3.1608   -2.1942   20.0797 C.ar    1  UNL1        0.0319
     26 C           3.7529   -0.8298   20.2743 C.ar    1  UNL1        0.1013
     27 C           1.5893    0.6244   24.5047 C.3     1  UNL1        0.0926
     28 N           2.8035    1.0499   25.2758 N.3     1  UNL1       -0.2670
     29 C           3.5044    2.3289   24.9252 C.3     1  UNL1        0.1047
     30 C           4.7187    2.7544   25.6963 C.3     1  UNL1        0.1595
     31 O           5.2319    1.9011   26.8181 O.3     1  UNL1       -0.3508
     32 C           4.5309    0.6221   27.1687 C.3     1  UNL1        0.1595
     33 C           3.3167    0.1965   26.3976 C.3     1  UNL1        0.1047
@<TRIPOS>BOND
     1     1     2    2
     2     2    15    1
     3    15    16    1
     4    16    17   ar
     5    17    18    2
     6    17    19   ar
     7    19    20   ar
     8    20    21   ar
     9    21    22   ar
    10    22    23   ar
    11    23    24    1
    12    23    25   ar
    13    25    26   ar
    14     2     3   am
    15     3     4    1
    16     4     5    1
    17     5     6    1
    18     6     7    1
    19     7     9    1
    20     9    10   ar
    21    10    11   ar
    22    11    12   ar
    23    12    13   ar
    24    13    14   ar
    25     7     8    1
    26     8    27    1
    27    27    28    1
    28    28    29    1
    29    29    30    1
    30    30    31    1
    31    31    32    1
    32    32    33    1
    33    26    16   ar
    34     8     3    1
    35    33    28    1
    36    26    20   ar
    37    14     9   ar
@<TRIPOS>MOLECULE
*****
 33 37 0 0 0
SMALL
GASTEIGER

@<TRIPOS>ATOM
      1 O           7.4018   -4.7550   22.1242 O.2     1  UNL1       -0.2728
      2 C           6.5351   -3.5445   21.9409 C.2     1  UNL1        0.2489
      3 N           5.4613   -3.5426   20.8935 N.am    1  UNL1       -0.2779
      4 C           5.2542   -4.7512   20.0295 C.3     1  UNL1        0.0935
      5 C           4.1805   -4.7494   18.9822 C.3     1  UNL1        0.0219
      6 C           3.3138   -3.5390   18.7987 C.3     1  UNL1        0.0078
      7 C           3.5208   -2.3304   19.6627 C.3     1  UNL1        0.0419
      8 C           4.5946   -2.3322   20.7101 C.3     1  UNL1        0.0953
      9 C           2.6542   -1.1199   19.4793 C.ar    1  UNL1       -0.0209
     10 C           2.9840   -0.1155   18.4152 C.ar    1  UNL1       -0.0042
     11 C           2.1173    1.0951   18.2319 C.ar    1  UNL1       -0.0003
     12 C           0.9207    1.3010   19.1127 C.ar    1  UNL1       -0.0000
     13 C           0.5908    0.2966   20.1767 C.ar    1  UNL1       -0.0003
     14 C           1.4575   -0.9139   20.3600 C.ar    1  UNL1       -0.0042
     15 C           6.7422   -2.3360   22.8048 C.3     1  UNL1        0.1972
     16 N           6.6663   -2.4593   24.2978 N.ar    1  UNL1       -0.2530
     17 C           7.6252   -3.2142   25.1700 C.ar    1  UNL1        0.4224
     18 O           8.8284   -3.9782   24.7023 O.2     1  UNL1       -0.2226
     19 O           7.1698   -3.0709   26.5919 O.2     1  UNL1       -0.4068
     20 C           5.9294   -2.2274   26.5986 C.ar    1  UNL1        0.1661
     21 C           5.0430   -1.7547   27.7125 C.ar    1  UNL1        0.0400
     22 C           3.8455   -0.9041   27.4086 C.ar    1  UNL1        0.0146
     23 C           3.5344   -0.5261   25.9908 C.ar    1  UNL1        0.0593
     24 CL          2.3369    0.3246   25.6869 Cl      1  UNL1       -0.0822
     25 C           4.4208   -0.9988   24.8768 C.ar    1  UNL1        0.0319
     26 C           5.6182   -1.8495   25.1807 C.ar    1  UNL1        0.1013
     27 C           4.8017   -1.1236   21.5740 C.3     1  UNL1        0.0926
     28 N           5.2851    0.1594   20.9656 N.3     1  UNL1       -0.2670
     29 C           6.4211    0.1436   19.9862 C.3     1  UNL1        0.1047
     30 C           6.9046    1.4267   19.3777 C.3     1  UNL1        0.1595
     31 O           6.2521    2.7254   19.7486 O.3     1  UNL1       -0.3508
     32 C           5.1160    2.7410   20.7281 C.3     1  UNL1        0.1595
     33 C           4.6326    1.4581   21.3365 C.3     1  UNL1        0.1047
@<TRIPOS>BOND
     1     1     2    2
     2     2    15    1
     3    15    16    1
     4    16    17   ar
     5    17    18    2
     6    17    19   ar
     7    19    20   ar
     8    20    21   ar
     9    21    22   ar
    10    22    23   ar
    11    23    24    1
    12    23    25   ar
    13    25    26   ar
    14     2     3   am
    15     3     4    1
    16     4     5    1
    17     5     6    1
    18     6     7    1
    19     7     9    1
    20     9    10   ar
    21    10    11   ar
    22    11    12   ar
    23    12    13   ar
    24    13    14   ar
    25     7     8    1
    26     8    27    1
    27    27    28    1
    28    28    29    1
    29    29    30    1
    30    30    31    1
    31    31    32    1
    32    32    33    1
    33    26    16   ar
    34     8     3    1
    35    33    28    1
    36    26    20   ar
    37    14     9   ar
