@<TRIPOS>MOLECULE
*****
 33 35 0 0 0
SMALL
GASTEIGER

@<TRIPOS>ATOM
      1 N           0.5390    2.3649   20.6291 N.am    1  UNL1       -0.2837
      2 C           0.7903    0.9075   20.3788 C.2     1  UNL1        0.2297
      3 O          -0.2558   -0.1062   20.7366 O.2     1  UNL1       -0.2744
      4 H           1.2256    3.0303   20.3943 H       1  UNL1        0.1549
      5 C          -3.3532    3.6963   22.4534 C.ar    1  UNL1        0.0002
      6 C          -3.2719    3.4149   20.9823 C.ar    1  UNL1        0.0013
      7 C          -1.9745    2.9711   20.3742 C.ar    1  UNL1        0.0147
      8 C          -0.7584    2.8087   21.2372 C.ar    1  UNL1        0.0503
      9 C          -0.8397    3.0901   22.7083 C.ar    1  UNL1        0.0147
     10 C          -2.1372    3.5339   23.3164 C.ar    1  UNL1        0.0013
     11 C          -6.0055    5.6381   26.4776 C.3     1  UNL1        0.0521
     12 C          -5.9768    5.1110   25.0736 C.ar    1  UNL1        0.0594
     13 C          -4.6794    4.6672   24.4655 C.ar    1  UNL1        0.0147
     14 C          -4.6507    4.1401   23.0615 C.ar    1  UNL1        0.0027
     15 C          -5.9193    4.0567   22.2655 C.ar    1  UNL1        0.0207
     16 C          -7.2167    4.5005   22.8736 C.ar    1  UNL1        0.0984
     17 N          -7.2454    5.0276   24.2777 N.ar    1  UNL1       -0.2481
     18 C           2.0877    0.4637   19.7707 C.3     1  UNL1        0.0990
     19 C           2.6596    1.2058   18.5994 C.3     1  UNL1        0.0143
     20 C           2.8132   -0.7223   20.3340 C.ar    1  UNL1       -0.0140
     21 C           3.2061   -1.8573   19.4355 C.ar    1  UNL1        0.0000
     22 C           3.9316   -3.0431   19.9988 C.ar    1  UNL1        0.0711
     23 C           4.2641   -3.0940   21.4606 C.ar    1  UNL1        0.0077
     24 C           3.8712   -1.9591   22.3591 C.ar    1  UNL1        0.0711
     25 C           3.1457   -0.7732   21.7958 C.ar    1  UNL1        0.0000
     26 C           4.3246   -4.1782   19.1003 C.3     1  UNL1        0.4186
     27 F           4.7176   -5.3132   18.2018 F       1  UNL1       -0.1659
     28 F           5.7711   -3.8342   19.2985 F       1  UNL1       -0.1659
     29 F           2.8781   -4.5222   18.9020 F       1  UNL1       -0.1659
     30 C           4.2037   -2.0100   23.8209 C.3     1  UNL1        0.4186
     31 F           4.5362   -2.0609   25.2827 F       1  UNL1       -0.1659
     32 F           5.1912   -3.1080   23.5580 F       1  UNL1       -0.1659
     33 F           3.2162   -0.9119   24.0837 F       1  UNL1       -0.1659
@<TRIPOS>BOND
     1    11    12    1
     2    12    13   ar
     3    13    14   ar
     4    14     5    1
     5     5     6   ar
     6     6     7   ar
     7     7     8   ar
     8     8     1    1
     9     1     2   am
    10     2     3    2
    11     2    18    1
    12    18    19    1
    13    18    20    1
    14    20    21   ar
    15    21    22   ar
    16    22    26    1
    17    26    27    1
    18    26    28    1
    19    26    29    1
    20    22    23   ar
    21    23    24   ar
    22    24    30    1
    23    30    31    1
    24    30    32    1
    25    30    33    1
    26    24    25   ar
    27     8     9   ar
    28     9    10   ar
    29    14    15   ar
    30    15    16   ar
    31    16    17   ar
    32    17    12   ar
    33    10     5   ar
    34    25    20   ar
    35     1     4    1
@<TRIPOS>MOLECULE
*****
 33 35 0 0 0
SMALL
GASTEIGER

@<TRIPOS>ATOM
      1 N           0.5584    2.3671   20.6625 N.am    1  UNL1       -0.2837
      2 C           0.8019    0.9122   20.3904 C.2     1  UNL1        0.2297
      3 O          -0.2526   -0.1003   20.7264 O.2     1  UNL1       -0.2744
      4 H           1.2505    3.0317   20.4420 H       1  UNL1        0.1549
      5 C          -3.3352    3.6943   22.4868 C.ar    1  UNL1        0.0002
      6 C          -2.1206    3.5269   23.3509 C.ar    1  UNL1        0.0013
      7 C          -0.8227    3.0846   22.7428 C.ar    1  UNL1        0.0147
      8 C          -0.7394    2.8095   21.2706 C.ar    1  UNL1        0.0503
      9 C          -1.9540    2.9768   20.4065 C.ar    1  UNL1        0.0147
     10 C          -3.2520    3.4192   21.0146 C.ar    1  UNL1        0.0013
     11 C          -5.9872    5.6468   26.5061 C.3     1  UNL1        0.0521
     12 C          -5.9591    5.1129   25.1046 C.ar    1  UNL1        0.0594
     13 C          -4.6613    4.6705   24.4964 C.ar    1  UNL1        0.0147
     14 C          -4.6331    4.1367   23.0949 C.ar    1  UNL1        0.0027
     15 C          -5.9028    4.0452   22.3016 C.ar    1  UNL1        0.0207
     16 C          -7.2007    4.4876   22.9097 C.ar    1  UNL1        0.0984
     17 N          -7.2288    5.0214   24.3112 N.ar    1  UNL1       -0.2481
     18 C           2.0997    0.4698   19.7824 C.3     1  UNL1        0.0990
     19 C           2.6726    1.2147   18.6132 C.3     1  UNL1        0.0143
     20 C           2.8248   -0.7174   20.3435 C.ar    1  UNL1       -0.0140
     21 C           3.1685   -0.7654   21.8028 C.ar    1  UNL1        0.0000
     22 C           3.8935   -1.9526   22.3639 C.ar    1  UNL1        0.0711
     23 C           4.2748   -3.0918   21.4657 C.ar    1  UNL1        0.0077
     24 C           3.9312   -3.0438   20.0064 C.ar    1  UNL1        0.0711
     25 C           3.2061   -1.8566   19.4453 C.ar    1  UNL1        0.0000
     26 C           4.2372   -2.0006   23.8232 C.3     1  UNL1        0.4186
     27 F           4.5810   -2.0487   25.2825 F       1  UNL1       -0.1659
     28 F           4.9650   -3.2946   23.6091 F       1  UNL1       -0.1659
     29 F           3.5094   -0.7066   24.0373 F       1  UNL1       -0.1659
     30 C           4.3125   -4.1830   19.1082 C.3     1  UNL1        0.4186
     31 F           4.6938   -5.3223   18.2100 F       1  UNL1       -0.1659
     32 F           2.8630   -4.5199   18.9200 F       1  UNL1       -0.1659
     33 F           5.7620   -3.8462   19.2964 F       1  UNL1       -0.1659
@<TRIPOS>BOND
     1    11    12    1
     2    12    13   ar
     3    13    14   ar
     4    14     5    1
     5     5     6   ar
     6     6     7   ar
     7     7     8   ar
     8     8     1    1
     9     1     2   am
    10     2     3    2
    11     2    18    1
    12    18    19    1
    13    18    20    1
    14    20    21   ar
    15    21    22   ar
    16    22    26    1
    17    26    27    1
    18    26    28    1
    19    26    29    1
    20    22    23   ar
    21    23    24   ar
    22    24    30    1
    23    30    31    1
    24    30    32    1
    25    30    33    1
    26    24    25   ar
    27     8     9   ar
    28     9    10   ar
    29    14    15   ar
    30    15    16   ar
    31    16    17   ar
    32    17    12   ar
    33    10     5   ar
    34    25    20   ar
    35     1     4    1
@<TRIPOS>MOLECULE
*****
 33 35 0 0 0
SMALL
GASTEIGER

@<TRIPOS>ATOM
      1 N           1.6096    1.4812   22.0803 N.am    1  UNL1       -0.2837
      2 C           1.1220    0.5617   21.0002 C.2     1  UNL1        0.2297
      3 O          -0.3479    0.3129   20.8340 O.2     1  UNL1       -0.2744
      4 H           2.5743    1.6445   22.1893 H       1  UNL1        0.1549
      5 C          -1.3370    3.4936   24.8221 C.ar    1  UNL1        0.0002
      6 C          -0.6641    2.2223   25.2475 C.ar    1  UNL1        0.0013
      7 C           0.3181    1.5515   24.3335 C.ar    1  UNL1        0.0147
      8 C           0.6274    2.1520   22.9942 C.ar    1  UNL1        0.0503
      9 C          -0.0456    3.4233   22.5688 C.ar    1  UNL1        0.0147
     10 C          -1.0278    4.0941   23.4828 C.ar    1  UNL1        0.0013
     11 C          -2.3594    6.9100   28.6014 C.3     1  UNL1        0.0521
     12 C          -2.8304    5.8726   27.6257 C.ar    1  UNL1        0.0594
     13 C          -1.8483    5.2018   26.7117 C.ar    1  UNL1        0.0147
     14 C          -2.3193    4.1644   25.7361 C.ar    1  UNL1        0.0027
     15 C          -3.7724    3.7977   25.6744 C.ar    1  UNL1        0.0207
     16 C          -4.7546    4.4685   26.5884 C.ar    1  UNL1        0.0984
     17 N          -4.2836    5.5059   27.5640 N.ar    1  UNL1       -0.2481
     18 C           2.1042   -0.1091   20.0862 C.3     1  UNL1        0.0990
     19 C           2.2608    0.3686   18.6730 C.3     1  UNL1        0.0143
     20 C           2.9298   -1.2576   20.5856 C.ar    1  UNL1       -0.0140
     21 C           3.4019   -1.2789   22.0091 C.ar    1  UNL1        0.0000
     22 C           4.2275   -2.4274   22.5084 C.ar    1  UNL1        0.0711
     23 C           4.5810   -3.5547   21.5840 C.ar    1  UNL1        0.0077
     24 C           4.1089   -3.5334   20.1605 C.ar    1  UNL1        0.0711
     25 C           3.2833   -2.3849   19.6612 C.ar    1  UNL1        0.0000
     26 C           4.6996   -2.4487   23.9320 C.3     1  UNL1        0.4186
     27 F           5.1717   -2.4700   25.3556 F       1  UNL1       -0.1659
     28 F           3.7962   -1.2940   24.2489 F       1  UNL1       -0.1659
     29 F           5.6031   -3.6034   23.6152 F       1  UNL1       -0.1659
     30 C           4.4623   -4.6606   19.2361 C.3     1  UNL1        0.4186
     31 F           4.8158   -5.7879   18.3118 F       1  UNL1       -0.1659
     32 F           3.0475   -4.6969   18.7394 F       1  UNL1       -0.1659
     33 F           5.8772   -4.6243   19.7329 F       1  UNL1       -0.1659
@<TRIPOS>BOND
     1    11    12    1
     2    12    13   ar
     3    13    14   ar
     4    14     5    1
     5     5     6   ar
     6     6     7   ar
     7     7     8   ar
     8     8     1    1
     9     1     2   am
    10     2     3    2
    11     2    18    1
    12    18    19    1
    13    18    20    1
    14    20    21   ar
    15    21    22   ar
    16    22    26    1
    17    26    27    1
    18    26    28    1
    19    26    29    1
    20    22    23   ar
    21    23    24   ar
    22    24    30    1
    23    30    31    1
    24    30    32    1
    25    30    33    1
    26    24    25   ar
    27     8     9   ar
    28     9    10   ar
    29    14    15   ar
    30    15    16   ar
    31    16    17   ar
    32    17    12   ar
    33    10     5   ar
    34    25    20   ar
    35     1     4    1
@<TRIPOS>MOLECULE
*****
 33 35 0 0 0
SMALL
GASTEIGER

@<TRIPOS>ATOM
      1 N          -1.0731    2.2522   20.3578 N.am    1  UNL1       -0.2837
      2 C          -0.8632    3.6995   20.6914 C.2     1  UNL1        0.2297
      3 O           0.5161    4.2872   20.6464 O.2     1  UNL1       -0.2744
      4 H          -1.9784    1.8665   20.3874 H       1  UNL1        0.1549
      5 C           2.4353   -0.3266   19.2218 C.ar    1  UNL1        0.0002
      6 C           1.7332   -0.5488   20.5286 C.ar    1  UNL1        0.0013
      7 C           0.5637    0.3108   20.9073 C.ar    1  UNL1        0.0147
      8 C           0.0964    1.3926   19.9792 C.ar    1  UNL1        0.0503
      9 C           0.7985    1.6148   18.6724 C.ar    1  UNL1        0.0147
     10 C           1.9680    0.7551   18.2937 C.ar    1  UNL1        0.0013
     11 C           4.6362   -5.0185   18.8448 C.3     1  UNL1        0.0521
     12 C           4.7053   -3.5322   18.6547 C.ar    1  UNL1        0.0594
     13 C           3.5358   -2.6726   19.0333 C.ar    1  UNL1        0.0147
     14 C           3.6049   -1.1863   18.8432 C.ar    1  UNL1        0.0027
     15 C           4.8433   -0.5596   18.2744 C.ar    1  UNL1        0.0207
     16 C           6.0127   -1.4193   17.8958 C.ar    1  UNL1        0.0984
     17 N           5.9437   -2.9056   18.0859 N.ar    1  UNL1       -0.2481
     18 C          -2.0327    4.5591   21.0701 C.3     1  UNL1        0.0990
     19 C          -2.3879    5.7529   20.2342 C.3     1  UNL1        0.0143
     20 C          -2.8471    4.2249   22.2847 C.ar    1  UNL1       -0.0140
     21 C          -4.3427    4.3284   22.2367 C.ar    1  UNL1        0.0000
     22 C          -5.1569    3.9942   23.4513 C.ar    1  UNL1        0.0711
     23 C          -4.4756    3.5565   24.7139 C.ar    1  UNL1        0.0077
     24 C          -2.9800    3.4530   24.7619 C.ar    1  UNL1        0.0711
     25 C          -2.1657    3.7872   23.5473 C.ar    1  UNL1        0.0000
     26 C          -6.6526    4.0978   23.4033 C.3     1  UNL1        0.4186
     27 F          -8.1483    4.2013   23.3553 F       1  UNL1       -0.1659
     28 F          -6.6182    3.9052   21.9162 F       1  UNL1       -0.1659
     29 F          -6.6871    4.2903   24.8905 F       1  UNL1       -0.1659
     30 C          -2.2986    3.0152   26.0245 C.3     1  UNL1        0.4186
     31 F          -1.6173    2.5775   27.2871 F       1  UNL1       -0.1659
     32 F          -3.3970    3.6390   26.8335 F       1  UNL1       -0.1659
     33 F          -1.2002    2.3915   25.2155 F       1  UNL1       -0.1659
@<TRIPOS>BOND
     1    11    12    1
     2    12    13   ar
     3    13    14   ar
     4    14     5    1
     5     5     6   ar
     6     6     7   ar
     7     7     8   ar
     8     8     1    1
     9     1     2   am
    10     2     3    2
    11     2    18    1
    12    18    19    1
    13    18    20    1
    14    20    21   ar
    15    21    22   ar
    16    22    26    1
    17    26    27    1
    18    26    28    1
    19    26    29    1
    20    22    23   ar
    21    23    24   ar
    22    24    30    1
    23    30    31    1
    24    30    32    1
    25    30    33    1
    26    24    25   ar
    27     8     9   ar
    28     9    10   ar
    29    14    15   ar
    30    15    16   ar
    31    16    17   ar
    32    17    12   ar
    33    10     5   ar
    34    25    20   ar
    35     1     4    1
@<TRIPOS>MOLECULE
*****
 33 35 0 0 0
SMALL
GASTEIGER

@<TRIPOS>ATOM
      1 N          -1.1403    2.2022   20.3201 N.am    1  UNL1       -0.2837
      2 C          -0.9443    3.5636   20.9187 C.2     1  UNL1        0.2297
      3 O           0.4415    4.0919   21.1429 O.2     1  UNL1       -0.2744
      4 H          -2.0499    1.8555   20.1730 H       1  UNL1        0.1549
      5 C           2.4294   -0.2970   19.1970 C.ar    1  UNL1        0.0002
      6 C           1.6887   -0.5770   20.4710 C.ar    1  UNL1        0.0013
      7 C           0.4989    0.2561   20.8454 C.ar    1  UNL1        0.0147
      8 C           0.0496    1.3692   19.9457 C.ar    1  UNL1        0.0503
      9 C           0.7902    1.6491   18.6717 C.ar    1  UNL1        0.0147
     10 C           1.9802    0.8160   18.2974 C.ar    1  UNL1        0.0013
     11 C           4.7167   -4.9437   18.7773 C.3     1  UNL1        0.0521
     12 C           4.7629   -3.4535   18.6128 C.ar    1  UNL1        0.0594
     13 C           3.5731   -2.6204   18.9871 C.ar    1  UNL1        0.0147
     14 C           3.6193   -1.1301   18.8226 C.ar    1  UNL1        0.0027
     15 C           4.8553   -0.4730   18.2838 C.ar    1  UNL1        0.0207
     16 C           6.0451   -1.3062   17.9095 C.ar    1  UNL1        0.0984
     17 N           5.9989   -2.7964   18.0740 N.ar    1  UNL1       -0.2481
     18 C          -2.1341    4.3967   21.2931 C.3     1  UNL1        0.0990
     19 C          -2.6113    5.4797   20.3715 C.3     1  UNL1        0.0143
     20 C          -2.8469    4.1467   22.5891 C.ar    1  UNL1       -0.0140
     21 C          -2.0781    3.6819   23.7903 C.ar    1  UNL1        0.0000
     22 C          -2.7909    3.4319   25.0862 C.ar    1  UNL1        0.0711
     23 C          -4.2724    3.6467   25.1809 C.ar    1  UNL1        0.0077
     24 C          -5.0412    4.1115   23.9797 C.ar    1  UNL1        0.0711
     25 C          -4.3284    4.3615   22.6838 C.ar    1  UNL1        0.0000
     26 C          -2.0221    2.9671   26.2875 C.3     1  UNL1        0.4186
     27 F          -1.2535    2.5023   27.4888 F       1  UNL1       -0.1659
     28 F          -3.1842    3.3203   27.1677 F       1  UNL1       -0.1659
     29 F          -0.8601    2.6139   25.4073 F       1  UNL1       -0.1659
     30 C          -6.5227    4.3263   24.0744 C.3     1  UNL1        0.4186
     31 F          -8.0042    4.5412   24.1691 F       1  UNL1       -0.1659
     32 F          -6.6857    3.8206   22.6717 F       1  UNL1       -0.1659
     33 F          -6.3597    4.8321   25.4771 F       1  UNL1       -0.1659
@<TRIPOS>BOND
     1    11    12    1
     2    12    13   ar
     3    13    14   ar
     4    14     5    1
     5     5     6   ar
     6     6     7   ar
     7     7     8   ar
     8     8     1    1
     9     1     2   am
    10     2     3    2
    11     2    18    1
    12    18    19    1
    13    18    20    1
    14    20    21   ar
    15    21    22   ar
    16    22    26    1
    17    26    27    1
    18    26    28    1
    19    26    29    1
    20    22    23   ar
    21    23    24   ar
    22    24    30    1
    23    30    31    1
    24    30    32    1
    25    30    33    1
    26    24    25   ar
    27     8     9   ar
    28     9    10   ar
    29    14    15   ar
    30    15    16   ar
    31    16    17   ar
    32    17    12   ar
    33    10     5   ar
    34    25    20   ar
    35     1     4    1
@<TRIPOS>MOLECULE
*****
 33 35 0 0 0
SMALL
GASTEIGER

@<TRIPOS>ATOM
      1 N           0.9767    0.2141   24.6186 N.am    1  UNL1       -0.2837
      2 C           2.4355    0.4495   24.3608 C.2     1  UNL1        0.2297
      3 O           3.0475    1.7820   24.6768 O.2     1  UNL1       -0.2744
      4 H           0.5750   -0.6604   24.4112 H       1  UNL1        0.1549
      5 C          -1.5638    3.5055   26.3399 C.ar    1  UNL1        0.0002
      6 C          -1.0730    2.3969   27.2232 C.ar    1  UNL1        0.0013
      7 C          -0.2262    1.2998   26.6495 C.ar    1  UNL1        0.0147
      8 C           0.1299    1.3112   25.1923 C.ar    1  UNL1        0.0503
      9 C          -0.3609    2.4198   24.3090 C.ar    1  UNL1        0.0147
     10 C          -1.2077    3.5170   24.8828 C.ar    1  UNL1        0.0013
     11 C          -6.1980    5.7883   26.8996 C.3     1  UNL1        0.0521
     12 C          -4.7277    5.7440   27.1935 C.ar    1  UNL1        0.0594
     13 C          -3.8809    4.6469   26.6198 C.ar    1  UNL1        0.0147
     14 C          -2.4106    4.6026   26.9137 C.ar    1  UNL1        0.0027
     15 C          -1.7872    5.6554   27.7814 C.ar    1  UNL1        0.0207
     16 C          -2.6341    6.7525   28.3552 C.ar    1  UNL1        0.0984
     17 N          -4.1043    6.7968   28.0612 N.ar    1  UNL1       -0.2481
     18 C           3.2823   -0.6476   23.7871 C.3     1  UNL1        0.0990
     19 C           4.2546   -1.3806   24.6631 C.3     1  UNL1        0.0143
     20 C           3.1569   -1.0117   22.3373 C.ar    1  UNL1       -0.0140
     21 C           2.3270   -0.1633   21.4200 C.ar    1  UNL1        0.0000
     22 C           2.2016   -0.5274   19.9704 C.ar    1  UNL1        0.0711
     23 C           2.9060   -1.7400   19.4380 C.ar    1  UNL1        0.0077
     24 C           3.7359   -2.5884   20.3552 C.ar    1  UNL1        0.0711
     25 C           3.8613   -2.2242   21.8049 C.ar    1  UNL1        0.0000
     26 C           1.3717    0.3210   19.0530 C.3     1  UNL1        0.4186
     27 F           0.5417    1.1694   18.1357 F       1  UNL1       -0.1659
     28 F           0.2073    0.1952   19.9901 F       1  UNL1       -0.1659
     29 F           2.5361    0.4468   18.1159 F       1  UNL1       -0.1659
     30 C           4.4404   -3.8009   19.8228 C.3     1  UNL1        0.4186
     31 F           5.1448   -5.0135   19.2904 F       1  UNL1       -0.1659
     32 F           3.4148   -3.9189   18.7346 F       1  UNL1       -0.1659
     33 F           5.4660   -3.6829   20.9111 F       1  UNL1       -0.1659
@<TRIPOS>BOND
     1    11    12    1
     2    12    13   ar
     3    13    14   ar
     4    14     5    1
     5     5     6   ar
     6     6     7   ar
     7     7     8   ar
     8     8     1    1
     9     1     2   am
    10     2     3    2
    11     2    18    1
    12    18    19    1
    13    18    20    1
    14    20    21   ar
    15    21    22   ar
    16    22    26    1
    17    26    27    1
    18    26    28    1
    19    26    29    1
    20    22    23   ar
    21    23    24   ar
    22    24    30    1
    23    30    31    1
    24    30    32    1
    25    30    33    1
    26    24    25   ar
    27     8     9   ar
    28     9    10   ar
    29    14    15   ar
    30    15    16   ar
    31    16    17   ar
    32    17    12   ar
    33    10     5   ar
    34    25    20   ar
    35     1     4    1
@<TRIPOS>MOLECULE
*****
 33 35 0 0 0
SMALL
GASTEIGER

@<TRIPOS>ATOM
      1 N           0.9546    0.1939   24.5687 N.am    1  UNL1       -0.2837
      2 C           2.4205    0.4071   24.3330 C.2     1  UNL1        0.2297
      3 O           3.0520    1.7232   24.6780 O.2     1  UNL1       -0.2744
      4 H           0.5401   -0.6699   24.3423 H       1  UNL1        0.1549
      5 C          -1.5488    3.5027   26.3108 C.ar    1  UNL1        0.0002
      6 C          -1.2116    3.5074   24.8492 C.ar    1  UNL1        0.0013
      7 C          -0.3771    2.4045   24.2685 C.ar    1  UNL1        0.0147
      8 C           0.1201    1.2968   25.1494 C.ar    1  UNL1        0.0503
      9 C          -0.2171    1.2922   26.6110 C.ar    1  UNL1        0.0147
     10 C          -1.0516    2.3952   27.1917 C.ar    1  UNL1        0.0013
     11 C          -6.1815    5.7501   27.0090 C.3     1  UNL1        0.0521
     12 C          -4.6997    5.7293   27.2406 C.ar    1  UNL1        0.0594
     13 C          -3.8652    4.6264   26.6599 C.ar    1  UNL1        0.0147
     14 C          -2.3833    4.6057   26.8915 C.ar    1  UNL1        0.0027
     15 C          -1.7359    5.6879   27.7037 C.ar    1  UNL1        0.0207
     16 C          -2.5704    6.7908   28.2843 C.ar    1  UNL1        0.0984
     17 N          -4.0523    6.8115   28.0528 N.ar    1  UNL1       -0.2481
     18 C           3.2550   -0.6958   23.7523 C.3     1  UNL1        0.0990
     19 C           4.2061   -1.4570   24.6275 C.3     1  UNL1        0.0143
     20 C           3.1383   -1.0375   22.2964 C.ar    1  UNL1       -0.0140
     21 C           3.8453   -2.2422   21.7498 C.ar    1  UNL1        0.0000
     22 C           3.7286   -2.5839   20.2939 C.ar    1  UNL1        0.0711
     23 C           2.9049   -1.7209   19.3847 C.ar    1  UNL1        0.0077
     24 C           2.1979   -0.5162   19.9313 C.ar    1  UNL1        0.0711
     25 C           2.3146   -0.1745   21.3871 C.ar    1  UNL1        0.0000
     26 C           4.4356   -3.7887   19.7472 C.3     1  UNL1        0.4186
     27 F           5.1426   -4.9934   19.2006 F       1  UNL1       -0.1659
     28 F           3.1353   -4.3075   19.2089 F       1  UNL1       -0.1659
     29 F           5.7360   -3.2699   20.2856 F       1  UNL1       -0.1659
     30 C           1.3742    0.3468   19.0220 C.3     1  UNL1        0.4186
     31 F           0.5505    1.2098   18.1127 F       1  UNL1       -0.1659
     32 F           0.2735    0.3696   20.0408 F       1  UNL1       -0.1659
     33 F           2.4749    0.3239   18.0032 F       1  UNL1       -0.1659
@<TRIPOS>BOND
     1    11    12    1
     2    12    13   ar
     3    13    14   ar
     4    14     5    1
     5     5     6   ar
     6     6     7   ar
     7     7     8   ar
     8     8     1    1
     9     1     2   am
    10     2     3    2
    11     2    18    1
    12    18    19    1
    13    18    20    1
    14    20    21   ar
    15    21    22   ar
    16    22    26    1
    17    26    27    1
    18    26    28    1
    19    26    29    1
    20    22    23   ar
    21    23    24   ar
    22    24    30    1
    23    30    31    1
    24    30    32    1
    25    30    33    1
    26    24    25   ar
    27     8     9   ar
    28     9    10   ar
    29    14    15   ar
    30    15    16   ar
    31    16    17   ar
    32    17    12   ar
    33    10     5   ar
    34    25    20   ar
    35     1     4    1
@<TRIPOS>MOLECULE
*****
 33 35 0 0 0
SMALL
GASTEIGER

@<TRIPOS>ATOM
      1 N           6.1603   -3.5138   21.7828 N.am    1  UNL1       -0.2837
      2 C           4.8758   -3.9872   21.1698 C.2     1  UNL1        0.2297
      3 O           3.8863   -4.7516   21.9983 O.2     1  UNL1       -0.2744
      4 H           6.8097   -3.0121   21.2390 H       1  UNL1        0.1549
      5 C           7.0455   -4.3866   26.1077 C.ar    1  UNL1        0.0002
      6 C           7.6295   -5.2545   25.0326 C.ar    1  UNL1        0.0013
      7 C           7.3344   -4.9636   23.5910 C.ar    1  UNL1        0.0147
      8 C           6.4553   -3.8047   23.2244 C.ar    1  UNL1        0.0503
      9 C           5.8714   -2.9368   24.2994 C.ar    1  UNL1        0.0147
     10 C           6.1664   -3.2278   25.7411 C.ar    1  UNL1        0.0013
     11 C           6.3943   -3.2891   31.1447 C.3     1  UNL1        0.0521
     12 C           7.0149   -4.1288   30.0678 C.ar    1  UNL1        0.0594
     13 C           6.7199   -3.8379   28.6262 C.ar    1  UNL1        0.0147
     14 C           7.3406   -4.6776   27.5493 C.ar    1  UNL1        0.0027
     15 C           8.2563   -5.8083   27.9141 C.ar    1  UNL1        0.0207
     16 C           8.5513   -6.0992   29.3557 C.ar    1  UNL1        0.0984
     17 N           7.9306   -5.2595   30.4325 N.ar    1  UNL1       -0.2481
     18 C           4.5807   -3.6963   19.7282 C.3     1  UNL1        0.0990
     19 C           4.7011   -4.7851   18.7034 C.3     1  UNL1        0.0143
     20 C           4.1653   -2.3165   19.3112 C.ar    1  UNL1       -0.0140
     21 C           5.0868   -1.4752   18.4789 C.ar    1  UNL1        0.0000
     22 C           4.6714   -0.0955   18.0620 C.ar    1  UNL1        0.0711
     23 C           3.3344    0.4428   18.4775 C.ar    1  UNL1        0.0077
     24 C           2.4129   -0.3985   19.3098 C.ar    1  UNL1        0.0711
     25 C           2.8283   -1.7782   19.7267 C.ar    1  UNL1        0.0000
     26 C           5.5930    0.7459   17.2296 C.3     1  UNL1        0.4186
     27 F           6.5145    1.5872   16.3972 F       1  UNL1       -0.1659
     28 F           6.4153   -0.4680   16.9131 F       1  UNL1       -0.1659
     29 F           4.7706    1.9597   17.5460 F       1  UNL1       -0.1659
     30 C           1.0759    0.1399   19.7253 C.3     1  UNL1        0.4186
     31 F          -0.2611    0.6782   20.1408 F       1  UNL1       -0.1659
     32 F           0.8453    0.6431   18.3312 F       1  UNL1       -0.1659
     33 F           1.3065   -0.3634   21.1194 F       1  UNL1       -0.1659
@<TRIPOS>BOND
     1    11    12    1
     2    12    13   ar
     3    13    14   ar
     4    14     5    1
     5     5     6   ar
     6     6     7   ar
     7     7     8   ar
     8     8     1    1
     9     1     2   am
    10     2     3    2
    11     2    18    1
    12    18    19    1
    13    18    20    1
    14    20    21   ar
    15    21    22   ar
    16    22    26    1
    17    26    27    1
    18    26    28    1
    19    26    29    1
    20    22    23   ar
    21    23    24   ar
    22    24    30    1
    23    30    31    1
    24    30    32    1
    25    30    33    1
    26    24    25   ar
    27     8     9   ar
    28     9    10   ar
    29    14    15   ar
    30    15    16   ar
    31    16    17   ar
    32    17    12   ar
    33    10     5   ar
    34    25    20   ar
    35     1     4    1
@<TRIPOS>MOLECULE
*****
 33 35 0 0 0
SMALL
GASTEIGER

@<TRIPOS>ATOM
      1 N           6.1875   -3.5104   21.7735 N.am    1  UNL1       -0.2837
      2 C           4.8979   -3.9834   21.1707 C.2     1  UNL1        0.2297
      3 O           3.9125   -4.7430   22.0084 O.2     1  UNL1       -0.2744
      4 H           6.8342   -3.0119   21.2236 H       1  UNL1        0.1549
      5 C           7.0999   -4.3707   26.0952 C.ar    1  UNL1        0.0002
      6 C           7.6628   -5.2521   25.0200 C.ar    1  UNL1        0.0013
      7 C           7.3587   -4.9654   23.5794 C.ar    1  UNL1        0.0147
      8 C           6.4916   -3.7972   23.2140 C.ar    1  UNL1        0.0503
      9 C           5.9287   -2.9157   24.2893 C.ar    1  UNL1        0.0147
     10 C           6.2329   -3.2024   25.7299 C.ar    1  UNL1        0.0013
     11 C           6.4199   -3.3082   31.1359 C.3     1  UNL1        0.0521
     12 C           7.0641   -4.1262   30.0561 C.ar    1  UNL1        0.0594
     13 C           6.7599   -3.8394   28.6156 C.ar    1  UNL1        0.0147
     14 C           7.4041   -4.6574   27.5358 C.ar    1  UNL1        0.0027
     15 C           8.3525   -5.7621   27.8966 C.ar    1  UNL1        0.0207
     16 C           8.6566   -6.0489   29.3372 C.ar    1  UNL1        0.0984
     17 N           8.0124   -5.2309   30.4169 N.ar    1  UNL1       -0.2481
     18 C           4.5937   -3.6966   19.7301 C.3     1  UNL1        0.0990
     19 C           4.7069   -4.7886   18.7079 C.3     1  UNL1        0.0143
     20 C           4.1764   -2.3179   19.3117 C.ar    1  UNL1       -0.0140
     21 C           2.8398   -1.7799   19.7289 C.ar    1  UNL1        0.0000
     22 C           2.4226   -0.4012   19.3104 C.ar    1  UNL1        0.0711
     23 C           3.3418    0.4394   18.4748 C.ar    1  UNL1        0.0077
     24 C           4.6784   -0.0986   18.0576 C.ar    1  UNL1        0.0711
     25 C           5.0957   -1.4773   18.4760 C.ar    1  UNL1        0.0000
     26 C           1.0859    0.1369   19.7276 C.3     1  UNL1        0.4186
     27 F          -0.2506    0.6749   20.1449 F       1  UNL1       -0.1659
     28 F           1.3132   -0.3770   21.1184 F       1  UNL1       -0.1659
     29 F           0.8587    0.6508   18.3369 F       1  UNL1       -0.1659
     30 C           5.5976    0.7420   17.2219 C.3     1  UNL1        0.4186
     31 F           6.5169    1.5826   16.3863 F       1  UNL1       -0.1659
     32 F           4.7860    1.9591   17.5534 F       1  UNL1       -0.1659
     33 F           6.4093   -0.4751   16.8904 F       1  UNL1       -0.1659
@<TRIPOS>BOND
     1    11    12    1
     2    12    13   ar
     3    13    14   ar
     4    14     5    1
     5     5     6   ar
     6     6     7   ar
     7     7     8   ar
     8     8     1    1
     9     1     2   am
    10     2     3    2
    11     2    18    1
    12    18    19    1
    13    18    20    1
    14    20    21   ar
    15    21    22   ar
    16    22    26    1
    17    26    27    1
    18    26    28    1
    19    26    29    1
    20    22    23   ar
    21    23    24   ar
    22    24    30    1
    23    30    31    1
    24    30    32    1
    25    30    33    1
    26    24    25   ar
    27     8     9   ar
    28     9    10   ar
    29    14    15   ar
    30    15    16   ar
    31    16    17   ar
    32    17    12   ar
    33    10     5   ar
    34    25    20   ar
    35     1     4    1
