@<TRIPOS>MOLECULE
*****
 32 36 0 0 0
SMALL
GASTEIGER

@<TRIPOS>ATOM
      1 N          -6.0647  -19.0246   20.3006 N.pl3   1  UNL1       -0.2781
      2 C          -6.9286  -19.6453   19.2430 C.3     1  UNL1        0.0950
      3 C          -8.3537  -19.5686   19.7047 C.3     1  UNL1        0.0373
      4 C          -8.3706  -18.9006   21.0476 C.3     1  UNL1        0.0373
      5 C          -6.9560  -18.5644   21.4160 C.3     1  UNL1        0.0950
      6 C          -9.6551  -19.3528   20.4187 C.3     1  UNL1        0.0577
      7 C          -1.5858  -18.6154   20.1533 C.ar    1  UNL1        0.0937
      8 C          -2.2313  -19.4000   21.2567 C.ar    1  UNL1        0.1079
      9 N          -3.7244  -19.5365   21.3058 N.ar    1  UNL1       -0.2119
     10 C          -4.5718  -18.8882   20.2515 C.ar    1  UNL1        0.2202
     11 N          -3.9262  -18.1035   19.1481 N.ar    1  UNL1       -0.2119
     12 C          -2.4333  -17.9671   19.0989 C.ar    1  UNL1        0.1079
     13 O           0.7364  -19.5434   19.4490 O.2     1  UNL1       -0.2680
     14 C          -0.0928  -18.4789   20.1042 C.2     1  UNL1        0.2708
     15 N           0.5709  -17.2780   20.7103 N.am    1  UNL1       -0.1934
     16 O           2.0639  -17.1416   20.6612 O.3     1  UNL1       -0.2949
     17 H           0.0267  -16.5794   21.1403 H       1  UNL1        0.1825
     18 H           2.4439  -17.9096   20.2066 H       1  UNL1        0.2414
     19 N         -11.1481  -19.4892   20.4679 N.3     1  UNL1       -0.2934
     20 H         -11.3580  -20.4784   20.3343 H       1  UNL1        0.1236
     21 C         -11.9019  -19.0475   21.6871 C.3     1  UNL1        0.1151
     22 C         -11.1577  -18.6792   22.9365 C.ar    1  UNL1        0.0749
     23 C         -11.0563  -19.6610   24.0659 C.ar    1  UNL1        0.0161
     24 C         -10.3121  -19.2928   25.3151 C.ar    1  UNL1        0.0028
     25 C          -9.6695  -17.9427   25.4349 C.ar    1  UNL1        0.0199
     26 C          -8.9253  -17.5745   26.6842 C.ar    1  UNL1        0.0311
     27 C          -8.2826  -16.2244   26.8040 C.ar    1  UNL1        0.1402
     28 F          -7.5385  -15.8561   28.0532 F       1  UNL1       -0.2042
     29 C          -8.3841  -15.2426   25.6744 C.ar    1  UNL1        0.0312
     30 C          -9.1283  -15.6109   24.4252 C.ar    1  UNL1        0.0214
     31 C          -9.7709  -16.9609   24.3054 C.ar    1  UNL1        0.0811
     32 N         -10.5151  -17.3292   23.0562 N.ar    1  UNL1       -0.2483
@<TRIPOS>BOND
     1    13    14    2
     2    14    15   am
     3    15    16    1
     4    14     7    1
     5     7     8   ar
     6     8     9   ar
     7     9    10   ar
     8    10     1    1
     9     1     2    1
    10     3     2    1
    11     3     4    1
    12     4     5    1
    13     4     6    1
    14     6    19    1
    15    19    21    1
    16    21    22    1
    17    22    23   ar
    18    23    24   ar
    19    24    25   ar
    20    25    26   ar
    21    26    27   ar
    22    27    28    1
    23    27    29   ar
    24    29    30   ar
    25    30    31   ar
    26    31    32   ar
    27    10    11   ar
    28    11    12   ar
    29    12     7   ar
    30     5     1    1
    31    32    22   ar
    32     6     3    1
    33    31    25   ar
    34    15    17    1
    35    16    18    1
    36    19    20    1
@<TRIPOS>MOLECULE
*****
 32 36 0 0 0
SMALL
GASTEIGER

@<TRIPOS>ATOM
      1 N           6.9634   -4.4676   24.2232 N.pl3   1  UNL1       -0.2781
      2 C           7.9618   -4.7508   23.1401 C.3     1  UNL1        0.0950
      3 C           7.4127   -4.2140   21.8516 C.3     1  UNL1        0.0373
      4 C           6.0750   -3.5990   22.1383 C.3     1  UNL1        0.0373
      5 C           5.7972   -3.7557   23.6040 C.3     1  UNL1        0.0950
      6 C           6.6202   -3.5907   20.7410 C.3     1  UNL1        0.0577
      7 C           7.3915   -5.5614   28.5672 C.ar    1  UNL1        0.0937
      8 C           6.9599   -4.1776   28.1812 C.ar    1  UNL1        0.1079
      9 N           6.8172   -3.8131   26.7332 N.ar    1  UNL1       -0.2119
     10 C           7.1061   -4.8322   25.6712 C.ar    1  UNL1        0.2202
     11 N           7.5377   -6.2159   26.0572 N.ar    1  UNL1       -0.2119
     12 C           7.6804   -6.5805   27.5051 C.ar    1  UNL1        0.1079
     13 O           8.7285   -6.7067   30.4778 O.2     1  UNL1       -0.2680
     14 C           7.5342   -5.9260   30.0152 C.2     1  UNL1        0.2708
     15 N           6.4825   -5.5099   31.0006 N.am    1  UNL1       -0.1934
     16 O           6.6252   -5.8745   32.4485 O.3     1  UNL1       -0.2949
     17 H           5.6986   -4.9975   30.6969 H       1  UNL1        0.1825
     18 H           7.4466   -6.3744   32.5767 H       1  UNL1        0.2414
     19 N           6.4775   -3.2260   19.2929 N.3     1  UNL1       -0.2934
     20 H           7.1106   -3.8333   18.7726 H       1  UNL1        0.1236
     21 C           5.1384   -3.3216   18.6240 C.3     1  UNL1        0.1151
     22 C           4.2329   -2.1263   18.5839 C.ar    1  UNL1        0.0749
     23 C           4.4116   -1.0854   17.5188 C.ar    1  UNL1        0.0161
     24 C           3.5062    0.1098   17.4788 C.ar    1  UNL1        0.0028
     25 C           2.4221    0.2642   18.5040 C.ar    1  UNL1        0.0199
     26 C           1.5167    1.4595   18.4640 C.ar    1  UNL1        0.0311
     27 C           0.4327    1.6138   19.4892 C.ar    1  UNL1        0.1402
     28 F          -0.4727    2.8091   19.4492 F       1  UNL1       -0.2042
     29 C           0.2541    0.5729   20.5544 C.ar    1  UNL1        0.0312
     30 C           1.1595   -0.6223   20.5944 C.ar    1  UNL1        0.0214
     31 C           2.2435   -0.7767   19.5692 C.ar    1  UNL1        0.0811
     32 N           3.1489   -1.9719   19.6092 N.ar    1  UNL1       -0.2483
@<TRIPOS>BOND
     1    13    14    2
     2    14    15   am
     3    15    16    1
     4    14     7    1
     5     7     8   ar
     6     8     9   ar
     7     9    10   ar
     8    10     1    1
     9     1     2    1
    10     3     2    1
    11     3     4    1
    12     4     5    1
    13     4     6    1
    14     6    19    1
    15    19    21    1
    16    21    22    1
    17    22    23   ar
    18    23    24   ar
    19    24    25   ar
    20    25    26   ar
    21    26    27   ar
    22    27    28    1
    23    27    29   ar
    24    29    30   ar
    25    30    31   ar
    26    31    32   ar
    27    10    11   ar
    28    11    12   ar
    29    12     7   ar
    30     5     1    1
    31    32    22   ar
    32     6     3    1
    33    31    25   ar
    34    15    17    1
    35    16    18    1
    36    19    20    1
@<TRIPOS>MOLECULE
*****
 32 36 0 0 0
SMALL
GASTEIGER

@<TRIPOS>ATOM
      1 N          -1.2261    3.9357   19.7953 N.pl3   1  UNL1       -0.2781
      2 C          -0.7451    4.3144   18.4259 C.3     1  UNL1        0.0950
      3 C           0.7144    3.9794   18.3381 C.3     1  UNL1        0.0373
      4 C           1.1354    3.3937   19.6532 C.3     1  UNL1        0.0373
      5 C          -0.0638    3.3666   20.5539 C.3     1  UNL1        0.0950
      6 C           2.1354    3.5463   18.5457 C.3     1  UNL1        0.0577
      7 C          -5.4194    4.4215   21.3541 C.ar    1  UNL1        0.0937
      8 C          -4.7587    3.0752   21.3858 C.ar    1  UNL1        0.1079
      9 N          -3.3609    2.9133   20.8662 N.ar    1  UNL1       -0.2119
     10 C          -2.6238    4.0977   20.3149 C.ar    1  UNL1        0.2202
     11 N          -3.2845    5.4440   20.2832 N.ar    1  UNL1       -0.2119
     12 C          -4.6822    5.6059   20.8028 C.ar    1  UNL1        0.1079
     13 O          -7.7328    5.6000   21.2587 O.2     1  UNL1       -0.2680
     14 C          -6.8171    4.5834   21.8737 C.2     1  UNL1        0.2708
     15 N          -7.2993    3.7288   23.0083 N.am    1  UNL1       -0.1934
     16 O          -8.6970    3.8907   23.5279 O.3     1  UNL1       -0.2949
     17 H          -6.6983    3.0616   23.4119 H       1  UNL1        0.1825
     18 H          -9.1509    4.5843   23.0240 H       1  UNL1        0.2414
     19 N           3.5333    3.3843   18.0261 N.3     1  UNL1       -0.2934
     20 H           3.8892    4.3222   17.8412 H       1  UNL1        0.1236
     21 C           4.5667    2.6855   18.8590 C.3     1  UNL1        0.1151
     22 C           4.8141    1.2179   18.6715 C.ar    1  UNL1        0.0749
     23 C           6.0129    0.7520   17.8996 C.ar    1  UNL1        0.0161
     24 C           6.2602   -0.7155   17.7122 C.ar    1  UNL1        0.0028
     25 C           5.3087   -1.7171   18.2965 C.ar    1  UNL1        0.0199
     26 C           5.5560   -3.1847   18.1090 C.ar    1  UNL1        0.0311
     27 C           4.6045   -4.1863   18.6933 C.ar    1  UNL1        0.1402
     28 F           4.8518   -5.6538   18.5058 F       1  UNL1       -0.2042
     29 C           3.4057   -3.7203   19.4652 C.ar    1  UNL1        0.0312
     30 C           3.1584   -2.2528   19.6527 C.ar    1  UNL1        0.0214
     31 C           4.1099   -1.2512   19.0683 C.ar    1  UNL1        0.0811
     32 N           3.8626    0.2163   19.2558 N.ar    1  UNL1       -0.2483
@<TRIPOS>BOND
     1    13    14    2
     2    14    15   am
     3    15    16    1
     4    14     7    1
     5     7     8   ar
     6     8     9   ar
     7     9    10   ar
     8    10     1    1
     9     1     2    1
    10     3     2    1
    11     3     4    1
    12     4     5    1
    13     4     6    1
    14     6    19    1
    15    19    21    1
    16    21    22    1
    17    22    23   ar
    18    23    24   ar
    19    24    25   ar
    20    25    26   ar
    21    26    27   ar
    22    27    28    1
    23    27    29   ar
    24    29    30   ar
    25    30    31   ar
    26    31    32   ar
    27    10    11   ar
    28    11    12   ar
    29    12     7   ar
    30     5     1    1
    31    32    22   ar
    32     6     3    1
    33    31    25   ar
    34    15    17    1
    35    16    18    1
    36    19    20    1
@<TRIPOS>MOLECULE
*****
 32 36 0 0 0
SMALL
GASTEIGER

@<TRIPOS>ATOM
      1 N           7.0237   -4.4691   23.4724 N.pl3   1  UNL1       -0.2781
      2 C           6.4956   -3.9848   24.7902 C.3     1  UNL1        0.0950
      3 C           7.1032   -4.8285   25.8714 C.3     1  UNL1        0.0373
      4 C           8.0068   -5.8342   25.2218 C.3     1  UNL1        0.0373
      5 C           7.9577   -5.6121   23.7391 C.3     1  UNL1        0.0950
      6 C           7.8540   -5.8167   26.7139 C.3     1  UNL1        0.0577
      7 C           5.9878   -2.7880   19.4288 C.ar    1  UNL1        0.0937
      8 C           5.0610   -3.7602   20.0967 C.ar    1  UNL1        0.1079
      9 N           5.4064   -4.3205   21.4446 N.ar    1  UNL1       -0.2119
     10 C           6.6784   -3.9087   22.1245 C.ar    1  UNL1        0.2202
     11 N           7.6051   -2.9366   21.4566 N.ar    1  UNL1       -0.2119
     12 C           7.2599   -2.3762   20.1088 C.ar    1  UNL1        0.1079
     13 O           6.7329   -1.7829   17.1518 O.2     1  UNL1       -0.2680
     14 C           5.6425   -2.2277   18.0809 C.2     1  UNL1        0.2708
     15 N           4.2068   -2.1120   17.6621 N.am    1  UNL1       -0.1934
     16 O           3.8615   -1.5516   16.3143 O.3     1  UNL1       -0.2949
     17 H           3.4911   -2.4039   18.2719 H       1  UNL1        0.1825
     18 H           4.6762   -1.3150   15.8441 H       1  UNL1        0.2414
     19 N           8.1994   -6.3771   28.0618 N.3     1  UNL1       -0.2934
     20 H           8.8905   -7.1111   27.9072 H       1  UNL1        0.1236
     21 C           8.7527   -5.4790   29.1281 C.3     1  UNL1        0.1151
     22 C           7.8230   -4.6799   29.9925 C.ar    1  UNL1        0.0749
     23 C           7.5166   -5.1377   31.3877 C.ar    1  UNL1        0.0161
     24 C           6.5870   -4.3386   32.2520 C.ar    1  UNL1        0.0028
     25 C           5.9636   -3.0817   31.7212 C.ar    1  UNL1        0.0199
     26 C           5.0339   -2.2826   32.5856 C.ar    1  UNL1        0.0311
     27 C           4.4106   -1.0258   32.0548 C.ar    1  UNL1        0.1402
     28 F           3.4809   -0.2267   32.9192 F       1  UNL1       -0.2042
     29 C           4.7170   -0.5680   30.6596 C.ar    1  UNL1        0.0312
     30 C           5.6466   -1.3671   29.7952 C.ar    1  UNL1        0.0214
     31 C           6.2700   -2.6239   30.3260 C.ar    1  UNL1        0.0811
     32 N           7.1996   -3.4230   29.4617 N.ar    1  UNL1       -0.2483
@<TRIPOS>BOND
     1    13    14    2
     2    14    15   am
     3    15    16    1
     4    14     7    1
     5     7     8   ar
     6     8     9   ar
     7     9    10   ar
     8    10     1    1
     9     1     2    1
    10     3     2    1
    11     3     4    1
    12     4     5    1
    13     4     6    1
    14     6    19    1
    15    19    21    1
    16    21    22    1
    17    22    23   ar
    18    23    24   ar
    19    24    25   ar
    20    25    26   ar
    21    26    27   ar
    22    27    28    1
    23    27    29   ar
    24    29    30   ar
    25    30    31   ar
    26    31    32   ar
    27    10    11   ar
    28    11    12   ar
    29    12     7   ar
    30     5     1    1
    31    32    22   ar
    32     6     3    1
    33    31    25   ar
    34    15    17    1
    35    16    18    1
    36    19    20    1
@<TRIPOS>MOLECULE
*****
 32 36 0 0 0
SMALL
GASTEIGER

@<TRIPOS>ATOM
      1 N           6.9638   -4.3734   23.7721 N.pl3   1  UNL1       -0.2781
      2 C           6.6800   -3.6410   25.0500 C.3     1  UNL1        0.0950
      3 C           7.1482   -4.4974   26.1890 C.3     1  UNL1        0.0373
      4 C           7.7213   -5.7591   25.6151 C.3     1  UNL1        0.0373
      5 C           7.6074   -5.6826   24.1214 C.3     1  UNL1        0.0950
      6 C           7.6998   -5.5531   27.1007 C.3     1  UNL1        0.0577
      7 C           6.0456   -2.9017   19.6199 C.ar    1  UNL1        0.0937
      8 C           7.3270   -2.5036   20.2905 C.ar    1  UNL1        0.1079
      9 N           7.6330   -2.9942   21.6746 N.ar    1  UNL1       -0.2119
     10 C           6.6577   -3.8828   22.3881 C.ar    1  UNL1        0.2202
     11 N           5.3764   -4.2809   21.7175 N.ar    1  UNL1       -0.2119
     12 C           5.0703   -3.7903   20.3335 C.ar    1  UNL1        0.1079
     13 O           6.8557   -2.1551   17.2670 O.2     1  UNL1       -0.2680
     14 C           5.7396   -2.4111   18.2359 C.2     1  UNL1        0.2708
     15 N           4.3173   -2.1765   17.8207 N.am    1  UNL1       -0.1934
     16 O           4.0113   -1.6860   16.4366 O.3     1  UNL1       -0.2949
     17 H           3.5848   -2.3445   18.4566 H       1  UNL1        0.1825
     18 H           4.8388   -1.5727   15.9434 H       1  UNL1        0.2414
     19 N           8.0059   -6.0438   28.4848 N.3     1  UNL1       -0.2934
     20 H           8.9303   -5.6866   28.7261 H       1  UNL1        0.1236
     21 C           7.0951   -5.6924   29.6236 C.3     1  UNL1        0.1151
     22 C           7.4840   -4.6124   30.5893 C.ar    1  UNL1        0.0749
     23 C           8.9321   -4.3572   30.8857 C.ar    1  UNL1        0.0161
     24 C           9.3209   -3.2773   31.8513 C.ar    1  UNL1        0.0028
     25 C           8.2617   -2.4526   32.5206 C.ar    1  UNL1        0.0199
     26 C           8.6506   -1.3726   33.4863 C.ar    1  UNL1        0.0311
     27 C           7.5914   -0.5479   34.1556 C.ar    1  UNL1        0.1402
     28 F           7.9802    0.5320   35.1212 F       1  UNL1       -0.2042
     29 C           6.1432   -0.8032   33.8591 C.ar    1  UNL1        0.0312
     30 C           5.7544   -1.8831   32.8935 C.ar    1  UNL1        0.0214
     31 C           6.8136   -2.7078   32.2242 C.ar    1  UNL1        0.0811
     32 N           6.4248   -3.7877   31.2585 N.ar    1  UNL1       -0.2483
@<TRIPOS>BOND
     1    13    14    2
     2    14    15   am
     3    15    16    1
     4    14     7    1
     5     7     8   ar
     6     8     9   ar
     7     9    10   ar
     8    10     1    1
     9     1     2    1
    10     3     2    1
    11     3     4    1
    12     4     5    1
    13     4     6    1
    14     6    19    1
    15    19    21    1
    16    21    22    1
    17    22    23   ar
    18    23    24   ar
    19    24    25   ar
    20    25    26   ar
    21    26    27   ar
    22    27    28    1
    23    27    29   ar
    24    29    30   ar
    25    30    31   ar
    26    31    32   ar
    27    10    11   ar
    28    11    12   ar
    29    12     7   ar
    30     5     1    1
    31    32    22   ar
    32     6     3    1
    33    31    25   ar
    34    15    17    1
    35    16    18    1
    36    19    20    1
@<TRIPOS>MOLECULE
*****
 32 36 0 0 0
SMALL
GASTEIGER

@<TRIPOS>ATOM
      1 N           3.5415   -0.0386   32.9030 N.pl3   1  UNL1       -0.2781
      2 C           4.3383   -0.6716   34.0051 C.3     1  UNL1        0.0950
      3 C           4.9837   -1.9102   33.4579 C.3     1  UNL1        0.0373
      4 C           4.5859   -2.0426   32.0177 C.3     1  UNL1        0.0373
      5 C           3.6945   -0.8859   31.6747 C.3     1  UNL1        0.0950
      6 C           5.4845   -3.0669   32.6447 C.3     1  UNL1        0.0577
      7 C           1.1178    3.7392   33.2254 C.ar    1  UNL1        0.0937
      8 C           1.9991    3.3143   34.3623 C.ar    1  UNL1        0.1079
      9 N           2.8071    2.0550   34.2548 N.ar    1  UNL1       -0.2119
     10 C           2.7336    1.2207   33.0105 C.ar    1  UNL1        0.2202
     11 N           1.8522    1.6456   31.8735 N.ar    1  UNL1       -0.2119
     12 C           1.0443    2.9048   31.9810 C.ar    1  UNL1        0.1079
     13 O           0.9996    6.3206   33.4945 O.2     1  UNL1       -0.2680
     14 C           0.3098    4.9984   33.3328 C.2     1  UNL1        0.2708
     15 N          -1.1879    4.9355   33.2785 N.am    1  UNL1       -0.1934
     16 O          -1.9958    6.1948   33.3860 O.3     1  UNL1       -0.2949
     17 H          -1.6406    4.0678   33.1724 H       1  UNL1        0.1825
     18 H          -1.4000    6.9537   33.4851 H       1  UNL1        0.2414
     19 N           6.2924   -4.3262   32.5372 N.3     1  UNL1       -0.2934
     20 H           5.6703   -5.0444   32.1664 H       1  UNL1        0.1236
     21 C           7.5335   -4.3515   31.6952 C.3     1  UNL1        0.1151
     22 C           7.4623   -4.8070   30.2678 C.ar    1  UNL1        0.0749
     23 C           6.7261   -3.9831   29.2534 C.ar    1  UNL1        0.0161
     24 C           6.6549   -4.4387   27.8260 C.ar    1  UNL1        0.0028
     25 C           7.3199   -5.7182   27.4131 C.ar    1  UNL1        0.0199
     26 C           7.2486   -6.1738   25.9857 C.ar    1  UNL1        0.0311
     27 C           7.9136   -7.4533   25.5728 C.ar    1  UNL1        0.1402
     28 F           7.8424   -7.9089   24.1454 F       1  UNL1       -0.2042
     29 C           8.6499   -8.2773   26.5872 C.ar    1  UNL1        0.0312
     30 C           8.7211   -7.8217   28.0146 C.ar    1  UNL1        0.0214
     31 C           8.0561   -6.5422   28.4275 C.ar    1  UNL1        0.0811
     32 N           8.1273   -6.0866   29.8548 N.ar    1  UNL1       -0.2483
@<TRIPOS>BOND
     1    13    14    2
     2    14    15   am
     3    15    16    1
     4    14     7    1
     5     7     8   ar
     6     8     9   ar
     7     9    10   ar
     8    10     1    1
     9     1     2    1
    10     3     2    1
    11     3     4    1
    12     4     5    1
    13     4     6    1
    14     6    19    1
    15    19    21    1
    16    21    22    1
    17    22    23   ar
    18    23    24   ar
    19    24    25   ar
    20    25    26   ar
    21    26    27   ar
    22    27    28    1
    23    27    29   ar
    24    29    30   ar
    25    30    31   ar
    26    31    32   ar
    27    10    11   ar
    28    11    12   ar
    29    12     7   ar
    30     5     1    1
    31    32    22   ar
    32     6     3    1
    33    31    25   ar
    34    15    17    1
    35    16    18    1
    36    19    20    1
@<TRIPOS>MOLECULE
*****
 32 36 0 0 0
SMALL
GASTEIGER

@<TRIPOS>ATOM
      1 N           3.5022    0.0552   32.5939 N.pl3   1  UNL1       -0.2781
      2 C           2.5058    0.6742   31.6590 C.3     1  UNL1        0.0950
      3 C           2.6626    0.0229   30.3169 C.3     1  UNL1        0.0373
      4 C           3.7559   -0.9986   30.4223 C.3     1  UNL1        0.0373
      5 C           4.2748   -0.9787   31.8295 C.3     1  UNL1        0.0950
      6 C           3.0444   -0.7935   29.1179 C.3     1  UNL1        0.0577
      7 C           4.0733    1.1138   36.9302 C.ar    1  UNL1        0.0937
      8 C           4.6533   -0.1579   36.3859 C.ar    1  UNL1        0.1079
      9 N           4.4629   -0.5108   34.9404 N.ar    1  UNL1       -0.2119
     10 C           3.6925    0.4081   34.0393 C.ar    1  UNL1        0.2202
     11 N           3.1125    1.6799   34.5835 N.ar    1  UNL1       -0.2119
     12 C           3.3028    2.0327   36.0289 C.ar    1  UNL1        0.1079
     13 O           3.2899    0.9709   39.4032 O.2     1  UNL1       -0.2680
     14 C           4.2636    1.4667   38.3755 C.2     1  UNL1        0.2708
     15 N           5.4277    2.3155   38.7934 N.am    1  UNL1       -0.1934
     16 O           5.6181    2.6684   40.2388 O.3     1  UNL1       -0.2949
     17 H           6.0668    2.6409   38.1189 H       1  UNL1        0.1825
     18 H           4.9066    2.2711   40.7650 H       1  UNL1        0.2414
     19 N           2.8540   -1.1464   27.6724 N.3     1  UNL1       -0.2934
     20 H           1.8552   -1.0708   27.4799 H       1  UNL1        0.1236
     21 C           3.5608   -0.3594   26.6089 C.3     1  UNL1        0.1151
     22 C           3.7459   -0.9454   25.2404 C.ar    1  UNL1        0.0749
     23 C           4.7444   -2.0435   25.0235 C.ar    1  UNL1        0.0161
     24 C           4.9294   -2.6294   23.6552 C.ar    1  UNL1        0.0028
     25 C           4.1159   -2.1171   22.5037 C.ar    1  UNL1        0.0199
     26 C           4.3009   -2.7031   21.1353 C.ar    1  UNL1        0.0311
     27 C           3.4874   -2.1909   19.9838 C.ar    1  UNL1        0.1402
     28 F           3.6725   -2.7767   18.6155 F       1  UNL1       -0.2042
     29 C           2.4889   -1.0927   20.2008 C.ar    1  UNL1        0.0312
     30 C           2.3039   -0.5068   21.5692 C.ar    1  UNL1        0.0214
     31 C           3.1174   -1.0190   22.7206 C.ar    1  UNL1        0.0811
     32 N           2.9324   -0.4332   24.0890 N.ar    1  UNL1       -0.2483
@<TRIPOS>BOND
     1    13    14    2
     2    14    15   am
     3    15    16    1
     4    14     7    1
     5     7     8   ar
     6     8     9   ar
     7     9    10   ar
     8    10     1    1
     9     1     2    1
    10     3     2    1
    11     3     4    1
    12     4     5    1
    13     4     6    1
    14     6    19    1
    15    19    21    1
    16    21    22    1
    17    22    23   ar
    18    23    24   ar
    19    24    25   ar
    20    25    26   ar
    21    26    27   ar
    22    27    28    1
    23    27    29   ar
    24    29    30   ar
    25    30    31   ar
    26    31    32   ar
    27    10    11   ar
    28    11    12   ar
    29    12     7   ar
    30     5     1    1
    31    32    22   ar
    32     6     3    1
    33    31    25   ar
    34    15    17    1
    35    16    18    1
    36    19    20    1
@<TRIPOS>MOLECULE
*****
 32 36 0 0 0
SMALL
GASTEIGER

@<TRIPOS>ATOM
      1 N           6.1846   -2.8806   30.5863 N.pl3   1  UNL1       -0.2781
      2 C           6.6856   -4.2789   30.3774 C.3     1  UNL1        0.0950
      3 C           6.6569   -4.5666   28.9055 C.3     1  UNL1        0.0373
      4 C           6.1381   -3.3461   28.2047 C.3     1  UNL1        0.0373
      5 C           5.8462   -2.3040   29.2434 C.3     1  UNL1        0.0950
      6 C           6.5173   -4.5617   27.4120 C.3     1  UNL1        0.0577
      7 C           5.7695   -0.7834   34.5460 C.ar    1  UNL1        0.0937
      8 C           7.0353   -0.6452   33.7531 C.ar    1  UNL1        0.1079
      9 N           7.1736   -1.3443   32.4332 N.ar    1  UNL1       -0.2119
     10 C           6.0462   -2.1816   31.9061 C.ar    1  UNL1        0.2202
     11 N           4.7804   -2.3198   32.6990 N.ar    1  UNL1       -0.2119
     12 C           4.6421   -1.6208   34.0189 C.ar    1  UNL1        0.1079
     13 O           6.7815    0.7008   36.4230 O.2     1  UNL1       -0.2680
     14 C           5.6312   -0.0844   35.8659 C.2     1  UNL1        0.2708
     15 N           4.3425   -0.1705   36.6288 N.am    1  UNL1       -0.1934
     16 O           4.2041    0.5285   37.9487 O.3     1  UNL1       -0.2949
     17 H           3.5875   -0.6858   36.2631 H       1  UNL1        0.1825
     18 H           5.0328    0.9859   38.1607 H       1  UNL1        0.2414
     19 N           6.6557   -5.2607   26.0920 N.3     1  UNL1       -0.2934
     20 H           5.7390   -5.6466   25.8657 H       1  UNL1        0.1236
     21 C           7.1150   -4.4988   24.8844 C.3     1  UNL1        0.1151
     22 C           6.1299   -3.7037   24.0797 C.ar    1  UNL1        0.0749
     23 C           5.4513   -2.5129   24.6891 C.ar    1  UNL1        0.0161
     24 C           4.4662   -1.7179   23.8844 C.ar    1  UNL1        0.0028
     25 C           4.1598   -2.1137   22.4704 C.ar    1  UNL1        0.0199
     26 C           3.1746   -1.3186   21.6657 C.ar    1  UNL1        0.0311
     27 C           2.8682   -1.7144   20.2517 C.ar    1  UNL1        0.1402
     28 F           1.8831   -0.9193   19.4471 F       1  UNL1       -0.2042
     29 C           3.5469   -2.9053   19.6424 C.ar    1  UNL1        0.0312
     30 C           4.5319   -3.7003   20.4470 C.ar    1  UNL1        0.0214
     31 C           4.8384   -3.3045   21.8610 C.ar    1  UNL1        0.0811
     32 N           5.8234   -4.0995   22.6657 N.ar    1  UNL1       -0.2483
@<TRIPOS>BOND
     1    13    14    2
     2    14    15   am
     3    15    16    1
     4    14     7    1
     5     7     8   ar
     6     8     9   ar
     7     9    10   ar
     8    10     1    1
     9     1     2    1
    10     3     2    1
    11     3     4    1
    12     4     5    1
    13     4     6    1
    14     6    19    1
    15    19    21    1
    16    21    22    1
    17    22    23   ar
    18    23    24   ar
    19    24    25   ar
    20    25    26   ar
    21    26    27   ar
    22    27    28    1
    23    27    29   ar
    24    29    30   ar
    25    30    31   ar
    26    31    32   ar
    27    10    11   ar
    28    11    12   ar
    29    12     7   ar
    30     5     1    1
    31    32    22   ar
    32     6     3    1
    33    31    25   ar
    34    15    17    1
    35    16    18    1
    36    19    20    1
@<TRIPOS>MOLECULE
*****
 32 36 0 0 0
SMALL
GASTEIGER

@<TRIPOS>ATOM
      1 N          -1.3983    2.8929   19.9918 N.pl3   1  UNL1       -0.2781
      2 C          -0.3593    2.1407   20.7696 C.3     1  UNL1        0.0950
      3 C           0.8492    1.9815   19.8954 C.3     1  UNL1        0.0373
      4 C           0.5572    2.6353   18.5774 C.3     1  UNL1        0.0373
      5 C          -0.8318    3.1986   18.6369 C.3     1  UNL1        0.0950
      6 C           1.8858    1.9795   18.8112 C.3     1  UNL1        0.0577
      7 C          -5.4949    4.0323   21.4645 C.ar    1  UNL1        0.0937
      8 C          -5.1865    4.0758   19.9972 C.ar    1  UNL1        0.1079
      9 N          -3.8208    3.6960   19.5063 N.ar    1  UNL1       -0.2119
     10 C          -2.7638    3.2727   20.4827 C.ar    1  UNL1        0.2202
     11 N          -3.0723    3.2292   21.9500 N.ar    1  UNL1       -0.2119
     12 C          -4.4378    3.6089   22.4409 C.ar    1  UNL1        0.1079
     13 O          -7.6351    5.4906   21.2578 O.2     1  UNL1       -0.2680
     14 C          -6.8605    4.4121   21.9554 C.2     1  UNL1        0.2708
     15 N          -7.4514    3.7133   23.1439 N.am    1  UNL1       -0.1934
     16 O          -8.8170    4.0931   23.6348 O.3     1  UNL1       -0.2949
     17 H          -6.9430    3.0054   23.6018 H       1  UNL1        0.1825
     18 H          -9.1760    4.8006   23.0767 H       1  UNL1        0.2414
     19 N           3.2514    1.5997   18.3203 N.3     1  UNL1       -0.2934
     20 H           3.8867    1.6974   19.1122 H       1  UNL1        0.1236
     21 C           3.4878    0.2365   17.7411 C.3     1  UNL1        0.1151
     22 C           4.2086   -0.8051   18.5446 C.ar    1  UNL1        0.0749
     23 C           3.4384   -1.7190   19.4510 C.ar    1  UNL1        0.0161
     24 C           4.1593   -2.7605   20.2545 C.ar    1  UNL1        0.0028
     25 C           5.6503   -2.8882   20.1515 C.ar    1  UNL1        0.0199
     26 C           6.3711   -3.9298   20.9550 C.ar    1  UNL1        0.0311
     27 C           7.8621   -4.0575   20.8520 C.ar    1  UNL1        0.1402
     28 F           8.5829   -5.0990   21.6555 F       1  UNL1       -0.2042
     29 C           8.6323   -3.1435   19.9456 C.ar    1  UNL1        0.0312
     30 C           7.9115   -2.1020   19.1421 C.ar    1  UNL1        0.0214
     31 C           6.4205   -1.9743   19.2451 C.ar    1  UNL1        0.0811
     32 N           5.6996   -0.9328   18.4416 N.ar    1  UNL1       -0.2483
@<TRIPOS>BOND
     1    13    14    2
     2    14    15   am
     3    15    16    1
     4    14     7    1
     5     7     8   ar
     6     8     9   ar
     7     9    10   ar
     8    10     1    1
     9     1     2    1
    10     3     2    1
    11     3     4    1
    12     4     5    1
    13     4     6    1
    14     6    19    1
    15    19    21    1
    16    21    22    1
    17    22    23   ar
    18    23    24   ar
    19    24    25   ar
    20    25    26   ar
    21    26    27   ar
    22    27    28    1
    23    27    29   ar
    24    29    30   ar
    25    30    31   ar
    26    31    32   ar
    27    10    11   ar
    28    11    12   ar
    29    12     7   ar
    30     5     1    1
    31    32    22   ar
    32     6     3    1
    33    31    25   ar
    34    15    17    1
    35    16    18    1
    36    19    20    1
