@<TRIPOS>MOLECULE
*****
 30 32 0 0 0
SMALL
GASTEIGER

@<TRIPOS>ATOM
      1 C          -8.9199  -19.0562   23.1403 C.2     1  UNL1        0.2303
      2 O          -9.1234  -20.5420   23.1063 O.2     1  UNL1       -0.2745
      3 N          -9.4580  -18.2516   24.2861 N.am    1  UNL1       -0.2740
      4 C         -10.1996  -18.9327   25.3980 C.3     1  UNL1        0.1152
      5 C          -8.1784  -18.3751   22.0284 C.3     1  UNL1        0.1116
      6 C          -3.9452  -19.5730   21.0824 C.ar    1  UNL1       -0.0026
      7 C          -5.0456  -19.8755   20.1090 C.ar    1  UNL1       -0.0029
      8 C          -6.4567  -19.4762   20.4243 C.ar    1  UNL1       -0.0041
      9 C          -6.7673  -18.7744   21.7131 C.ar    1  UNL1       -0.0131
     10 C          -5.6669  -18.4719   22.6865 C.ar    1  UNL1       -0.0041
     11 C          -4.2559  -18.8712   22.3712 C.ar    1  UNL1       -0.0029
     12 C          -2.5341  -19.9723   20.7671 C.3     1  UNL1        0.1163
     13 C           0.1592  -17.1722   19.9574 C.3     1  UNL1        0.0946
     14 C          -0.9568  -18.1588   19.7805 C.2     1  UNL1        0.2232
     15 O          -1.6113  -18.3185   18.4404 O.2     1  UNL1       -0.2751
     16 N          -1.4182  -18.9858   20.9439 N.am    1  UNL1       -0.3004
     17 H          -0.9885  -18.8810   21.8235 H       1  UNL1        0.1497
     18 C          -9.2546  -16.7659   24.3202 C.3     1  UNL1        0.1138
     19 C          -8.0532  -16.1889   25.0084 C.ar    1  UNL1       -0.0029
     20 C          -6.8746  -15.7309   24.2016 C.ar    1  UNL1       -0.0026
     21 C          -5.6731  -15.1539   24.8899 C.ar    1  UNL1       -0.0003
     22 C          -5.6503  -15.0350   26.3850 C.ar    1  UNL1       -0.0000
     23 C          -6.8290  -15.4931   27.1918 C.ar    1  UNL1       -0.0003
     24 C          -8.0304  -16.0700   26.5035 C.ar    1  UNL1       -0.0026
     25 C         -10.2526  -15.8571   23.6659 C.3     1  UNL1        0.0967
     26 N         -11.1058  -16.3654   22.5417 N.3     1  UNL1       -0.2710
     27 C         -12.2995  -17.2636   22.6773 C.3     1  UNL1        0.0722
     28 C         -12.8465  -17.5181   21.3040 C.3     1  UNL1        0.0188
     29 C         -11.9909  -16.7771   20.3196 C.3     1  UNL1        0.0188
     30 C         -10.9151  -16.0648   21.0846 C.3     1  UNL1        0.0722
@<TRIPOS>BOND
     1    13    14    1
     2    14    15    2
     3    14    16   am
     4    16    12    1
     5    12     6    1
     6     6     7   ar
     7     7     8   ar
     8     8     9   ar
     9     9     5    1
    10     5     1    1
    11     1     2    2
    12     1     3   am
    13     3     4    1
    14     3    18    1
    15    18    25    1
    16    25    26    1
    17    26    27    1
    18    27    28    1
    19    28    29    1
    20    29    30    1
    21    18    19    1
    22    19    20   ar
    23    20    21   ar
    24    21    22   ar
    25    22    23   ar
    26    23    24   ar
    27     9    10   ar
    28    10    11   ar
    29    11     6   ar
    30    30    26    1
    31    24    19   ar
    32    16    17    1
@<TRIPOS>MOLECULE
*****
 30 32 0 0 0
SMALL
GASTEIGER

@<TRIPOS>ATOM
      1 C          -8.8761  -19.4428   23.3378 C.2     1  UNL1        0.2303
      2 O          -8.6884  -20.8620   23.7859 O.2     1  UNL1       -0.2745
      3 N          -9.6237  -18.4747   24.2062 N.am    1  UNL1       -0.2740
      4 C         -10.1835  -18.9259   25.5227 C.3     1  UNL1        0.1152
      5 C          -8.3163  -18.9917   22.0214 C.3     1  UNL1        0.1116
      6 C          -4.0027  -19.7898   21.0186 C.ar    1  UNL1       -0.0026
      7 C          -5.0916  -20.4372   20.2154 C.ar    1  UNL1       -0.0029
      8 C          -6.5295  -20.1712   20.5497 C.ar    1  UNL1       -0.0041
      9 C          -6.8784  -19.2577   21.6871 C.ar    1  UNL1       -0.0131
     10 C          -5.7895  -18.6103   22.4902 C.ar    1  UNL1       -0.0041
     11 C          -4.3516  -18.8764   22.1560 C.ar    1  UNL1       -0.0029
     12 C          -2.5648  -20.0559   20.6843 C.3     1  UNL1        0.1163
     13 C          -0.0345  -17.0730   20.0130 C.3     1  UNL1        0.0946
     14 C          -1.0678  -18.1350   19.7792 C.2     1  UNL1        0.2232
     15 O          -1.6374  -18.3379   18.4065 O.2     1  UNL1       -0.2751
     16 N          -1.5316  -18.9940   20.9181 N.am    1  UNL1       -0.3004
     17 H          -1.1578  -18.8607   21.8191 H       1  UNL1        0.1497
     18 C          -9.8114  -17.0556   23.7581 C.3     1  UNL1        0.1138
     19 C         -10.5630  -16.7615   22.4937 C.ar    1  UNL1       -0.0029
     20 C         -11.9100  -17.3791   22.2610 C.ar    1  UNL1       -0.0026
     21 C         -12.6616  -17.0850   20.9966 C.ar    1  UNL1       -0.0003
     22 C         -12.0662  -16.1733   19.9650 C.ar    1  UNL1       -0.0000
     23 C         -10.7192  -15.5557   20.1978 C.ar    1  UNL1       -0.0003
     24 C          -9.9677  -15.8498   21.4621 C.ar    1  UNL1       -0.0026
     25 C          -9.2476  -15.9306   24.5744 C.3     1  UNL1        0.0967
     26 N          -7.7634  -15.7232   24.6416 N.3     1  UNL1       -0.2710
     27 C          -6.9279  -15.7289   25.8873 C.3     1  UNL1        0.0722
     28 C          -5.5024  -15.4829   25.4905 C.3     1  UNL1        0.0188
     29 C          -5.4569  -15.3253   23.9995 C.3     1  UNL1        0.0188
     30 C          -6.8543  -15.4738   23.4749 C.3     1  UNL1        0.0722
@<TRIPOS>BOND
     1    13    14    1
     2    14    15    2
     3    14    16   am
     4    16    12    1
     5    12     6    1
     6     6     7   ar
     7     7     8   ar
     8     8     9   ar
     9     9     5    1
    10     5     1    1
    11     1     2    2
    12     1     3   am
    13     3     4    1
    14     3    18    1
    15    18    25    1
    16    25    26    1
    17    26    27    1
    18    27    28    1
    19    28    29    1
    20    29    30    1
    21    18    19    1
    22    19    20   ar
    23    20    21   ar
    24    21    22   ar
    25    22    23   ar
    26    23    24   ar
    27     9    10   ar
    28    10    11   ar
    29    11     6   ar
    30    30    26    1
    31    24    19   ar
    32    16    17    1
@<TRIPOS>MOLECULE
*****
 30 32 0 0 0
SMALL
GASTEIGER

@<TRIPOS>ATOM
      1 C          -6.7437  -15.5044   25.3757 C.2     1  UNL1        0.2303
      2 O          -5.7876  -15.0604   26.4428 O.2     1  UNL1       -0.2745
      3 N          -8.0912  -16.0444   25.7535 N.am    1  UNL1       -0.2740
      4 C          -8.4825  -16.1404   27.1985 C.3     1  UNL1        0.1152
      5 C          -6.3524  -15.4085   23.9308 C.3     1  UNL1        0.1116
      6 C          -3.2452  -18.1967   22.2513 C.ar    1  UNL1       -0.0026
      7 C          -2.8934  -16.7672   22.5384 C.ar    1  UNL1       -0.0029
      8 C          -3.9291  -15.8377   23.0983 C.ar    1  UNL1       -0.0041
      9 C          -5.3167  -16.3379   23.3710 C.ar    1  UNL1       -0.0131
     10 C          -5.6685  -17.7675   23.0839 C.ar    1  UNL1       -0.0041
     11 C          -4.6327  -18.6969   22.5241 C.ar    1  UNL1       -0.0029
     12 C          -2.2094  -19.1262   21.6915 C.3     1  UNL1        0.1163
     13 C          -1.4512  -17.8798   18.0008 C.3     1  UNL1        0.0946
     14 C          -2.2022  -18.2549   19.2439 C.2     1  UNL1        0.2232
     15 O          -3.6968  -18.1340   19.2825 O.2     1  UNL1       -0.2751
     16 N          -1.4585  -18.7510   20.4484 N.am    1  UNL1       -0.3004
     17 H          -0.4775  -18.8303   20.4231 H       1  UNL1        0.1497
     18 C          -9.0473  -16.4885   24.6865 C.3     1  UNL1        0.1138
     19 C          -9.2269  -17.9502   24.4014 C.ar    1  UNL1       -0.0029
     20 C          -8.6085  -18.5570   23.1770 C.ar    1  UNL1       -0.0026
     21 C          -8.7880  -20.0187   22.8919 C.ar    1  UNL1       -0.0003
     22 C          -9.5861  -20.8735   23.8312 C.ar    1  UNL1       -0.0000
     23 C         -10.2045  -20.2667   25.0556 C.ar    1  UNL1       -0.0003
     24 C         -10.0250  -18.8050   25.3407 C.ar    1  UNL1       -0.0026
     25 C          -9.8239  -15.4709   23.9046 C.3     1  UNL1        0.0967
     26 N         -10.6450  -15.8988   22.7244 N.3     1  UNL1       -0.2710
     27 C         -12.0449  -16.4353   22.7722 C.3     1  UNL1        0.0722
     28 C         -12.4753  -16.7333   21.3665 C.3     1  UNL1        0.0188
     29 C         -11.3414  -16.3810   20.4499 C.3     1  UNL1        0.0188
     30 C         -10.2102  -15.8652   21.2892 C.3     1  UNL1        0.0722
@<TRIPOS>BOND
     1    13    14    1
     2    14    15    2
     3    14    16   am
     4    16    12    1
     5    12     6    1
     6     6     7   ar
     7     7     8   ar
     8     8     9   ar
     9     9     5    1
    10     5     1    1
    11     1     2    2
    12     1     3   am
    13     3     4    1
    14     3    18    1
    15    18    25    1
    16    25    26    1
    17    26    27    1
    18    27    28    1
    19    28    29    1
    20    29    30    1
    21    18    19    1
    22    19    20   ar
    23    20    21   ar
    24    21    22   ar
    25    22    23   ar
    26    23    24   ar
    27     9    10   ar
    28    10    11   ar
    29    11     6   ar
    30    30    26    1
    31    24    19   ar
    32    16    17    1
@<TRIPOS>MOLECULE
*****
 30 32 0 0 0
SMALL
GASTEIGER

@<TRIPOS>ATOM
      1 C          -6.2395  -16.2497   23.6324 C.2     1  UNL1        0.2303
      2 O          -5.8647  -14.8099   23.8239 O.2     1  UNL1       -0.2745
      3 N          -7.6011  -16.6079   23.1150 N.am    1  UNL1       -0.2740
      4 C          -8.5880  -15.5262   22.7891 C.3     1  UNL1        0.1152
      5 C          -5.2526  -17.3313   23.9583 C.3     1  UNL1        0.1116
      6 C          -1.6382  -17.9405   21.3478 C.ar    1  UNL1       -0.0026
      7 C          -2.0856  -16.5521   21.6973 C.ar    1  UNL1       -0.0029
      8 C          -3.2904  -16.3491   22.5674 C.ar    1  UNL1       -0.0041
      9 C          -4.0478  -17.5344   23.0881 C.ar    1  UNL1       -0.0131
     10 C          -3.6005  -18.9228   22.7386 C.ar    1  UNL1       -0.0041
     11 C          -2.3957  -19.1259   21.8685 C.ar    1  UNL1       -0.0029
     12 C          -0.4334  -18.1436   20.4776 C.3     1  UNL1        0.1163
     13 C          -1.6587  -17.5917   16.7434 C.3     1  UNL1        0.0946
     14 C          -1.6332  -18.0370   18.1756 C.2     1  UNL1        0.2232
     15 O          -2.7818  -18.8209   18.7379 O.2     1  UNL1       -0.2751
     16 N          -0.4590  -17.6984   19.0455 N.am    1  UNL1       -0.3004
     17 H           0.2949  -17.1839   18.6764 H       1  UNL1        0.1497
     18 C          -7.9759  -18.0476   22.9235 C.3     1  UNL1        0.1138
     19 C          -7.1879  -18.9089   21.9816 C.ar    1  UNL1       -0.0029
     20 C          -6.6940  -18.3432   20.6831 C.ar    1  UNL1       -0.0026
     21 C          -5.9060  -19.2044   19.7412 C.ar    1  UNL1       -0.0003
     22 C          -5.6118  -20.6314   20.0977 C.ar    1  UNL1       -0.0000
     23 C          -6.1056  -21.1971   21.3962 C.ar    1  UNL1       -0.0003
     24 C          -6.8936  -20.3358   22.3381 C.ar    1  UNL1       -0.0026
     25 C          -9.1387  -18.6260   23.6740 C.3     1  UNL1        0.0967
     26 N         -10.5391  -18.3670   23.2029 N.3     1  UNL1       -0.2710
     27 C         -11.7638  -18.3108   24.0671 C.3     1  UNL1        0.0722
     28 C         -12.9422  -18.0277   23.1833 C.3     1  UNL1        0.0188
     29 C         -12.4458  -17.9088   21.7728 C.3     1  UNL1        0.0188
     30 C         -10.9606  -18.1185   21.7850 C.3     1  UNL1        0.0722
@<TRIPOS>BOND
     1    13    14    1
     2    14    15    2
     3    14    16   am
     4    16    12    1
     5    12     6    1
     6     6     7   ar
     7     7     8   ar
     8     8     9   ar
     9     9     5    1
    10     5     1    1
    11     1     2    2
    12     1     3   am
    13     3     4    1
    14     3    18    1
    15    18    25    1
    16    25    26    1
    17    26    27    1
    18    27    28    1
    19    28    29    1
    20    29    30    1
    21    18    19    1
    22    19    20   ar
    23    20    21   ar
    24    21    22   ar
    25    22    23   ar
    26    23    24   ar
    27     9    10   ar
    28    10    11   ar
    29    11     6   ar
    30    30    26    1
    31    24    19   ar
    32    16    17    1
@<TRIPOS>MOLECULE
*****
 30 32 0 0 0
SMALL
GASTEIGER

@<TRIPOS>ATOM
      1 C           4.4008   -3.0335   21.2010 C.2     1  UNL1        0.2303
      2 O           4.3974   -4.3188   21.9744 O.2     1  UNL1       -0.2745
      3 N           3.8849   -3.0042   19.7928 N.am    1  UNL1       -0.2740
      4 C           3.3657   -4.2602   19.1580 C.3     1  UNL1        0.1152
      5 C           4.9200   -1.7776   21.8358 C.3     1  UNL1        0.1116
      6 C           3.3106   -0.4383   25.8191 C.ar    1  UNL1       -0.0026
      7 C           4.4677   -1.3909   25.7596 C.ar    1  UNL1       -0.0029
      8 C           5.0041   -1.8374   24.4318 C.ar    1  UNL1       -0.0041
      9 C           4.3835   -1.3311   23.1636 C.ar    1  UNL1       -0.0131
     10 C           3.2265   -0.3784   23.2231 C.ar    1  UNL1       -0.0041
     11 C           2.6901    0.0680   24.5508 C.ar    1  UNL1       -0.0029
     12 C           2.7742    0.0082   27.1468 C.3     1  UNL1        0.1163
     13 C          -0.7661   -0.0559   28.9392 C.3     1  UNL1        0.0946
     14 C           0.7151   -0.1530   28.7230 C.2     1  UNL1        0.2232
     15 O           1.6183   -0.5082   29.8666 O.2     1  UNL1       -0.2751
     16 N           1.2931    0.1052   27.3631 N.am    1  UNL1       -0.3004
     17 H           0.7002    0.3384   26.6124 H       1  UNL1        0.1497
     18 C           3.8883   -1.7190   19.0194 C.3     1  UNL1        0.1138
     19 C           2.7894   -0.7185   19.2226 C.ar    1  UNL1       -0.0029
     20 C           1.6461   -1.0362   20.1402 C.ar    1  UNL1       -0.0026
     21 C           0.5471   -0.0356   20.3433 C.ar    1  UNL1       -0.0003
     22 C           0.5915    1.2825   19.6289 C.ar    1  UNL1       -0.0000
     23 C           1.7347    1.6002   18.7114 C.ar    1  UNL1       -0.0003
     24 C           2.8337    0.5997   18.5082 C.ar    1  UNL1       -0.0026
     25 C           4.9907   -1.4343   18.0429 C.3     1  UNL1        0.0967
     26 N           6.3957   -1.2433   18.5324 N.3     1  UNL1       -0.2710
     27 C           7.0589    0.0714   18.8177 C.3     1  UNL1        0.0722
     28 C           8.4572   -0.2063   19.2843 C.3     1  UNL1        0.0188
     29 C           8.6581   -1.6928   19.2873 C.3     1  UNL1        0.0188
     30 C           7.3840   -2.3337   18.8227 C.3     1  UNL1        0.0722
@<TRIPOS>BOND
     1    13    14    1
     2    14    15    2
     3    14    16   am
     4    16    12    1
     5    12     6    1
     6     6     7   ar
     7     7     8   ar
     8     8     9   ar
     9     9     5    1
    10     5     1    1
    11     1     2    2
    12     1     3   am
    13     3     4    1
    14     3    18    1
    15    18    25    1
    16    25    26    1
    17    26    27    1
    18    27    28    1
    19    28    29    1
    20    29    30    1
    21    18    19    1
    22    19    20   ar
    23    20    21   ar
    24    21    22   ar
    25    22    23   ar
    26    23    24   ar
    27     9    10   ar
    28    10    11   ar
    29    11     6   ar
    30    30    26    1
    31    24    19   ar
    32    16    17    1
@<TRIPOS>MOLECULE
*****
 30 32 0 0 0
SMALL
GASTEIGER

@<TRIPOS>ATOM
      1 C          -5.8292  -15.9838   24.2892 C.2     1  UNL1        0.2303
      2 O          -5.1814  -14.8730   25.0616 O.2     1  UNL1       -0.2745
      3 N          -7.1655  -15.7679   23.6428 N.am    1  UNL1       -0.2740
      4 C          -7.8540  -14.4412   23.7689 C.3     1  UNL1        0.1152
      5 C          -5.1407  -17.3105   24.1631 C.3     1  UNL1        0.1116
      6 C          -1.6289  -17.7681   21.3868 C.ar    1  UNL1       -0.0026
      7 C          -2.1630  -16.4023   21.7016 C.ar    1  UNL1       -0.0029
      8 C          -3.3336  -16.2498   22.6271 C.ar    1  UNL1       -0.0041
      9 C          -3.9701  -17.4630   23.2377 C.ar    1  UNL1       -0.0131
     10 C          -3.4359  -18.8288   22.9229 C.ar    1  UNL1       -0.0041
     11 C          -2.2653  -18.9814   21.9974 C.ar    1  UNL1       -0.0029
     12 C          -0.4583  -17.9207   20.4614 C.3     1  UNL1        0.1163
     13 C          -1.8006  -17.5471   16.7453 C.3     1  UNL1        0.0946
     14 C          -1.6894  -17.9889   18.1745 C.2     1  UNL1        0.2232
     15 O          -2.6982  -18.9406   18.7459 O.2     1  UNL1       -0.2751
     16 N          -0.5695  -17.4789   19.0322 N.am    1  UNL1       -0.3004
     17 H           0.0926  -16.8542   18.6572 H       1  UNL1        0.1497
     18 C          -7.8132  -16.8787   22.8704 C.3     1  UNL1        0.1138
     19 C          -8.9767  -17.6213   23.4577 C.ar    1  UNL1       -0.0029
     20 C         -10.0811  -18.1095   22.5678 C.ar    1  UNL1       -0.0026
     21 C         -11.2446  -18.8522   23.1551 C.ar    1  UNL1       -0.0003
     22 C         -11.3035  -19.1067   24.6321 C.ar    1  UNL1       -0.0000
     23 C         -10.1991  -18.6186   25.5219 C.ar    1  UNL1       -0.0003
     24 C          -9.0356  -17.8759   24.9347 C.ar    1  UNL1       -0.0026
     25 C          -7.2975  -17.2467   21.5108 C.3     1  UNL1        0.0967
     26 N          -6.7316  -18.6146   21.2683 N.3     1  UNL1       -0.2710
     27 C          -6.9432  -19.8222   22.1325 C.3     1  UNL1        0.0722
     28 C          -6.1972  -20.9689   21.5173 C.3     1  UNL1        0.0188
     29 C          -5.5245  -20.4700   20.2728 C.3     1  UNL1        0.0188
     30 C          -5.8548  -19.0149   20.1190 C.3     1  UNL1        0.0722
@<TRIPOS>BOND
     1    13    14    1
     2    14    15    2
     3    14    16   am
     4    16    12    1
     5    12     6    1
     6     6     7   ar
     7     7     8   ar
     8     8     9   ar
     9     9     5    1
    10     5     1    1
    11     1     2    2
    12     1     3   am
    13     3     4    1
    14     3    18    1
    15    18    25    1
    16    25    26    1
    17    26    27    1
    18    27    28    1
    19    28    29    1
    20    29    30    1
    21    18    19    1
    22    19    20   ar
    23    20    21   ar
    24    21    22   ar
    25    22    23   ar
    26    23    24   ar
    27     9    10   ar
    28    10    11   ar
    29    11     6   ar
    30    30    26    1
    31    24    19   ar
    32    16    17    1
@<TRIPOS>MOLECULE
*****
 30 32 0 0 0
SMALL
GASTEIGER

@<TRIPOS>ATOM
      1 C           5.2217   -2.5944   24.2843 C.2     1  UNL1        0.2303
      2 O           4.1443   -1.6659   24.7609 O.2     1  UNL1       -0.2745
      3 N           6.5581   -2.6049   24.9653 N.am    1  UNL1       -0.2740
      4 C           6.8171   -1.6869   26.1230 C.3     1  UNL1        0.1152
      5 C           4.9626   -3.5124   23.1267 C.3     1  UNL1        0.1116
      6 C           4.0768   -1.8074   19.0575 C.ar    1  UNL1       -0.0026
      7 C           4.2633   -0.8910   20.2302 C.ar    1  UNL1       -0.0029
      8 C           4.5586   -1.4593   21.5866 C.ar    1  UNL1       -0.0041
      9 C           4.6673   -2.9440   21.7703 C.ar    1  UNL1       -0.0131
     10 C           4.4807   -3.8604   20.5975 C.ar    1  UNL1       -0.0041
     11 C           4.1855   -3.2921   19.2411 C.ar    1  UNL1       -0.0029
     12 C           3.7815   -1.2390   17.7011 C.3     1  UNL1        0.1163
     13 C           6.4287    1.4768   16.5323 C.3     1  UNL1        0.0946
     14 C           5.8329    0.1622   16.9406 C.2     1  UNL1        0.2232
     15 O           6.6925   -1.0658   16.9968 O.2     1  UNL1       -0.2751
     16 N           4.3774    0.0755   17.2928 N.am    1  UNL1       -0.3004
     17 H           3.8132    0.8815   17.2559 H       1  UNL1        0.1497
     18 C           7.6355   -3.5334   24.4887 C.3     1  UNL1        0.1138
     19 C           7.6229   -4.9740   24.9065 C.ar    1  UNL1       -0.0029
     20 C           6.9526   -5.3781   26.1860 C.ar    1  UNL1       -0.0026
     21 C           6.9401   -6.8187   26.6037 C.ar    1  UNL1       -0.0003
     22 C           7.5979   -7.8552   25.7419 C.ar    1  UNL1       -0.0000
     23 C           8.2682   -7.4511   24.4623 C.ar    1  UNL1       -0.0003
     24 C           8.2808   -6.0105   24.0446 C.ar    1  UNL1       -0.0026
     25 C           8.7253   -3.0212   23.5944 C.3     1  UNL1        0.0967
     26 N           8.4147   -2.6365   22.1782 N.3     1  UNL1       -0.2710
     27 C           8.2434   -1.2388   21.6616 C.3     1  UNL1        0.0722
     28 C           7.9437   -1.3205   20.1941 C.3     1  UNL1        0.0188
     29 C           7.9299   -2.7688   19.8038 C.3     1  UNL1        0.0188
     30 C           8.2210   -3.5821   21.0300 C.3     1  UNL1        0.0722
@<TRIPOS>BOND
     1    13    14    1
     2    14    15    2
     3    14    16   am
     4    16    12    1
     5    12     6    1
     6     6     7   ar
     7     7     8   ar
     8     8     9   ar
     9     9     5    1
    10     5     1    1
    11     1     2    2
    12     1     3   am
    13     3     4    1
    14     3    18    1
    15    18    25    1
    16    25    26    1
    17    26    27    1
    18    27    28    1
    19    28    29    1
    20    29    30    1
    21    18    19    1
    22    19    20   ar
    23    20    21   ar
    24    21    22   ar
    25    22    23   ar
    26    23    24   ar
    27     9    10   ar
    28    10    11   ar
    29    11     6   ar
    30    30    26    1
    31    24    19   ar
    32    16    17    1
@<TRIPOS>MOLECULE
*****
 30 32 0 0 0
SMALL
GASTEIGER

@<TRIPOS>ATOM
      1 C           4.6152   -3.1026   21.0124 C.2     1  UNL1        0.2303
      2 O           4.6354   -4.3787   21.8006 O.2     1  UNL1       -0.2745
      3 N           3.9398   -3.0586   19.6738 N.am    1  UNL1       -0.2740
      4 C           3.2846   -4.2906   19.1234 C.3     1  UNL1        0.1152
      5 C           5.2703   -1.8707   21.5628 C.3     1  UNL1        0.1116
      6 C           2.8015    1.2297   23.6941 C.ar    1  UNL1       -0.0026
      7 C           2.6854   -0.2155   24.0784 C.ar    1  UNL1       -0.0029
      8 C           3.5084   -1.2490   23.3680 C.ar    1  UNL1       -0.0041
      9 C           4.4474   -0.8372   22.2732 C.ar    1  UNL1       -0.0131
     10 C           4.5635    0.6080   21.8888 C.ar    1  UNL1       -0.0041
     11 C           3.7405    1.6415   22.5993 C.ar    1  UNL1       -0.0029
     12 C           1.9785    2.2632   24.4045 C.3     1  UNL1        0.1163
     13 C          -0.8475    1.7776   27.1482 C.3     1  UNL1        0.0946
     14 C          -0.1745    2.1165   25.8511 C.2     1  UNL1        0.2232
     15 O          -0.9816    2.6476   24.7038 O.2     1  UNL1       -0.2751
     16 N           1.3056    1.9243   25.7015 N.am    1  UNL1       -0.3004
     17 H           1.8353    1.5757   26.4545 H       1  UNL1        0.1497
     18 C           3.9196   -1.7826   18.8855 C.3     1  UNL1        0.1138
     19 C           2.8271   -0.7795   19.1101 C.ar    1  UNL1       -0.0029
     20 C           1.7342   -1.0689   20.0958 C.ar    1  UNL1       -0.0026
     21 C           0.6417   -0.0659   20.3204 C.ar    1  UNL1       -0.0003
     22 C           0.6422    1.2266   19.5592 C.ar    1  UNL1       -0.0000
     23 C           1.7352    1.5161   18.5735 C.ar    1  UNL1       -0.0003
     24 C           2.8276    0.5130   18.3490 C.ar    1  UNL1       -0.0026
     25 C           4.9918   -1.5097   17.8728 C.3     1  UNL1        0.0967
     26 N           6.3883   -1.1993   18.3240 N.3     1  UNL1       -0.2710
     27 C           7.4562   -2.2038   18.6410 C.3     1  UNL1        0.0722
     28 C           8.6899   -1.4552   19.0504 C.3     1  UNL1        0.0188
     29 C           8.3844    0.0121   18.9864 C.3     1  UNL1        0.0188
     30 C           6.9619    0.1702   18.5375 C.3     1  UNL1        0.0722
@<TRIPOS>BOND
     1    13    14    1
     2    14    15    2
     3    14    16   am
     4    16    12    1
     5    12     6    1
     6     6     7   ar
     7     7     8   ar
     8     8     9   ar
     9     9     5    1
    10     5     1    1
    11     1     2    2
    12     1     3   am
    13     3     4    1
    14     3    18    1
    15    18    25    1
    16    25    26    1
    17    26    27    1
    18    27    28    1
    19    28    29    1
    20    29    30    1
    21    18    19    1
    22    19    20   ar
    23    20    21   ar
    24    21    22   ar
    25    22    23   ar
    26    23    24   ar
    27     9    10   ar
    28    10    11   ar
    29    11     6   ar
    30    30    26    1
    31    24    19   ar
    32    16    17    1
@<TRIPOS>MOLECULE
*****
 30 32 0 0 0
SMALL
GASTEIGER

@<TRIPOS>ATOM
      1 C           6.4423   -1.7058   25.7802 C.2     1  UNL1        0.2303
      2 O           6.8928   -0.3111   25.4608 O.2     1  UNL1       -0.2745
      3 N           7.3735   -2.6540   26.4758 N.am    1  UNL1       -0.2740
      4 C           8.7553   -2.2074   26.8519 C.3     1  UNL1        0.1152
      5 C           5.0606   -2.1523   25.4041 C.3     1  UNL1        0.1116
      6 C           3.9506   -2.6246   21.0688 C.ar    1  UNL1       -0.0026
      7 C           4.7309   -3.7002   21.7647 C.ar    1  UNL1       -0.0029
      8 C           5.1008   -3.5427   23.2098 C.ar    1  UNL1       -0.0041
      9 C           4.6906   -2.3097   23.9590 C.ar    1  UNL1       -0.0131
     10 C           3.9104   -1.2342   23.2631 C.ar    1  UNL1       -0.0041
     11 C           3.5404   -1.3916   21.8180 C.ar    1  UNL1       -0.0029
     12 C           3.5807   -2.7820   19.6237 C.3     1  UNL1        0.1163
     13 C           4.7362   -0.2043   16.8361 C.3     1  UNL1        0.0946
     14 C           4.7243   -1.3957   17.7475 C.2     1  UNL1        0.2232
     15 O           5.8442   -2.3922   17.6939 O.2     1  UNL1       -0.2751
     16 N           3.5925   -1.5907   18.7124 N.am    1  UNL1       -0.3004
     17 H           2.8575   -0.9366   18.7476 H       1  UNL1        0.1497
     18 C           6.9231   -4.0486   26.7953 C.3     1  UNL1        0.1138
     19 C           7.3833   -5.1979   25.9483 C.ar    1  UNL1       -0.0029
     20 C           7.9795   -4.9415   24.5960 C.ar    1  UNL1       -0.0026
     21 C           8.4396   -6.0908   23.7491 C.ar    1  UNL1       -0.0003
     22 C           8.3036   -7.4965   24.2544 C.ar    1  UNL1       -0.0000
     23 C           7.7073   -7.7529   25.6067 C.ar    1  UNL1       -0.0003
     24 C           7.2472   -6.6036   26.4536 C.ar    1  UNL1       -0.0026
     25 C           6.0125   -4.2939   27.9617 C.3     1  UNL1        0.0967
     26 N           6.5860   -4.4732   29.3362 N.3     1  UNL1       -0.2710
     27 C           7.0658   -5.7644   29.9298 C.3     1  UNL1        0.0722
     28 C           7.5566   -5.4819   31.3188 C.3     1  UNL1        0.0188
     29 C           7.3801   -4.0160   31.5837 C.3     1  UNL1        0.0188
     30 C           6.7802   -3.3926   30.3583 C.3     1  UNL1        0.0722
@<TRIPOS>BOND
     1    13    14    1
     2    14    15    2
     3    14    16   am
     4    16    12    1
     5    12     6    1
     6     6     7   ar
     7     7     8   ar
     8     8     9   ar
     9     9     5    1
    10     5     1    1
    11     1     2    2
    12     1     3   am
    13     3     4    1
    14     3    18    1
    15    18    25    1
    16    25    26    1
    17    26    27    1
    18    27    28    1
    19    28    29    1
    20    29    30    1
    21    18    19    1
    22    19    20   ar
    23    20    21   ar
    24    21    22   ar
    25    22    23   ar
    26    23    24   ar
    27     9    10   ar
    28    10    11   ar
    29    11     6   ar
    30    30    26    1
    31    24    19   ar
    32    16    17    1
