@<TRIPOS>MOLECULE
*****
 32 34 0 0 0
SMALL
GASTEIGER

@<TRIPOS>ATOM
      1 C          -6.9863  -19.7675   21.6467 C.3     1  UNL1        0.1688
      2 C          -8.0154  -19.8981   22.7303 C.3     1  UNL1        0.0609
      3 C          -9.4740  -19.7968   22.3955 C.3     1  UNL1        0.0758
      4 N          -9.9036  -19.5649   20.9772 N.3     1  UNL1       -0.2724
      5 C          -8.8746  -19.4342   19.8936 C.3     1  UNL1        0.0758
      6 C          -7.4159  -19.5355   20.2284 C.3     1  UNL1        0.0609
      7 O          -5.5277  -19.8688   21.9815 O.3     1  UNL1       -0.4776
      8 C          -4.4072  -16.3912   23.5311 C.ar    1  UNL1       -0.0191
      9 C          -5.2042  -17.6342   23.2668 C.ar    1  UNL1        0.0342
     10 C          -4.7308  -18.6258   22.2458 C.ar    1  UNL1        0.1555
     11 C          -3.4603  -18.3743   21.4888 C.ar    1  UNL1        0.1151
     12 N          -2.9869  -19.3659   20.4678 N.ar    1  UNL1       -0.2408
     13 C          -1.7165  -19.1145   19.7109 C.ar    1  UNL1        0.0989
     14 C          -0.9196  -17.8715   19.9751 C.ar    1  UNL1        0.0207
     15 C          -1.3930  -16.8799   20.9962 C.ar    1  UNL1        0.0032
     16 C          -2.6634  -17.1313   21.7531 C.ar    1  UNL1        0.0204
     17 C          -3.1368  -16.1398   22.7742 C.ar    1  UNL1       -0.0026
     18 C          -4.8807  -15.3996   24.5522 C.3     1  UNL1        0.0265
     19 C          -5.2096  -15.8546   25.9432 C.3     1  UNL1        0.0047
     20 C          -7.1312  -15.9796   27.6872 C.3     1  UNL1        0.0000
     21 C          -6.3148  -15.1889   26.7084 C.3     1  UNL1        0.0003
     22 C         -11.3623  -19.4636   20.6423 C.3     1  UNL1        0.0721
     23 C         -12.2113  -18.4151   21.2981 C.3     1  UNL1        0.0188
     24 C         -12.3298  -17.0527   20.6819 C.3     1  UNL1        0.0202
     25 C         -11.3916  -15.9581   21.0962 C.3     1  UNL1        0.0911
     26 N          -9.9109  -16.1979   21.0921 N.3     1  UNL1       -0.1833
     27 H          -9.4942  -15.4573   20.5279 H       1  UNL1        0.1484
     28 S          -9.1535  -16.2344   22.3863 S.O2    1  UNL1        0.0407
     29 O         -10.4477  -16.2125   23.1443 O.2     1  UNL1       -0.1575
     30 O          -7.8593  -16.2563   21.6284 O.2     1  UNL1       -0.1575
     31 C          -8.3961  -16.2710   23.6806 C.3     1  UNL1        0.1689
     32 C          -9.0129  -16.9032   24.8930 C.3     1  UNL1        0.0289
@<TRIPOS>BOND
     1    20    21    1
     2    21    19    1
     3    19    18    1
     4    18     8    1
     5     8     9   ar
     6     9    10   ar
     7    10     7    1
     8     7     1    1
     9     1     2    1
    10     2     3    1
    11     3     4    1
    12     4    22    1
    13    22    23    1
    14    23    24    1
    15    24    25    1
    16    25    26    1
    17    26    28    1
    18    28    29    2
    19    28    30    2
    20    28    31    1
    21    31    32    1
    22     4     5    1
    23     5     6    1
    24    10    11   ar
    25    11    12   ar
    26    12    13   ar
    27    13    14   ar
    28    14    15   ar
    29    15    16   ar
    30    16    17   ar
    31    17     8   ar
    32     6     1    1
    33    16    11   ar
    34    26    27    1
@<TRIPOS>MOLECULE
*****
 32 34 0 0 0
SMALL
GASTEIGER

@<TRIPOS>ATOM
      1 C          -7.0068  -19.5774   21.9036 C.3     1  UNL1        0.1688
      2 C          -5.7596  -20.2810   22.3504 C.3     1  UNL1        0.0609
      3 C          -4.5303  -20.2463   21.4916 C.3     1  UNL1        0.0758
      4 N          -4.5482  -19.5081   20.1859 N.3     1  UNL1       -0.2724
      5 C          -5.7953  -18.8046   19.7391 C.3     1  UNL1        0.0758
      6 C          -7.0246  -18.8393   20.5980 C.3     1  UNL1        0.0609
      7 O          -8.2360  -19.6121   22.7625 O.3     1  UNL1       -0.4776
      8 C          -9.0965  -16.2143   24.6238 C.ar    1  UNL1       -0.0191
      9 C          -8.4029  -17.4922   24.2551 C.ar    1  UNL1        0.0342
     10 C          -8.9297  -18.3342   23.1311 C.ar    1  UNL1        0.1555
     11 C         -10.1502  -17.8984   22.3758 C.ar    1  UNL1        0.1151
     12 N         -10.6770  -18.7405   21.2518 N.ar    1  UNL1       -0.2408
     13 C         -11.8974  -18.3047   20.4965 C.ar    1  UNL1        0.0989
     14 C         -12.5911  -17.0268   20.8652 C.ar    1  UNL1        0.0207
     15 C         -12.0643  -16.1847   21.9891 C.ar    1  UNL1        0.0032
     16 C         -10.8438  -16.6205   22.7444 C.ar    1  UNL1        0.0204
     17 C         -10.3170  -15.7785   23.8685 C.ar    1  UNL1       -0.0026
     18 C          -8.5696  -15.3722   25.7478 C.3     1  UNL1        0.0265
     19 C          -7.9988  -16.0263   26.9711 C.3     1  UNL1        0.0047
     20 C          -5.6298  -15.1484   26.3652 C.3     1  UNL1        0.0000
     21 C          -6.5635  -15.7988   27.3426 C.3     1  UNL1        0.0003
     22 C          -3.3189  -19.4735   19.3271 C.3     1  UNL1        0.0721
     23 C          -2.8116  -18.1655   18.7960 C.3     1  UNL1        0.0188
     24 C          -1.3711  -17.7897   18.9793 C.3     1  UNL1        0.0202
     25 C          -0.8234  -17.5680   20.3580 C.3     1  UNL1        0.0911
     26 N          -1.4688  -16.5666   21.2694 N.3     1  UNL1       -0.1833
     27 H          -1.9410  -15.8871   20.6730 H       1  UNL1        0.1484
     28 S          -2.4715  -17.0178   22.2896 S.O2    1  UNL1        0.0407
     29 O          -3.1684  -15.6933   22.1906 O.2     1  UNL1       -0.1575
     30 O          -1.7747  -18.3424   22.3886 O.2     1  UNL1       -0.1575
     31 C          -3.4743  -17.4692   23.3099 C.3     1  UNL1        0.1689
     32 C          -4.8171  -16.8052   23.3864 C.3     1  UNL1        0.0289
@<TRIPOS>BOND
     1    20    21    1
     2    21    19    1
     3    19    18    1
     4    18     8    1
     5     8     9   ar
     6     9    10   ar
     7    10     7    1
     8     7     1    1
     9     1     2    1
    10     2     3    1
    11     3     4    1
    12     4    22    1
    13    22    23    1
    14    23    24    1
    15    24    25    1
    16    25    26    1
    17    26    28    1
    18    28    29    2
    19    28    30    2
    20    28    31    1
    21    31    32    1
    22     4     5    1
    23     5     6    1
    24    10    11   ar
    25    11    12   ar
    26    12    13   ar
    27    13    14   ar
    28    14    15   ar
    29    15    16   ar
    30    16    17   ar
    31    17     8   ar
    32     6     1    1
    33    16    11   ar
    34    26    27    1
@<TRIPOS>MOLECULE
*****
 32 34 0 0 0
SMALL
GASTEIGER

@<TRIPOS>ATOM
      1 C          -8.4924  -19.0362   22.7456 C.3     1  UNL1        0.1688
      2 C          -9.0141  -17.6913   23.1570 C.3     1  UNL1        0.0609
      3 C         -10.3072  -17.5868   23.9098 C.3     1  UNL1        0.0758
      4 N         -11.0787  -18.8270   24.2513 N.3     1  UNL1       -0.2724
      5 C         -10.5571  -20.1718   23.8399 C.3     1  UNL1        0.0758
      6 C          -9.2639  -20.2765   23.0870 C.3     1  UNL1        0.0609
      7 O          -7.1993  -19.1408   21.9927 O.3     1  UNL1       -0.4776
      8 C          -4.9450  -16.5016   23.9169 C.ar    1  UNL1       -0.0191
      9 C          -6.1505  -17.2599   23.4460 C.ar    1  UNL1        0.0342
     10 C          -5.9938  -18.3825   22.4636 C.ar    1  UNL1        0.1555
     11 C          -4.6315  -18.7469   21.9521 C.ar    1  UNL1        0.1151
     12 N          -4.4748  -19.8695   20.9698 N.ar    1  UNL1       -0.2408
     13 C          -3.1126  -20.2339   20.4584 C.ar    1  UNL1        0.0989
     14 C          -1.9071  -19.4756   20.9293 C.ar    1  UNL1        0.0207
     15 C          -2.0638  -18.3529   21.9117 C.ar    1  UNL1        0.0032
     16 C          -3.4260  -17.9886   22.4231 C.ar    1  UNL1        0.0204
     17 C          -3.5828  -16.8659   23.4055 C.ar    1  UNL1       -0.0026
     18 C          -5.1018  -15.3789   24.8993 C.3     1  UNL1        0.0265
     19 C          -6.4432  -15.0975   25.5088 C.3     1  UNL1        0.0047
     20 C          -8.1382  -15.6693   27.3929 C.3     1  UNL1        0.0000
     21 C          -6.7226  -15.5015   26.9261 C.3     1  UNL1        0.0003
     22 C         -12.3718  -18.7224   25.0042 C.3     1  UNL1        0.0721
     23 C         -13.6025  -18.2133   24.3140 C.3     1  UNL1        0.0188
     24 C         -13.4754  -17.2958   23.1342 C.3     1  UNL1        0.0202
     25 C         -13.3035  -17.8646   21.7569 C.3     1  UNL1        0.0911
     26 N         -12.4916  -17.1243   20.7357 N.3     1  UNL1       -0.1833
     27 H         -12.2122  -16.2422   21.1647 H       1  UNL1        0.1484
     28 S         -11.2475  -17.7453   20.1730 S.O2    1  UNL1        0.0407
     29 O         -11.6398  -19.0668   20.7643 O.2     1  UNL1       -0.1575
     30 O         -10.8553  -16.4238   19.5817 O.2     1  UNL1       -0.1575
     31 C         -10.0034  -18.3663   19.6103 C.3     1  UNL1        0.1689
     32 C          -9.9502  -19.8443   19.3598 C.3     1  UNL1        0.0289
@<TRIPOS>BOND
     1    20    21    1
     2    21    19    1
     3    19    18    1
     4    18     8    1
     5     8     9   ar
     6     9    10   ar
     7    10     7    1
     8     7     1    1
     9     1     2    1
    10     2     3    1
    11     3     4    1
    12     4    22    1
    13    22    23    1
    14    23    24    1
    15    24    25    1
    16    25    26    1
    17    26    28    1
    18    28    29    2
    19    28    30    2
    20    28    31    1
    21    31    32    1
    22     4     5    1
    23     5     6    1
    24    10    11   ar
    25    11    12   ar
    26    12    13   ar
    27    13    14   ar
    28    14    15   ar
    29    15    16   ar
    30    16    17   ar
    31    17     8   ar
    32     6     1    1
    33    16    11   ar
    34    26    27    1
@<TRIPOS>MOLECULE
*****
 32 34 0 0 0
SMALL
GASTEIGER

@<TRIPOS>ATOM
      1 C          -4.3494  -15.8314   23.0226 C.3     1  UNL1        0.1688
      2 C          -4.3928  -17.2992   23.3288 C.3     1  UNL1        0.0609
      3 C          -3.3169  -18.2059   22.8089 C.3     1  UNL1        0.0758
      4 N          -2.1976  -17.6449   21.9830 N.3     1  UNL1       -0.2724
      5 C          -2.1541  -16.1772   21.6768 C.3     1  UNL1        0.0758
      6 C          -3.2301  -15.2704   22.1966 C.3     1  UNL1        0.0609
      7 O          -5.4253  -14.9247   23.5425 O.3     1  UNL1       -0.4776
      8 C          -9.1311  -16.1320   22.7943 C.ar    1  UNL1       -0.0191
      9 C          -7.7425  -15.6048   22.5844 C.ar    1  UNL1        0.0342
     10 C          -6.8138  -15.4519   23.7523 C.ar    1  UNL1        0.1555
     11 C          -7.2737  -15.8262   25.1302 C.ar    1  UNL1        0.1151
     12 N          -6.3450  -15.6733   26.2982 N.ar    1  UNL1       -0.2408
     13 C          -6.8048  -16.0476   27.6760 C.ar    1  UNL1        0.0989
     14 C          -8.1934  -16.5748   27.8858 C.ar    1  UNL1        0.0207
     15 C          -9.1221  -16.7277   26.7179 C.ar    1  UNL1        0.0032
     16 C          -8.6622  -16.3534   25.3401 C.ar    1  UNL1        0.0204
     17 C          -9.5909  -16.5063   24.1721 C.ar    1  UNL1       -0.0026
     18 C         -10.0598  -16.2849   21.6262 C.3     1  UNL1        0.0265
     19 C         -11.5365  -16.0998   21.8130 C.3     1  UNL1        0.0047
     20 C         -13.0048  -17.7634   23.1646 C.3     1  UNL1        0.0000
     21 C         -12.4427  -17.2943   21.8553 C.3     1  UNL1        0.0003
     22 C          -1.1217  -18.5516   21.4631 C.3     1  UNL1        0.0721
     23 C          -0.8216  -18.5940   19.9940 C.3     1  UNL1        0.0188
     24 C          -1.9007  -18.2855   18.9989 C.3     1  UNL1        0.0202
     25 C          -3.1619  -19.0972   18.9845 C.3     1  UNL1        0.0911
     26 N          -4.4365  -18.5121   19.5168 N.3     1  UNL1       -0.1833
     27 H          -4.9533  -18.1527   18.7141 H       1  UNL1        0.1484
     28 S          -5.3884  -19.3711   20.2953 S.O2    1  UNL1        0.0407
     29 O          -6.3752  -18.2421   20.3343 O.2     1  UNL1       -0.1575
     30 O          -4.4015  -20.5000   20.2562 O.2     1  UNL1       -0.1575
     31 C          -6.3402  -20.2301   21.0738 C.3     1  UNL1        0.1689
     32 C          -7.2859  -19.6029   22.0548 C.3     1  UNL1        0.0289
@<TRIPOS>BOND
     1    20    21    1
     2    21    19    1
     3    19    18    1
     4    18     8    1
     5     8     9   ar
     6     9    10   ar
     7    10     7    1
     8     7     1    1
     9     1     2    1
    10     2     3    1
    11     3     4    1
    12     4    22    1
    13    22    23    1
    14    23    24    1
    15    24    25    1
    16    25    26    1
    17    26    28    1
    18    28    29    2
    19    28    30    2
    20    28    31    1
    21    31    32    1
    22     4     5    1
    23     5     6    1
    24    10    11   ar
    25    11    12   ar
    26    12    13   ar
    27    13    14   ar
    28    14    15   ar
    29    15    16   ar
    30    16    17   ar
    31    17     8   ar
    32     6     1    1
    33    16    11   ar
    34    26    27    1
@<TRIPOS>MOLECULE
*****
 32 34 0 0 0
SMALL
GASTEIGER

@<TRIPOS>ATOM
      1 C          -7.1000  -19.7408   20.8804 C.3     1  UNL1        0.1688
      2 C          -6.3145  -18.9788   19.8545 C.3     1  UNL1        0.0609
      3 C          -4.8179  -18.9281   19.9415 C.3     1  UNL1        0.0758
      4 N          -4.1068  -19.6394   21.0543 N.3     1  UNL1       -0.2724
      5 C          -4.8922  -20.4014   22.0801 C.3     1  UNL1        0.0758
      6 C          -6.3889  -20.4522   21.9932 C.3     1  UNL1        0.0609
      7 O          -8.5966  -19.7915   20.7934 O.3     1  UNL1       -0.4776
      8 C         -10.1275  -18.4031   24.1815 C.ar    1  UNL1       -0.0191
      9 C          -9.2931  -19.2044   23.2265 C.ar    1  UNL1        0.0342
     10 C          -9.4310  -18.9903   21.7484 C.ar    1  UNL1        0.1555
     11 C         -10.4032  -17.9749   21.2250 C.ar    1  UNL1        0.1151
     12 N         -10.5410  -17.7608   19.7468 N.ar    1  UNL1       -0.2408
     13 C         -11.5132  -16.7454   19.2235 C.ar    1  UNL1        0.0989
     14 C         -12.3476  -15.9442   20.1784 C.ar    1  UNL1        0.0207
     15 C         -12.2097  -16.1583   21.6566 C.ar    1  UNL1        0.0032
     16 C         -11.2375  -17.1736   22.1799 C.ar    1  UNL1        0.0204
     17 C         -11.0997  -17.3878   23.6582 C.ar    1  UNL1       -0.0026
     18 C          -9.9896  -18.6172   25.6597 C.3     1  UNL1        0.0265
     19 C          -9.0120  -17.7972   26.4484 C.3     1  UNL1        0.0047
     20 C          -8.1298  -15.4464   27.1157 C.3     1  UNL1        0.0000
     21 C          -8.8322  -16.3408   26.1376 C.3     1  UNL1        0.0003
     22 C          -2.6102  -19.5887   21.1412 C.3     1  UNL1        0.0721
     23 C          -1.9446  -18.5907   22.0418 C.3     1  UNL1        0.0188
     24 C          -2.7174  -17.4128   22.5569 C.3     1  UNL1        0.0202
     25 C          -3.8701  -17.6236   23.4934 C.3     1  UNL1        0.0911
     26 N          -4.3755  -16.4849   24.3289 N.3     1  UNL1       -0.1833
     27 H          -3.6423  -15.7759   24.3348 H       1  UNL1        0.1484
     28 S          -5.6494  -15.7874   23.9541 S.O2    1  UNL1        0.0407
     29 O          -6.0190  -16.9390   23.0669 O.2     1  UNL1       -0.1575
     30 O          -5.2799  -14.6358   24.8413 O.2     1  UNL1       -0.1575
     31 C          -6.9234  -15.0898   23.5793 C.3     1  UNL1        0.1689
     32 C          -7.8658  -15.7243   22.5999 C.3     1  UNL1        0.0289
@<TRIPOS>BOND
     1    20    21    1
     2    21    19    1
     3    19    18    1
     4    18     8    1
     5     8     9   ar
     6     9    10   ar
     7    10     7    1
     8     7     1    1
     9     1     2    1
    10     2     3    1
    11     3     4    1
    12     4    22    1
    13    22    23    1
    14    23    24    1
    15    24    25    1
    16    25    26    1
    17    26    28    1
    18    28    29    2
    19    28    30    2
    20    28    31    1
    21    31    32    1
    22     4     5    1
    23     5     6    1
    24    10    11   ar
    25    11    12   ar
    26    12    13   ar
    27    13    14   ar
    28    14    15   ar
    29    15    16   ar
    30    16    17   ar
    31    17     8   ar
    32     6     1    1
    33    16    11   ar
    34    26    27    1
@<TRIPOS>MOLECULE
*****
 32 34 0 0 0
SMALL
GASTEIGER

@<TRIPOS>ATOM
      1 C          -6.9516  -19.7595   21.1949 C.3     1  UNL1        0.1688
      2 C          -8.0175  -19.3256   20.2327 C.3     1  UNL1        0.0609
      3 C          -9.4606  -19.3786   20.6382 C.3     1  UNL1        0.0758
      4 N          -9.8380  -19.8655   22.0058 N.3     1  UNL1       -0.2724
      5 C          -8.7722  -20.2994   22.9680 C.3     1  UNL1        0.0758
      6 C          -7.3290  -20.2464   22.5626 C.3     1  UNL1        0.0609
      7 O          -5.5085  -19.7064   20.7894 O.3     1  UNL1       -0.4776
      8 C          -4.0095  -17.1245   23.4041 C.ar    1  UNL1       -0.0191
      9 C          -4.9327  -18.1176   22.7628 C.ar    1  UNL1        0.0342
     10 C          -4.5852  -18.7133   21.4307 C.ar    1  UNL1        0.1555
     11 C          -3.3144  -18.3157   20.7399 C.ar    1  UNL1        0.1151
     12 N          -2.9669  -18.9114   19.4079 N.ar    1  UNL1       -0.2408
     13 C          -1.6962  -18.5138   18.7171 C.ar    1  UNL1        0.0989
     14 C          -0.7730  -17.5207   19.3584 C.ar    1  UNL1        0.0207
     15 C          -1.1205  -16.9251   20.6905 C.ar    1  UNL1        0.0032
     16 C          -2.3912  -17.3226   21.3812 C.ar    1  UNL1        0.0204
     17 C          -2.7388  -16.7270   22.7134 C.ar    1  UNL1       -0.0026
     18 C          -4.3571  -16.5288   24.7362 C.3     1  UNL1        0.0265
     19 C          -5.3049  -15.3689   24.8148 C.3     1  UNL1        0.0047
     20 C          -6.4872  -15.8327   27.0813 C.3     1  UNL1        0.0000
     21 C          -6.5622  -15.4813   25.6249 C.3     1  UNL1        0.0003
     22 C         -11.2811  -19.9186   22.4113 C.3     1  UNL1        0.0721
     23 C         -11.8356  -18.8861   23.3477 C.3     1  UNL1        0.0188
     24 C         -10.9252  -18.1758   24.3051 C.3     1  UNL1        0.0202
     25 C         -10.0837  -17.0290   23.8290 C.3     1  UNL1        0.0911
     26 N         -10.7321  -15.8404   23.1831 N.3     1  UNL1       -0.1833
     27 H          -9.9946  -15.1547   23.0208 H       1  UNL1        0.1484
     28 S         -11.4679  -16.0002   21.8859 S.O2    1  UNL1        0.0407
     29 O         -10.1612  -16.1244   21.1599 O.2     1  UNL1       -0.1575
     30 O         -12.7746  -15.8760   22.6118 O.2     1  UNL1       -0.1575
     31 C         -12.2039  -16.1600   20.5886 C.3     1  UNL1        0.1689
     32 C         -11.4704  -16.0182   19.2878 C.3     1  UNL1        0.0289
@<TRIPOS>BOND
     1    20    21    1
     2    21    19    1
     3    19    18    1
     4    18     8    1
     5     8     9   ar
     6     9    10   ar
     7    10     7    1
     8     7     1    1
     9     1     2    1
    10     2     3    1
    11     3     4    1
    12     4    22    1
    13    22    23    1
    14    23    24    1
    15    24    25    1
    16    25    26    1
    17    26    28    1
    18    28    29    2
    19    28    30    2
    20    28    31    1
    21    31    32    1
    22     4     5    1
    23     5     6    1
    24    10    11   ar
    25    11    12   ar
    26    12    13   ar
    27    13    14   ar
    28    14    15   ar
    29    15    16   ar
    30    16    17   ar
    31    17     8   ar
    32     6     1    1
    33    16    11   ar
    34    26    27    1
@<TRIPOS>MOLECULE
*****
 32 34 0 0 0
SMALL
GASTEIGER

@<TRIPOS>ATOM
      1 C          -6.8040  -19.8483   20.8773 C.3     1  UNL1        0.1688
      2 C          -7.6073  -19.5190   19.6541 C.3     1  UNL1        0.0609
      3 C          -9.0889  -19.3119   19.7630 C.3     1  UNL1        0.0758
      4 N          -9.7673  -19.4342   21.0953 N.3     1  UNL1       -0.2724
      5 C          -8.9641  -19.7635   22.3185 C.3     1  UNL1        0.0758
      6 C          -7.4824  -19.9706   22.2096 C.3     1  UNL1        0.0609
      7 O          -5.3224  -20.0554   20.7684 O.3     1  UNL1       -0.4776
      8 C          -3.6530  -17.7951   23.5709 C.ar    1  UNL1       -0.0191
      9 C          -4.5949  -18.7427   22.8891 C.ar    1  UNL1        0.0342
     10 C          -4.3805  -19.1077   21.4501 C.ar    1  UNL1        0.1555
     11 C          -3.2241  -18.5251   20.6929 C.ar    1  UNL1        0.1151
     12 N          -3.0096  -18.8902   19.2539 N.ar    1  UNL1       -0.2408
     13 C          -1.8532  -18.3076   18.4967 C.ar    1  UNL1        0.0989
     14 C          -0.9113  -17.3600   19.1785 C.ar    1  UNL1        0.0207
     15 C          -1.1258  -16.9949   20.6175 C.ar    1  UNL1        0.0032
     16 C          -2.2822  -17.5775   21.3747 C.ar    1  UNL1        0.0204
     17 C          -2.4967  -17.2125   22.8137 C.ar    1  UNL1       -0.0026
     18 C          -3.8676  -17.4300   25.0100 C.3     1  UNL1        0.0265
     19 C          -4.9422  -16.4525   25.3836 C.3     1  UNL1        0.0047
     20 C          -6.1464  -15.3406   23.3678 C.3     1  UNL1        0.0000
     21 C          -5.1942  -15.2499   24.5233 C.3     1  UNL1        0.0003
     22 C         -11.2489  -19.2271   21.2042 C.3     1  UNL1        0.0721
     23 C         -11.7884  -17.9255   21.7190 C.3     1  UNL1        0.0188
     24 C         -11.5957  -17.5506   23.1585 C.3     1  UNL1        0.0202
     25 C         -10.5696  -16.5232   23.5349 C.3     1  UNL1        0.0911
     26 N          -9.2470  -16.9546   24.0959 N.3     1  UNL1       -0.1833
     27 H          -8.5295  -16.4324   23.5931 H       1  UNL1        0.1484
     28 S          -8.9614  -16.7845   25.5586 S.O2    1  UNL1        0.0407
     29 O          -8.6796  -15.3284   25.3343 O.2     1  UNL1       -0.1575
     30 O          -9.2431  -18.2406   25.7829 O.2     1  UNL1       -0.1575
     31 C          -8.6758  -16.6145   27.0214 C.3     1  UNL1        0.1689
     32 C          -7.8718  -15.4408   27.4970 C.3     1  UNL1        0.0289
@<TRIPOS>BOND
     1    20    21    1
     2    21    19    1
     3    19    18    1
     4    18     8    1
     5     8     9   ar
     6     9    10   ar
     7    10     7    1
     8     7     1    1
     9     1     2    1
    10     2     3    1
    11     3     4    1
    12     4    22    1
    13    22    23    1
    14    23    24    1
    15    24    25    1
    16    25    26    1
    17    26    28    1
    18    28    29    2
    19    28    30    2
    20    28    31    1
    21    31    32    1
    22     4     5    1
    23     5     6    1
    24    10    11   ar
    25    11    12   ar
    26    12    13   ar
    27    13    14   ar
    28    14    15   ar
    29    15    16   ar
    30    16    17   ar
    31    17     8   ar
    32     6     1    1
    33    16    11   ar
    34    26    27    1
@<TRIPOS>MOLECULE
*****
 32 34 0 0 0
SMALL
GASTEIGER

@<TRIPOS>ATOM
      1 C          -5.8060  -19.5995   21.7350 C.3     1  UNL1        0.1688
      2 C          -5.7705  -19.0153   20.3538 C.3     1  UNL1        0.0609
      3 C          -4.4543  -18.7589   19.6816 C.3     1  UNL1        0.0758
      4 N          -3.1736  -19.0866   20.3904 N.3     1  UNL1       -0.2724
      5 C          -3.2091  -19.6708   21.7715 C.3     1  UNL1        0.0758
      6 C          -4.5253  -19.9273   22.4438 C.3     1  UNL1        0.0609
      7 O          -7.1221  -19.8559   22.4072 O.3     1  UNL1       -0.4776
      8 C          -9.3018  -16.7124   23.4642 C.ar    1  UNL1       -0.0191
      9 C          -8.2347  -17.7664   23.4779 C.ar    1  UNL1        0.0342
     10 C          -8.1893  -18.8018   22.3935 C.ar    1  UNL1        0.1555
     11 C          -9.2109  -18.7831   21.2953 C.ar    1  UNL1        0.1151
     12 N          -9.1655  -19.8185   20.2110 N.ar    1  UNL1       -0.2408
     13 C         -10.1871  -19.7998   19.1129 C.ar    1  UNL1        0.0989
     14 C         -11.2542  -18.7457   19.0992 C.ar    1  UNL1        0.0207
     15 C         -11.2997  -17.7104   20.1835 C.ar    1  UNL1        0.0032
     16 C         -10.2781  -17.7291   21.2816 C.ar    1  UNL1        0.0204
     17 C         -10.3235  -16.6937   22.3661 C.ar    1  UNL1       -0.0026
     18 C          -9.3473  -15.6770   24.5486 C.3     1  UNL1        0.0265
     19 C          -8.1478  -15.4510   25.4205 C.3     1  UNL1        0.0047
     20 C          -7.2366  -15.1998   27.8405 C.3     1  UNL1        0.0000
     21 C          -8.1935  -15.8285   26.8715 C.3     1  UNL1        0.0003
     22 C          -1.8575  -18.8302   19.7182 C.3     1  UNL1        0.0721
     23 C          -0.8977  -17.8366   20.3027 C.3     1  UNL1        0.0188
     24 C          -1.3932  -16.4993   20.7676 C.3     1  UNL1        0.0202
     25 C          -2.0865  -16.3755   22.0920 C.3     1  UNL1        0.0911
     26 N          -3.5828  -16.2866   22.1498 N.3     1  UNL1       -0.1833
     27 H          -3.9444  -17.1699   21.7899 H       1  UNL1        0.1484
     28 S          -4.2694  -16.0395   23.4603 S.O2    1  UNL1        0.0407
     29 O          -3.6852  -17.3088   24.0057 O.2     1  UNL1       -0.1575
     30 O          -4.8536  -14.7702   22.9149 O.2     1  UNL1       -0.1575
     31 C          -4.9560  -15.7923   24.7709 C.3     1  UNL1        0.1689
     32 C          -4.6077  -16.6251   25.9688 C.3     1  UNL1        0.0289
@<TRIPOS>BOND
     1    20    21    1
     2    21    19    1
     3    19    18    1
     4    18     8    1
     5     8     9   ar
     6     9    10   ar
     7    10     7    1
     8     7     1    1
     9     1     2    1
    10     2     3    1
    11     3     4    1
    12     4    22    1
    13    22    23    1
    14    23    24    1
    15    24    25    1
    16    25    26    1
    17    26    28    1
    18    28    29    2
    19    28    30    2
    20    28    31    1
    21    31    32    1
    22     4     5    1
    23     5     6    1
    24    10    11   ar
    25    11    12   ar
    26    12    13   ar
    27    13    14   ar
    28    14    15   ar
    29    15    16   ar
    30    16    17   ar
    31    17     8   ar
    32     6     1    1
    33    16    11   ar
    34    26    27    1
@<TRIPOS>MOLECULE
*****
 32 34 0 0 0
SMALL
GASTEIGER

@<TRIPOS>ATOM
      1 C          -8.5037  -17.0458   22.4057 C.3     1  UNL1        0.1688
      2 C          -8.0468  -15.6332   22.6195 C.3     1  UNL1        0.0609
      3 C          -8.0653  -15.0392   23.9967 C.3     1  UNL1        0.0758
      4 N          -8.5407  -15.8579   25.1602 N.3     1  UNL1       -0.2724
      5 C          -8.9976  -17.2705   24.9465 C.3     1  UNL1        0.0758
      6 C          -8.9791  -17.8645   23.5692 C.3     1  UNL1        0.0609
      7 O          -8.4852  -17.6398   21.0285 O.3     1  UNL1       -0.4776
      8 C          -5.2674  -19.9624   21.0589 C.ar    1  UNL1       -0.0191
      9 C          -6.2056  -18.8363   21.3775 C.ar    1  UNL1        0.0342
     10 C          -7.5470  -18.7660   20.7099 C.ar    1  UNL1        0.1555
     11 C          -7.9502  -19.8219   19.7237 C.ar    1  UNL1        0.1151
     12 N          -9.2915  -19.7516   19.0561 N.ar    1  UNL1       -0.2408
     13 C          -9.6947  -20.8075   18.0699 C.ar    1  UNL1        0.0989
     14 C          -8.7565  -21.9336   17.7514 C.ar    1  UNL1        0.0207
     15 C          -7.4151  -22.0039   18.4190 C.ar    1  UNL1        0.0032
     16 C          -7.0119  -20.9481   19.4051 C.ar    1  UNL1        0.0204
     17 C          -5.6705  -21.0183   20.0728 C.ar    1  UNL1       -0.0026
     18 C          -3.9259  -20.0327   21.7266 C.3     1  UNL1        0.0265
     19 C          -2.6775  -19.8030   20.9274 C.3     1  UNL1        0.0047
     20 C          -1.5583  -18.2185   19.1992 C.3     1  UNL1        0.0000
     21 C          -2.7400  -19.0278   19.6448 C.3     1  UNL1        0.0003
     22 C          -8.5592  -15.2639   26.5374 C.3     1  UNL1        0.0721
     23 C          -7.2754  -15.0738   27.2896 C.3     1  UNL1        0.0188
     24 C          -6.1329  -16.0218   27.0748 C.3     1  UNL1        0.0202
     25 C          -5.1149  -15.7402   26.0098 C.3     1  UNL1        0.0911
     26 N          -5.3250  -16.2547   24.6165 N.3     1  UNL1       -0.1833
     27 H          -5.8313  -15.5296   24.1082 H       1  UNL1        0.1484
     28 S          -4.1453  -16.6330   23.7709 S.O2    1  UNL1        0.0407
     29 O          -4.3516  -15.4055   22.9339 O.2     1  UNL1       -0.1575
     30 O          -3.9390  -17.8605   24.6079 O.2     1  UNL1       -0.1575
     31 C          -2.9656  -17.0115   22.9252 C.3     1  UNL1        0.1689
     32 C          -2.4010  -16.0287   21.9427 C.3     1  UNL1        0.0289
@<TRIPOS>BOND
     1    20    21    1
     2    21    19    1
     3    19    18    1
     4    18     8    1
     5     8     9   ar
     6     9    10   ar
     7    10     7    1
     8     7     1    1
     9     1     2    1
    10     2     3    1
    11     3     4    1
    12     4    22    1
    13    22    23    1
    14    23    24    1
    15    24    25    1
    16    25    26    1
    17    26    28    1
    18    28    29    2
    19    28    30    2
    20    28    31    1
    21    31    32    1
    22     4     5    1
    23     5     6    1
    24    10    11   ar
    25    11    12   ar
    26    12    13   ar
    27    13    14   ar
    28    14    15   ar
    29    15    16   ar
    30    16    17   ar
    31    17     8   ar
    32     6     1    1
    33    16    11   ar
    34    26    27    1
