@<TRIPOS>MOLECULE
*****
 28 31 0 0 0
SMALL
GASTEIGER

@<TRIPOS>ATOM
      1 C          -9.3428  -18.9877   21.6420 C.3     1  UNL1        0.1139
      2 C          -7.9156  -19.3715   21.3854 C.ar    1  UNL1       -0.0029
      3 C          -6.8697  -19.1112   22.4288 C.ar    1  UNL1       -0.0026
      4 C          -5.4426  -19.4949   22.1722 C.ar    1  UNL1       -0.0003
      5 C          -5.0612  -20.1390   20.8723 C.ar    1  UNL1       -0.0000
      6 C          -6.1069  -20.3992   19.8290 C.ar    1  UNL1       -0.0003
      7 C          -7.5342  -20.0155   20.0855 C.ar    1  UNL1       -0.0026
      8 C         -10.7708  -18.0930   19.6645 C.3     1  UNL1        0.1153
      9 N          -9.9558  -17.8385   20.8979 N.am    1  UNL1       -0.2714
     10 C          -9.7539  -16.4350   21.3870 C.2     1  UNL1        0.2665
     11 O         -10.3669  -15.2860   20.6429 O.2     1  UNL1       -0.2710
     12 C          -8.9389  -16.1806   22.6203 C.3     1  UNL1        0.2456
     13 C          -9.4396  -16.2283   24.0335 C.3     1  UNL1        0.0825
     14 C          -8.2903  -15.9110   24.9436 C.ar    1  UNL1        0.0159
     15 C          -8.1901  -15.8126   26.4369 C.ar    1  UNL1       -0.0011
     16 C          -6.8787  -15.4703   27.0796 C.ar    1  UNL1       -0.0001
     17 C          -5.6675  -15.2265   26.2290 C.ar    1  UNL1        0.0031
     18 C          -5.7678  -15.3249   24.7356 C.ar    1  UNL1        0.0366
     19 C          -7.0791  -15.6672   24.0929 C.ar    1  UNL1        0.1352
     20 O          -7.4800  -15.8338   22.6571 O.3     1  UNL1       -0.4699
     21 C         -10.1569  -19.7531   22.6427 C.3     1  UNL1        0.0968
     22 N         -11.4103  -19.1523   23.2066 N.3     1  UNL1       -0.2689
     23 C         -12.4095  -18.3269   22.4516 C.3     1  UNL1        0.0748
     24 C         -13.5013  -17.9359   23.4029 C.3     1  UNL1        0.0480
     25 C         -13.1768  -18.5197   24.7460 C.3     1  UNL1        0.1278
     26 O         -14.0001  -18.3768   25.9918 O.3     1  UNL1       -0.3830
     27 C         -11.8845  -19.2715   24.6247 C.3     1  UNL1        0.1017
     28 H         -13.5683  -18.8492   26.7206 H       1  UNL1        0.2104
@<TRIPOS>BOND
     1     8     9    1
     2     9    10   am
     3    10    11    2
     4    12    10    1
     5    12    13    1
     6    13    14    1
     7    14    15   ar
     8    15    16   ar
     9    16    17   ar
    10    17    18   ar
    11    18    19   ar
    12    19    20    1
    13     9     1    1
    14     1    21    1
    15    21    22    1
    16    22    23    1
    17    23    24    1
    18    24    25    1
    19    25    26    1
    20    25    27    1
    21     1     2    1
    22     2     3   ar
    23     3     4   ar
    24     4     5   ar
    25     5     6   ar
    26     6     7   ar
    27    20    12    1
    28    27    22    1
    29     7     2   ar
    30    19    14   ar
    31    26    28    1
@<TRIPOS>MOLECULE
*****
 28 31 0 0 0
SMALL
GASTEIGER

@<TRIPOS>ATOM
      1 C          -8.1848  -19.3564   21.8016 C.3     1  UNL1        0.1139
      2 C          -6.7285  -19.5666   21.5100 C.ar    1  UNL1       -0.0029
      3 C          -6.3115  -20.4376   20.3621 C.ar    1  UNL1       -0.0026
      4 C          -4.8553  -20.6478   20.0705 C.ar    1  UNL1       -0.0003
      5 C          -3.8159  -19.9870   20.9267 C.ar    1  UNL1       -0.0000
      6 C          -4.2328  -19.1161   22.0745 C.ar    1  UNL1       -0.0003
      7 C          -5.6891  -18.9058   22.3662 C.ar    1  UNL1       -0.0026
      8 C          -9.5934  -18.7772   19.6967 C.3     1  UNL1        0.1153
      9 N          -8.9748  -18.3650   20.9996 N.am    1  UNL1       -0.2714
     10 C          -9.1462  -16.9616   21.5005 C.2     1  UNL1        0.2665
     11 O          -9.9362  -15.9703   20.6985 O.2     1  UNL1       -0.2710
     12 C          -8.5276  -16.5494   22.8033 C.3     1  UNL1        0.2456
     13 C          -7.1161  -16.0818   23.0003 C.3     1  UNL1        0.0825
     14 C          -6.9280  -15.7759   24.4567 C.ar    1  UNL1        0.0159
     15 C          -5.7446  -15.2797   25.2334 C.ar    1  UNL1       -0.0011
     16 C          -5.8566  -15.0620   26.7132 C.ar    1  UNL1       -0.0001
     17 C          -7.1520  -15.3405   27.4164 C.ar    1  UNL1        0.0031
     18 C          -8.3354  -15.8368   26.6397 C.ar    1  UNL1        0.0366
     19 C          -8.2234  -16.0544   25.1599 C.ar    1  UNL1        0.1352
     20 O          -9.2120  -16.5325   24.1380 O.3     1  UNL1       -0.4699
     21 C          -8.8510  -20.1375   22.8952 C.3     1  UNL1        0.0968
     22 N         -10.0978  -19.6099   23.5411 N.3     1  UNL1       -0.2689
     23 C         -10.3396  -19.4805   25.0158 C.3     1  UNL1        0.0748
     24 C         -11.7129  -18.9097   25.2119 C.3     1  UNL1        0.0480
     25 C         -12.3197  -18.6865   23.8585 C.3     1  UNL1        0.1278
     26 O         -13.6850  -18.1284   23.5855 O.3     1  UNL1       -0.3830
     27 C         -11.3215  -19.1192   22.8258 C.3     1  UNL1        0.1017
     28 H         -13.8319  -18.0871   22.6276 H       1  UNL1        0.2104
@<TRIPOS>BOND
     1     8     9    1
     2     9    10   am
     3    10    11    2
     4    12    10    1
     5    12    13    1
     6    13    14    1
     7    14    15   ar
     8    15    16   ar
     9    16    17   ar
    10    17    18   ar
    11    18    19   ar
    12    19    20    1
    13     9     1    1
    14     1    21    1
    15    21    22    1
    16    22    23    1
    17    23    24    1
    18    24    25    1
    19    25    26    1
    20    25    27    1
    21     1     2    1
    22     2     3   ar
    23     3     4   ar
    24     4     5   ar
    25     5     6   ar
    26     6     7   ar
    27    20    12    1
    28    27    22    1
    29     7     2   ar
    30    19    14   ar
    31    26    28    1
@<TRIPOS>MOLECULE
*****
 28 31 0 0 0
SMALL
GASTEIGER

@<TRIPOS>ATOM
      1 C          -8.3005  -16.7287   23.2535 C.3     1  UNL1        0.1139
      2 C          -8.9357  -18.0114   23.7021 C.ar    1  UNL1       -0.0029
      3 C         -10.0684  -17.9838   24.6851 C.ar    1  UNL1       -0.0026
      4 C         -10.7035  -19.2665   25.1336 C.ar    1  UNL1       -0.0003
      5 C         -10.2061  -20.5768   24.5992 C.ar    1  UNL1       -0.0000
      6 C          -9.0734  -20.6044   23.6162 C.ar    1  UNL1       -0.0003
      7 C          -8.4382  -19.3217   23.1676 C.ar    1  UNL1       -0.0026
      8 C          -8.3099  -14.9158   25.1146 C.3     1  UNL1        0.1153
      9 N          -7.5590  -15.8743   24.2386 N.am    1  UNL1       -0.2714
     10 C          -6.0666  -15.9786   24.3477 C.2     1  UNL1        0.2665
     11 O          -5.3252  -15.1243   25.3328 O.2     1  UNL1       -0.2710
     12 C          -5.3157  -16.9371   23.4718 C.3     1  UNL1        0.2456
     13 C          -3.8336  -17.1676   23.4847 C.3     1  UNL1        0.0825
     14 C          -3.5169  -18.2065   22.4501 C.ar    1  UNL1        0.0159
     15 C          -2.2234  -18.8308   22.0177 C.ar    1  UNL1       -0.0011
     16 C          -2.2163  -19.8667   20.9329 C.ar    1  UNL1       -0.0001
     17 C          -3.5027  -20.2783   20.2805 C.ar    1  UNL1        0.0031
     18 C          -4.7963  -19.6539   20.7128 C.ar    1  UNL1        0.0366
     19 C          -4.8033  -18.6180   21.7976 C.ar    1  UNL1        0.1352
     20 O          -5.9150  -17.8335   22.4291 O.3     1  UNL1       -0.4699
     21 C          -8.4068  -16.3003   21.8200 C.3     1  UNL1        0.0968
     22 N          -9.6716  -16.5517   21.0539 N.3     1  UNL1       -0.2689
     23 C         -10.1634  -17.8863   20.5775 C.3     1  UNL1        0.0748
     24 C         -11.4625  -17.6721   19.8588 C.3     1  UNL1        0.0480
     25 C         -11.7736  -16.2051   19.8911 C.3     1  UNL1        0.1278
     26 O         -12.9798  -15.5461   19.2902 O.3     1  UNL1       -0.3830
     27 C         -10.6668  -15.5126   20.6296 C.3     1  UNL1        0.1017
     28 H         -12.9399  -14.5904   19.4512 H       1  UNL1        0.2104
@<TRIPOS>BOND
     1     8     9    1
     2     9    10   am
     3    10    11    2
     4    12    10    1
     5    12    13    1
     6    13    14    1
     7    14    15   ar
     8    15    16   ar
     9    16    17   ar
    10    17    18   ar
    11    18    19   ar
    12    19    20    1
    13     9     1    1
    14     1    21    1
    15    21    22    1
    16    22    23    1
    17    23    24    1
    18    24    25    1
    19    25    26    1
    20    25    27    1
    21     1     2    1
    22     2     3   ar
    23     3     4   ar
    24     4     5   ar
    25     5     6   ar
    26     6     7   ar
    27    20    12    1
    28    27    22    1
    29     7     2   ar
    30    19    14   ar
    31    26    28    1
@<TRIPOS>MOLECULE
*****
 28 31 0 0 0
SMALL
GASTEIGER

@<TRIPOS>ATOM
      1 C          -6.5301  -19.1907   21.7406 C.3     1  UNL1        0.1139
      2 C          -7.9604  -19.5629   21.9967 C.ar    1  UNL1       -0.0029
      3 C          -8.9701  -19.4658   20.8916 C.ar    1  UNL1       -0.0026
      4 C         -10.4004  -19.8379   21.1477 C.ar    1  UNL1       -0.0003
      5 C         -10.8212  -20.3071   22.5089 C.ar    1  UNL1       -0.0000
      6 C          -9.8116  -20.4042   23.6140 C.ar    1  UNL1       -0.0003
      7 C          -8.3812  -20.0321   23.3579 C.ar    1  UNL1       -0.0026
      8 C          -4.4216  -18.4113   23.0433 C.3     1  UNL1        0.1153
      9 N          -5.8452  -18.1913   22.6250 N.am    1  UNL1       -0.2714
     10 C          -6.5840  -16.9719   23.0911 C.2     1  UNL1        0.2665
     11 O          -5.8991  -15.9725   23.9754 O.2     1  UNL1       -0.2710
     12 C          -8.0076  -16.7518   22.6728 C.3     1  UNL1        0.2456
     13 C          -9.2132  -16.8567   23.5590 C.3     1  UNL1        0.0825
     14 C         -10.4262  -16.5580   22.7288 C.ar    1  UNL1        0.0159
     15 C         -11.8870  -16.5122   23.0663 C.ar    1  UNL1       -0.0011
     16 C         -12.8919  -16.1769   22.0043 C.ar    1  UNL1       -0.0001
     17 C         -12.4360  -15.8874   20.6049 C.ar    1  UNL1        0.0031
     18 C         -10.9752  -15.9332   20.2675 C.ar    1  UNL1        0.0366
     19 C          -9.9703  -16.2685   21.3294 C.ar    1  UNL1        0.1352
     20 O          -8.4755  -16.3883   21.2948 O.3     1  UNL1       -0.4699
     21 C          -5.7846  -19.8180   20.6002 C.3     1  UNL1        0.0968
     22 N          -4.3684  -19.4131   20.3168 N.3     1  UNL1       -0.2689
     23 C          -3.1395  -20.0147   20.9316 C.3     1  UNL1        0.0748
     24 C          -1.9440  -19.3090   20.3637 C.3     1  UNL1        0.0480
     25 C          -2.4340  -18.2711   19.3979 C.3     1  UNL1        0.1278
     26 O          -1.5762  -17.3335   18.6009 O.3     1  UNL1       -0.3830
     27 C          -3.9323  -18.3355   19.3689 C.3     1  UNL1        0.1017
     28 H          -2.1405  -16.7646   18.0543 H       1  UNL1        0.2104
@<TRIPOS>BOND
     1     8     9    1
     2     9    10   am
     3    10    11    2
     4    12    10    1
     5    12    13    1
     6    13    14    1
     7    14    15   ar
     8    15    16   ar
     9    16    17   ar
    10    17    18   ar
    11    18    19   ar
    12    19    20    1
    13     9     1    1
    14     1    21    1
    15    21    22    1
    16    22    23    1
    17    23    24    1
    18    24    25    1
    19    25    26    1
    20    25    27    1
    21     1     2    1
    22     2     3   ar
    23     3     4   ar
    24     4     5   ar
    25     5     6   ar
    26     6     7   ar
    27    20    12    1
    28    27    22    1
    29     7     2   ar
    30    19    14   ar
    31    26    28    1
