@<TRIPOS>MOLECULE
*****
 44 48 0 0 0
SMALL
GASTEIGER

@<TRIPOS>ATOM
      1 C           1.0304    1.4210   25.4289 C.3     1  UNL1        0.0942
      2 C          -0.1575    2.2525   25.0450 C.3     1  UNL1        0.1129
      3 N          -0.0602    3.2154   23.8990 N.am    1  UNL1       -0.2779
      4 C          -1.2482    4.0469   23.5151 C.2     1  UNL1        0.2254
      5 O          -1.1509    5.0098   22.3691 O.2     1  UNL1       -0.2749
      6 C           1.2250    3.3467   23.1368 C.3     1  UNL1        0.0936
      7 C           2.4129    2.5152   23.5206 C.3     1  UNL1        0.0246
      8 C           2.3157    1.5524   24.6667 C.3     1  UNL1        0.0374
      9 N           1.4061   -0.1379   29.0591 N.am    1  UNL1       -0.2485
     10 C           1.5033    0.8249   27.9131 C.2     1  UNL1        0.3059
     11 O           2.1706    2.1545   28.1051 O.2     1  UNL1       -0.2524
     12 N           0.9332    0.4581   26.5750 N.am    1  UNL1       -0.2885
     13 H           0.9681   -1.0106   28.9331 H       1  UNL1        0.1583
     14 H           0.4952   -0.4145   26.4489 H       1  UNL1        0.1510
     15 C           3.3829    0.2684   32.3746 C.ar    1  UNL1        0.0803
     16 S           3.1680   -0.4048   31.0515 S.2     1  UNL1       -0.0488
     17 C           1.9761    0.2288   30.3972 C.ar    1  UNL1        0.1664
     18 N           1.4545    1.2936   31.3160 N.ar    1  UNL1       -0.2282
     19 C           2.3239    1.3180   32.5381 C.ar    1  UNL1        0.0701
     20 C           2.1626    2.2317   33.7167 C.3     1  UNL1        0.0528
     21 C           4.3902   -1.3078   34.1776 C.3     1  UNL1        0.0779
     22 C           4.4666   -0.0519   33.3610 C.2     1  UNL1        0.1807
     23 O           5.6266    0.8836   33.5308 O.2     1  UNL1       -0.2908
     24 C          -2.5334    3.9156   24.2773 C.3     1  UNL1        0.0817
     25 C          -2.5719    4.2326   25.7430 C.3     1  UNL1        0.0412
     26 C          -3.8571    4.1013   26.5052 C.3     1  UNL1        0.1427
     27 O          -5.1039    3.6529   25.8018 O.3     1  UNL1       -0.3538
     28 C          -5.0653    3.3359   24.3362 C.3     1  UNL1        0.1427
     29 C          -3.7801    3.4673   23.5740 C.3     1  UNL1        0.0412
     30 C           3.5036    0.7208   25.0505 C.3     1  UNL1        0.0738
     31 N           3.8632   -0.4911   24.2431 N.3     1  UNL1       -0.2726
     32 C           4.7199   -1.5657   24.8443 C.3     1  UNL1        0.0721
     33 C           5.0795   -2.7776   24.0368 C.3     1  UNL1        0.0174
     34 C           4.5824   -2.9149   22.6282 C.3     1  UNL1        0.0031
     35 C           3.7257   -1.8403   22.0271 C.3     1  UNL1        0.0204
     36 C           3.3661   -0.6284   22.8346 C.3     1  UNL1        0.0724
     37 C           3.2286   -1.9776   20.6185 C.3     1  UNL1        0.0277
     38 C           2.4985   -0.8409   19.9667 C.ar    1  UNL1       -0.0220
     39 C           1.0923   -0.5187   20.3778 C.ar    1  UNL1       -0.0020
     40 C           0.3622    0.6181   19.7260 C.ar    1  UNL1        0.0293
     41 C           1.0383    1.4325   18.6631 C.ar    1  UNL1        0.1401
     42 F           0.3082    2.5693   18.0114 F       1  UNL1       -0.2042
     43 C           2.4444    1.1103   18.2521 C.ar    1  UNL1        0.0293
     44 C           3.1745   -0.0264   18.9039 C.ar    1  UNL1       -0.0020
@<TRIPOS>BOND
     1    21    22    1
     2    22    23    2
     3    22    15    1
     4    15    16   ar
     5    16    17   ar
     6    17     9    1
     7     9    10   am
     8    10    11    2
     9    10    12   am
    10     1    12    1
    11     1     2    1
    12     2     3    1
    13     3     4   am
    14     4     5    2
    15     4    24    1
    16    24    25    1
    17    25    26    1
    18    26    27    1
    19    27    28    1
    20    28    29    1
    21     3     6    1
    22     6     7    1
    23     7     8    1
    24     8    30    1
    25    30    31    1
    26    31    32    1
    27    32    33    1
    28    33    34    1
    29    34    35    1
    30    35    37    1
    31    37    38    1
    32    38    39   ar
    33    39    40   ar
    34    40    41   ar
    35    41    42    1
    36    41    43   ar
    37    43    44   ar
    38    35    36    1
    39    17    18   ar
    40    18    19   ar
    41    19    20    1
    42    19    15   ar
    43     8     1    1
    44    36    31    1
    45    29    24    1
    46    44    38   ar
    47     9    13    1
    48    12    14    1
@<TRIPOS>MOLECULE
*****
 44 48 0 0 0
SMALL
GASTEIGER

@<TRIPOS>ATOM
      1 C           5.7833   -1.2609   22.7852 C.3     1  UNL1        0.0942
      2 C           4.7807   -1.0966   21.6816 C.3     1  UNL1        0.1129
      3 N           4.7668   -2.0595   20.5316 N.am    1  UNL1       -0.2779
      4 C           3.7643   -1.8952   19.4279 C.2     1  UNL1        0.2254
      5 O           3.7504   -2.8581   18.2779 O.2     1  UNL1       -0.2749
      6 C           5.7554   -3.1867   20.4851 C.3     1  UNL1        0.0936
      7 C           6.7580   -3.3510   21.5887 C.3     1  UNL1        0.0246
      8 C           6.7719   -2.3881   22.7387 C.3     1  UNL1        0.0374
      9 N           4.8960    0.4501   26.2544 N.am    1  UNL1       -0.2485
     10 C           4.8821   -0.5127   25.1043 C.2     1  UNL1        0.3059
     11 O           3.9530   -1.6903   25.1231 O.2     1  UNL1       -0.2524
     12 N           5.7972   -0.2981   23.9353 N.am    1  UNL1       -0.2885
     13 H           5.5058    1.2229   26.2420 H       1  UNL1        0.1583
     14 H           6.4070    0.4748   23.9230 H       1  UNL1        0.1510
     15 C           2.0034    0.1961   28.8300 C.ar    1  UNL1        0.0803
     16 S           2.5220    0.5800   27.4759 S.2     1  UNL1       -0.0488
     17 C           3.9809    0.2354   27.4234 C.ar    1  UNL1        0.1664
     18 N           4.3640   -0.3616   28.7450 N.ar    1  UNL1       -0.2282
     19 C           3.1419   -0.3859   29.6144 C.ar    1  UNL1        0.0701
     20 C           3.0707   -0.9016   31.0212 C.3     1  UNL1        0.0528
     21 C          -0.5340   -0.3075   28.5891 C.3     1  UNL1        0.0779
     22 C           0.5939    0.3645   29.3147 C.2     1  UNL1        0.1807
     23 O           0.3122    1.2048   30.5248 O.2     1  UNL1       -0.2908
     24 C           2.7757   -0.7681   19.4744 C.3     1  UNL1        0.0817
     25 C           3.0668    0.5151   18.7540 C.3     1  UNL1        0.0412
     26 C           2.0782    1.6422   18.8005 C.3     1  UNL1        0.1427
     27 O           0.7984    1.4862   19.5674 O.3     1  UNL1       -0.3538
     28 C           0.5074    0.2032   20.2877 C.3     1  UNL1        0.1427
     29 C           1.4960   -0.9240   20.2412 C.3     1  UNL1        0.0412
     30 C           7.7744   -2.5524   23.8424 C.3     1  UNL1        0.0738
     31 N           7.8401   -3.8391   24.6106 N.3     1  UNL1       -0.2726
     32 C           8.7713   -4.9292   24.1695 C.3     1  UNL1        0.0721
     33 C           8.8370   -6.2159   24.9377 C.3     1  UNL1        0.0174
     34 C           7.9714   -6.4124   26.1470 C.3     1  UNL1        0.0031
     35 C           7.0402   -5.3223   26.5880 C.3     1  UNL1        0.0204
     36 C           6.9745   -4.0356   25.8198 C.3     1  UNL1        0.0724
     37 C           6.1746   -5.5189   27.7972 C.3     1  UNL1        0.0277
     38 C           6.5257   -4.8420   29.0889 C.ar    1  UNL1       -0.0220
     39 C           6.4439   -3.3482   29.1994 C.ar    1  UNL1       -0.0020
     40 C           6.7950   -2.6714   30.4911 C.ar    1  UNL1        0.0293
     41 C           7.2281   -3.4882   31.6723 C.ar    1  UNL1        0.1401
     42 F           7.5792   -2.8113   32.9641 F       1  UNL1       -0.2042
     43 C           7.3099   -4.9819   31.5618 C.ar    1  UNL1        0.0293
     44 C           6.9588   -5.6587   30.2701 C.ar    1  UNL1       -0.0020
@<TRIPOS>BOND
     1    21    22    1
     2    22    23    2
     3    22    15    1
     4    15    16   ar
     5    16    17   ar
     6    17     9    1
     7     9    10   am
     8    10    11    2
     9    10    12   am
    10     1    12    1
    11     1     2    1
    12     2     3    1
    13     3     4   am
    14     4     5    2
    15     4    24    1
    16    24    25    1
    17    25    26    1
    18    26    27    1
    19    27    28    1
    20    28    29    1
    21     3     6    1
    22     6     7    1
    23     7     8    1
    24     8    30    1
    25    30    31    1
    26    31    32    1
    27    32    33    1
    28    33    34    1
    29    34    35    1
    30    35    37    1
    31    37    38    1
    32    38    39   ar
    33    39    40   ar
    34    40    41   ar
    35    41    42    1
    36    41    43   ar
    37    43    44   ar
    38    35    36    1
    39    17    18   ar
    40    18    19   ar
    41    19    20    1
    42    19    15   ar
    43     8     1    1
    44    36    31    1
    45    29    24    1
    46    44    38   ar
    47     9    13    1
    48    12    14    1
@<TRIPOS>MOLECULE
*****
 44 48 0 0 0
SMALL
GASTEIGER

@<TRIPOS>ATOM
      1 C           1.0637    2.8524   21.3211 C.3     1  UNL1        0.0942
      2 C           2.0307    1.7569   20.9823 C.3     1  UNL1        0.1129
      3 N           2.0514    1.1760   19.5996 N.am    1  UNL1       -0.2779
      4 C           3.0185    0.0805   19.2607 C.2     1  UNL1        0.2254
      5 O           3.0392   -0.5004   17.8779 O.2     1  UNL1       -0.2749
      6 C           1.1051    1.6905   18.5556 C.3     1  UNL1        0.0936
      7 C           0.1381    2.7860   18.8945 C.3     1  UNL1        0.0246
      8 C           0.1174    3.3669   20.2772 C.3     1  UNL1        0.0374
      9 N           0.8113    3.1204   25.2727 N.am    1  UNL1       -0.2485
     10 C           0.8321    2.5395   23.8899 C.2     1  UNL1        0.3059
     11 O           0.6420    1.0646   23.6931 O.2     1  UNL1       -0.2524
     12 N           1.0429    3.4334   22.7040 N.am    1  UNL1       -0.2885
     13 H           0.9361    4.0883   25.4019 H       1  UNL1        0.1583
     14 H           1.1677    4.4013   22.8331 H       1  UNL1        0.1510
     15 C           0.9709    1.0025   28.5215 C.ar    1  UNL1        0.0803
     16 S           1.6009    1.9465   27.5406 S.2     1  UNL1       -0.0488
     17 C           0.6004    2.2265   26.4586 C.ar    1  UNL1        0.1664
     18 N          -0.6479    1.4556   26.7708 N.ar    1  UNL1       -0.2282
     19 C          -0.4189    0.6992   28.0458 C.ar    1  UNL1        0.0701
     20 C          -1.4065   -0.2023   28.7255 C.3     1  UNL1        0.0528
     21 C           2.6391   -0.6352   29.6549 C.3     1  UNL1        0.0779
     22 C           1.6172    0.4577   29.7606 C.2     1  UNL1        0.1807
     23 O           1.2417    1.0058   31.1054 O.2     1  UNL1       -0.2908
     24 C           3.9648   -0.4340   20.3046 C.3     1  UNL1        0.0817
     25 C           5.3293    0.1731   20.4446 C.3     1  UNL1        0.0412
     26 C           6.2756   -0.3414   21.4885 C.3     1  UNL1        0.1427
     27 O           5.8574   -1.4630   22.3925 O.3     1  UNL1       -0.3538
     28 C           4.4929   -2.0701   22.2525 C.3     1  UNL1        0.1427
     29 C           3.5466   -1.5556   21.2085 C.3     1  UNL1        0.0412
     30 C          -0.8497    4.4624   20.6161 C.3     1  UNL1        0.0738
     31 N          -2.3111    4.1555   20.7577 N.3     1  UNL1       -0.2726
     32 C          -3.2359    4.3568   19.5939 C.3     1  UNL1        0.0721
     33 C          -4.6973    4.0498   19.7354 C.3     1  UNL1        0.0174
     34 C          -5.2339    3.5416   21.0407 C.3     1  UNL1        0.0031
     35 C          -4.3092    3.3403   22.2044 C.3     1  UNL1        0.0204
     36 C          -2.8477    3.6473   22.0629 C.3     1  UNL1        0.0724
     37 C          -4.8458    2.8321   23.5098 C.3     1  UNL1        0.0277
     38 C          -5.1583    3.7939   24.6176 C.ar    1  UNL1       -0.0220
     39 C          -4.3145    3.8094   25.8577 C.ar    1  UNL1       -0.0020
     40 C          -4.6270    4.7711   26.9655 C.ar    1  UNL1        0.0293
     41 C          -5.7834    5.7174   26.8333 C.ar    1  UNL1        0.1401
     42 F          -6.0959    6.6792   27.9411 F       1  UNL1       -0.2042
     43 C          -6.6272    5.7019   25.5933 C.ar    1  UNL1        0.0293
     44 C          -6.3146    4.7401   24.4854 C.ar    1  UNL1       -0.0020
@<TRIPOS>BOND
     1    21    22    1
     2    22    23    2
     3    22    15    1
     4    15    16   ar
     5    16    17   ar
     6    17     9    1
     7     9    10   am
     8    10    11    2
     9    10    12   am
    10     1    12    1
    11     1     2    1
    12     2     3    1
    13     3     4   am
    14     4     5    2
    15     4    24    1
    16    24    25    1
    17    25    26    1
    18    26    27    1
    19    27    28    1
    20    28    29    1
    21     3     6    1
    22     6     7    1
    23     7     8    1
    24     8    30    1
    25    30    31    1
    26    31    32    1
    27    32    33    1
    28    33    34    1
    29    34    35    1
    30    35    37    1
    31    37    38    1
    32    38    39   ar
    33    39    40   ar
    34    40    41   ar
    35    41    42    1
    36    41    43   ar
    37    43    44   ar
    38    35    36    1
    39    17    18   ar
    40    18    19   ar
    41    19    20    1
    42    19    15   ar
    43     8     1    1
    44    36    31    1
    45    29    24    1
    46    44    38   ar
    47     9    13    1
    48    12    14    1
@<TRIPOS>MOLECULE
*****
 44 48 0 0 0
SMALL
GASTEIGER

@<TRIPOS>ATOM
      1 C          -0.6961    3.5293   22.3644 C.3     1  UNL1        0.0942
      2 C          -0.3911    3.4017   23.8275 C.3     1  UNL1        0.1129
      3 N          -0.2889    4.6302   24.6821 N.am    1  UNL1       -0.2779
      4 C           0.0161    4.5027   26.1453 C.2     1  UNL1        0.2254
      5 O           0.1183    5.7311   26.9999 O.2     1  UNL1       -0.2749
      6 C          -0.4916    5.9862   24.0736 C.3     1  UNL1        0.0936
      7 C          -0.7965    6.1137   22.6105 C.3     1  UNL1        0.0246
      8 C          -0.8988    4.8853   21.7559 C.3     1  UNL1        0.0374
      9 N           0.3384    0.4574   20.0745 N.am    1  UNL1       -0.2485
     10 C           0.4406    1.6858   20.9291 C.2     1  UNL1        0.3059
     11 O           1.7817    2.2993   21.2033 O.2     1  UNL1       -0.2524
     12 N          -0.7983    2.3008   21.5097 N.am    1  UNL1       -0.2885
     13 H          -0.5418    0.0548   19.8945 H       1  UNL1        0.1583
     14 H          -1.6785    1.8982   21.3297 H       1  UNL1        0.1510
     15 C           3.5155   -1.5834   19.1764 C.ar    1  UNL1        0.0803
     16 S           2.3569   -1.2949   20.0844 S.2     1  UNL1       -0.0488
     17 C           1.5772   -0.1576   19.4939 C.ar    1  UNL1        0.1664
     18 N           2.2540    0.2568   18.2210 N.ar    1  UNL1       -0.2282
     19 C           3.4519   -0.6244   18.0247 C.ar    1  UNL1        0.0701
     20 C           4.4167   -0.5583   16.8781 C.3     1  UNL1        0.0528
     21 C           4.2822   -4.0558   18.9548 C.3     1  UNL1        0.0779
     22 C           4.5551   -2.6446   19.3837 C.2     1  UNL1        0.1807
     23 O           5.8676   -2.2946   20.0198 O.2     1  UNL1       -0.2908
     24 C           0.2188    3.1467   26.7537 C.3     1  UNL1        0.0817
     25 C           1.6021    2.5804   26.8797 C.3     1  UNL1        0.0412
     26 C           1.8049    1.2244   27.4881 C.3     1  UNL1        0.1427
     27 O           0.6243    0.4347   27.9707 O.3     1  UNL1       -0.3538
     28 C          -0.7589    1.0011   27.8447 C.3     1  UNL1        0.1427
     29 C          -0.9617    2.3571   27.2363 C.3     1  UNL1        0.0412
     30 C          -1.2037    5.0128   20.2927 C.3     1  UNL1        0.0738
     31 N          -2.5447    4.5942   19.7669 N.3     1  UNL1       -0.2726
     32 C          -2.7092    4.2582   18.3142 C.3     1  UNL1        0.0721
     33 C          -4.0502    3.8396   17.7884 C.3     1  UNL1        0.0174
     34 C          -5.2268    3.7570   18.7152 C.3     1  UNL1        0.0031
     35 C          -5.0623    4.0931   20.1678 C.3     1  UNL1        0.0204
     36 C          -3.7213    4.5116   20.6936 C.3     1  UNL1        0.0724
     37 C          -6.2389    4.0105   21.0946 C.3     1  UNL1        0.0277
     38 C          -6.0543    4.2491   22.5639 C.ar    1  UNL1       -0.0220
     39 C          -5.2568    3.2810   23.3866 C.ar    1  UNL1       -0.0020
     40 C          -5.0722    3.5196   24.8560 C.ar    1  UNL1        0.0293
     41 C          -5.6853    4.7264   25.5027 C.ar    1  UNL1        0.1401
     42 F          -5.5007    4.9650   26.9720 F       1  UNL1       -0.2042
     43 C          -6.4828    5.6944   24.6800 C.ar    1  UNL1        0.0293
     44 C          -6.6673    5.4558   23.2106 C.ar    1  UNL1       -0.0020
@<TRIPOS>BOND
     1    21    22    1
     2    22    23    2
     3    22    15    1
     4    15    16   ar
     5    16    17   ar
     6    17     9    1
     7     9    10   am
     8    10    11    2
     9    10    12   am
    10     1    12    1
    11     1     2    1
    12     2     3    1
    13     3     4   am
    14     4     5    2
    15     4    24    1
    16    24    25    1
    17    25    26    1
    18    26    27    1
    19    27    28    1
    20    28    29    1
    21     3     6    1
    22     6     7    1
    23     7     8    1
    24     8    30    1
    25    30    31    1
    26    31    32    1
    27    32    33    1
    28    33    34    1
    29    34    35    1
    30    35    37    1
    31    37    38    1
    32    38    39   ar
    33    39    40   ar
    34    40    41   ar
    35    41    42    1
    36    41    43   ar
    37    43    44   ar
    38    35    36    1
    39    17    18   ar
    40    18    19   ar
    41    19    20    1
    42    19    15   ar
    43     8     1    1
    44    36    31    1
    45    29    24    1
    46    44    38   ar
    47     9    13    1
    48    12    14    1
@<TRIPOS>MOLECULE
*****
 44 48 0 0 0
SMALL
GASTEIGER

@<TRIPOS>ATOM
      1 C           2.2790    1.9229   23.7916 C.3     1  UNL1        0.0942
      2 C           1.6871    1.9690   25.1690 C.3     1  UNL1        0.1129
      3 N           1.4686    3.2887   25.8476 N.am    1  UNL1       -0.2779
      4 C           0.8766    3.3348   27.2252 C.2     1  UNL1        0.2254
      5 O           0.6581    4.6545   27.9038 O.2     1  UNL1       -0.2749
      6 C           1.8420    4.5623   25.1488 C.3     1  UNL1        0.0936
      7 C           2.4339    4.5162   23.7713 C.3     1  UNL1        0.0246
      8 C           2.6524    3.1965   23.0927 C.3     1  UNL1        0.0374
      9 N           4.0148   -1.4456   22.6125 N.am    1  UNL1       -0.2485
     10 C           3.7963   -0.1259   23.2911 C.2     1  UNL1        0.3059
     11 O           4.8765    0.4648   24.1481 O.2     1  UNL1       -0.2524
     12 N           2.4975    0.6031   23.1129 N.am    1  UNL1       -0.2885
     13 H           3.3059   -1.8333   22.0501 H       1  UNL1        0.1583
     14 H           1.7886    0.2154   22.5505 H       1  UNL1        0.1510
     15 C           6.9451   -3.8766   23.3672 C.ar    1  UNL1        0.0803
     16 S           5.4830   -3.5417   23.3844 S.2     1  UNL1       -0.0488
     17 C           5.3136   -2.1747   22.7908 C.ar    1  UNL1        0.1664
     18 N           6.6709   -1.6647   22.4066 N.ar    1  UNL1       -0.2282
     19 C           7.6792   -2.7165   22.7629 C.ar    1  UNL1        0.0701
     20 C           9.1615   -2.6244   22.5519 C.3     1  UNL1        0.0528
     21 C           7.6530   -5.4107   25.3408 C.3     1  UNL1        0.0779
     22 C           7.5642   -5.1483   23.8667 C.2     1  UNL1        0.1807
     23 O           8.0945   -6.1575   22.8920 O.2     1  UNL1       -0.2908
     24 C           0.5032    2.0612   27.9241 C.3     1  UNL1        0.0817
     25 C           1.5332    1.3094   28.7141 C.3     1  UNL1        0.0412
     26 C           1.1598    0.0358   29.4130 C.3     1  UNL1        0.1427
     27 O          -0.2436   -0.4861   29.3218 O.3     1  UNL1       -0.3538
     28 C          -1.2735    0.2656   28.5318 C.3     1  UNL1        0.1427
     29 C          -0.9001    1.5393   27.8329 C.3     1  UNL1        0.0412
     30 C           3.2443    3.1504   21.7152 C.3     1  UNL1        0.0738
     31 N           2.5269    2.4268   20.6144 N.3     1  UNL1       -0.2726
     32 C           1.0564    2.6412   20.4099 C.3     1  UNL1        0.0721
     33 C           0.3389    1.9176   19.3091 C.3     1  UNL1        0.0174
     34 C           1.0920    0.9795   18.4129 C.3     1  UNL1        0.0031
     35 C           2.5624    0.7651   18.6175 C.3     1  UNL1        0.0204
     36 C           3.2798    1.4888   19.7183 C.3     1  UNL1        0.0724
     37 C           3.3154   -0.1729   17.7213 C.3     1  UNL1        0.0277
     38 C           4.1226   -1.2900   18.3135 C.ar    1  UNL1       -0.0220
     39 C           5.6141   -1.3034   18.1548 C.ar    1  UNL1       -0.0020
     40 C           6.4213   -2.4205   18.7469 C.ar    1  UNL1        0.0293
     41 C           5.7369   -3.5241   19.4978 C.ar    1  UNL1        0.1401
     42 F           6.5441   -4.6411   20.0900 F       1  UNL1       -0.2042
     43 C           4.2454   -3.5106   19.6565 C.ar    1  UNL1        0.0293
     44 C           3.4382   -2.3935   19.0644 C.ar    1  UNL1       -0.0020
@<TRIPOS>BOND
     1    21    22    1
     2    22    23    2
     3    22    15    1
     4    15    16   ar
     5    16    17   ar
     6    17     9    1
     7     9    10   am
     8    10    11    2
     9    10    12   am
    10     1    12    1
    11     1     2    1
    12     2     3    1
    13     3     4   am
    14     4     5    2
    15     4    24    1
    16    24    25    1
    17    25    26    1
    18    26    27    1
    19    27    28    1
    20    28    29    1
    21     3     6    1
    22     6     7    1
    23     7     8    1
    24     8    30    1
    25    30    31    1
    26    31    32    1
    27    32    33    1
    28    33    34    1
    29    34    35    1
    30    35    37    1
    31    37    38    1
    32    38    39   ar
    33    39    40   ar
    34    40    41   ar
    35    41    42    1
    36    41    43   ar
    37    43    44   ar
    38    35    36    1
    39    17    18   ar
    40    18    19   ar
    41    19    20    1
    42    19    15   ar
    43     8     1    1
    44    36    31    1
    45    29    24    1
    46    44    38   ar
    47     9    13    1
    48    12    14    1
@<TRIPOS>MOLECULE
*****
 44 48 0 0 0
SMALL
GASTEIGER

@<TRIPOS>ATOM
      1 C           6.2785   -1.6655   23.2823 C.3     1  UNL1        0.0942
      2 C           5.4928   -1.6220   22.0054 C.3     1  UNL1        0.1129
      3 N           5.7643   -2.6247   20.9233 N.am    1  UNL1       -0.2779
      4 C           4.9786   -2.5812   19.6462 C.2     1  UNL1        0.2254
      5 O           5.2501   -3.5839   18.5641 O.2     1  UNL1       -0.2749
      6 C           6.8215   -3.6707   21.1181 C.3     1  UNL1        0.0936
      7 C           7.6073   -3.7142   22.3951 C.3     1  UNL1        0.0246
      8 C           7.3358   -2.7116   23.4772 C.3     1  UNL1        0.0374
      9 N           4.3379    0.5344   25.9552 N.am    1  UNL1       -0.2485
     10 C           4.6094   -0.4682   24.8731 C.2     1  UNL1        0.3059
     11 O           3.4832   -1.2761   24.2995 O.2     1  UNL1       -0.2524
     12 N           6.0071   -0.6628   24.3645 N.am    1  UNL1       -0.2885
     13 H           5.0770    1.0647   26.3317 H       1  UNL1        0.1583
     14 H           6.7462   -0.1326   24.7410 H       1  UNL1        0.1510
     15 C           0.9671    0.6609   27.8754 C.ar    1  UNL1        0.0803
     16 S           2.4061    0.2484   27.7804 S.2     1  UNL1       -0.0488
     17 C           2.9402    0.7291   26.4638 C.ar    1  UNL1        0.1664
     18 N           1.8313    1.4387   25.7450 N.ar    1  UNL1       -0.2282
     19 C           0.6118    1.3965   26.6174 C.ar    1  UNL1        0.0701
     20 C          -0.7278    1.9864   26.2894 C.3     1  UNL1        0.0528
     21 C          -1.1190   -0.5431   28.8493 C.3     1  UNL1        0.0779
     22 C           0.0452    0.3860   29.0263 C.2     1  UNL1        0.1807
     23 O           0.2875    1.0401   30.3541 O.2     1  UNL1       -0.2908
     24 C           3.9213   -1.5351   19.4513 C.3     1  UNL1        0.0817
     25 C           4.1943   -0.3466   18.5778 C.3     1  UNL1        0.0412
     26 C           3.1370    0.6995   18.3830 C.3     1  UNL1        0.1427
     27 O           1.8069    0.5570   19.0616 O.3     1  UNL1       -0.3538
     28 C           1.5340   -0.6315   19.9350 C.3     1  UNL1        0.1427
     29 C           2.5912   -1.6776   20.1299 C.3     1  UNL1        0.0412
     30 C           8.1215   -2.7550   24.7542 C.3     1  UNL1        0.0738
     31 N           7.6600   -3.6197   25.8897 N.3     1  UNL1       -0.2726
     32 C           6.9401   -4.9054   25.6089 C.3     1  UNL1        0.0721
     33 C           6.4786   -5.7700   26.7444 C.3     1  UNL1        0.0174
     34 C           6.7369   -5.3490   28.1607 C.3     1  UNL1        0.0031
     35 C           7.4568   -4.0633   28.4416 C.3     1  UNL1        0.0204
     36 C           7.9183   -3.1987   27.3061 C.3     1  UNL1        0.0724
     37 C           7.7151   -3.6423   29.8579 C.3     1  UNL1        0.0277
     38 C           6.6469   -2.9327   30.6361 C.ar    1  UNL1       -0.0220
     39 C           6.3189   -3.3722   32.0323 C.ar    1  UNL1       -0.0020
     40 C           5.2507   -2.6627   32.8105 C.ar    1  UNL1        0.0293
     41 C           4.5106   -1.5136   32.1924 C.ar    1  UNL1        0.1401
     42 F           3.4424   -0.8041   32.9706 F       1  UNL1       -0.2042
     43 C           4.8386   -1.0742   30.7963 C.ar    1  UNL1        0.0293
     44 C           5.9068   -1.7837   30.0182 C.ar    1  UNL1       -0.0020
@<TRIPOS>BOND
     1    21    22    1
     2    22    23    2
     3    22    15    1
     4    15    16   ar
     5    16    17   ar
     6    17     9    1
     7     9    10   am
     8    10    11    2
     9    10    12   am
    10     1    12    1
    11     1     2    1
    12     2     3    1
    13     3     4   am
    14     4     5    2
    15     4    24    1
    16    24    25    1
    17    25    26    1
    18    26    27    1
    19    27    28    1
    20    28    29    1
    21     3     6    1
    22     6     7    1
    23     7     8    1
    24     8    30    1
    25    30    31    1
    26    31    32    1
    27    32    33    1
    28    33    34    1
    29    34    35    1
    30    35    37    1
    31    37    38    1
    32    38    39   ar
    33    39    40   ar
    34    40    41   ar
    35    41    42    1
    36    41    43   ar
    37    43    44   ar
    38    35    36    1
    39    17    18   ar
    40    18    19   ar
    41    19    20    1
    42    19    15   ar
    43     8     1    1
    44    36    31    1
    45    29    24    1
    46    44    38   ar
    47     9    13    1
    48    12    14    1
@<TRIPOS>MOLECULE
*****
 44 48 0 0 0
SMALL
GASTEIGER

@<TRIPOS>ATOM
      1 C           4.0591   -1.2928   27.0361 C.3     1  UNL1        0.0942
      2 C           5.1416   -2.0293   27.7680 C.3     1  UNL1        0.1129
      3 N           5.5418   -1.5976   29.1476 N.am    1  UNL1       -0.2779
      4 C           6.6243   -2.3341   29.8796 C.2     1  UNL1        0.2254
      5 O           7.0245   -1.9024   31.2592 O.2     1  UNL1       -0.2749
      6 C           4.8595   -0.4293   29.7954 C.3     1  UNL1        0.0936
      7 C           3.7770    0.3073   29.0635 C.3     1  UNL1        0.0246
      8 C           3.3768   -0.1245   27.6839 C.3     1  UNL1        0.0374
      9 N           4.0980   -1.7669   23.0961 N.am    1  UNL1       -0.2485
     10 C           4.4982   -1.3352   24.4757 C.2     1  UNL1        0.3059
     11 O           5.7377   -0.5142   24.6747 O.2     1  UNL1       -0.2524
     12 N           3.6589   -1.7245   25.6564 N.am    1  UNL1       -0.2885
     13 H           3.2845   -2.3057   22.9655 H       1  UNL1        0.1583
     14 H           2.8454   -2.2633   25.5258 H       1  UNL1        0.1510
     15 C           6.3959   -1.4999   19.9793 C.ar    1  UNL1        0.0803
     16 S           5.7008   -2.3160   21.0285 S.2     1  UNL1       -0.0488
     17 C           4.9373   -1.3776   21.9154 C.ar    1  UNL1        0.1664
     18 N           5.1606    0.0185   21.4142 N.ar    1  UNL1       -0.2282
     19 C           6.0620   -0.0571   20.2177 C.ar    1  UNL1        0.0701
     20 C           6.5447    1.1059   19.4026 C.3     1  UNL1        0.0528
     21 C           8.6740   -2.4674   19.1894 C.3     1  UNL1        0.0779
     22 C           7.2711   -2.0331   18.8840 C.2     1  UNL1        0.1807
     23 O           6.7435   -2.1319   17.4834 O.2     1  UNL1       -0.2908
     24 C           7.3066   -3.5024   29.2318 C.3     1  UNL1        0.0817
     25 C           8.4848   -3.2778   28.3309 C.3     1  UNL1        0.0412
     26 C           9.1671   -4.4461   27.6832 C.3     1  UNL1        0.1427
     27 O           8.6713   -5.8390   27.9363 O.3     1  UNL1       -0.3538
     28 C           7.4931   -6.0635   28.8371 C.3     1  UNL1        0.1427
     29 C           6.8108   -4.8952   29.4849 C.3     1  UNL1        0.0412
     30 C           2.2943    0.6121   26.9519 C.3     1  UNL1        0.0738
     31 N           2.5992    1.2958   25.6521 N.3     1  UNL1       -0.2726
     32 C           3.7758    2.2206   25.5490 C.3     1  UNL1        0.0721
     33 C           4.0806    2.9043   24.2492 C.3     1  UNL1        0.0174
     34 C           3.2089    2.6634   23.0525 C.3     1  UNL1        0.0031
     35 C           2.0324    1.7387   23.1556 C.3     1  UNL1        0.0204
     36 C           1.7275    1.0549   24.4554 C.3     1  UNL1        0.0724
     37 C           1.1606    1.4977   21.9589 C.3     1  UNL1        0.0277
     38 C           1.7621    0.9854   20.6838 C.ar    1  UNL1       -0.0220
     39 C           2.3013    1.9492   19.6687 C.ar    1  UNL1       -0.0020
     40 C           2.9028    1.4370   18.3936 C.ar    1  UNL1        0.0293
     41 C           2.9651   -0.0391   18.1337 C.ar    1  UNL1        0.1401
     42 F           3.5666   -0.5514   16.8586 F       1  UNL1       -0.2042
     43 C           2.4259   -1.0028   19.1488 C.ar    1  UNL1        0.0293
     44 C           1.8244   -0.4905   20.4238 C.ar    1  UNL1       -0.0020
@<TRIPOS>BOND
     1    21    22    1
     2    22    23    2
     3    22    15    1
     4    15    16   ar
     5    16    17   ar
     6    17     9    1
     7     9    10   am
     8    10    11    2
     9    10    12   am
    10     1    12    1
    11     1     2    1
    12     2     3    1
    13     3     4   am
    14     4     5    2
    15     4    24    1
    16    24    25    1
    17    25    26    1
    18    26    27    1
    19    27    28    1
    20    28    29    1
    21     3     6    1
    22     6     7    1
    23     7     8    1
    24     8    30    1
    25    30    31    1
    26    31    32    1
    27    32    33    1
    28    33    34    1
    29    34    35    1
    30    35    37    1
    31    37    38    1
    32    38    39   ar
    33    39    40   ar
    34    40    41   ar
    35    41    42    1
    36    41    43   ar
    37    43    44   ar
    38    35    36    1
    39    17    18   ar
    40    18    19   ar
    41    19    20    1
    42    19    15   ar
    43     8     1    1
    44    36    31    1
    45    29    24    1
    46    44    38   ar
    47     9    13    1
    48    12    14    1
@<TRIPOS>MOLECULE
*****
 44 48 0 0 0
SMALL
GASTEIGER

@<TRIPOS>ATOM
      1 C           1.4119    1.2094   21.2119 C.3     1  UNL1        0.0942
      2 C           2.3413    0.1490   20.7004 C.3     1  UNL1        0.1129
      3 N           3.2012    0.4201   19.5016 N.am    1  UNL1       -0.2779
      4 C           4.1306   -0.6403   18.9900 C.2     1  UNL1        0.2254
      5 O           4.9905   -0.3693   17.7913 O.2     1  UNL1       -0.2749
      6 C           3.1316    1.7516   18.8144 C.3     1  UNL1        0.0936
      7 C           2.2023    2.8120   19.3259 C.3     1  UNL1        0.0246
      8 C           1.3424    2.5409   20.5247 C.3     1  UNL1        0.0374
      9 N           0.2308    0.9076   24.9887 N.am    1  UNL1       -0.2485
     10 C           1.0907    1.1786   23.7899 C.2     1  UNL1        0.3059
     11 O           2.4893    1.6900   23.9702 O.2     1  UNL1       -0.2524
     12 N           0.5520    0.9384   22.4108 N.am    1  UNL1       -0.2885
     13 H          -0.6871    0.5720   24.8704 H       1  UNL1        0.1583
     14 H          -0.3659    0.6028   22.2924 H       1  UNL1        0.1510
     15 C           0.9673    1.8785   28.6739 C.ar    1  UNL1        0.0803
     16 S           0.0648    1.8731   27.4758 S.2     1  UNL1       -0.0488
     17 C           0.7696    1.1479   26.3679 C.ar    1  UNL1        0.1664
     18 N           2.1076    0.7052   26.8813 N.ar    1  UNL1       -0.2282
     19 C           2.2298    1.1567   28.3065 C.ar    1  UNL1        0.0701
     20 C           3.4078    0.9269   29.2063 C.3     1  UNL1        0.0528
     21 C           0.8004    3.9787   30.1941 C.3     1  UNL1        0.0779
     22 C           0.6610    2.4972   30.0056 C.2     1  UNL1        0.1807
     23 O           0.2152    1.6344   31.1487 O.2     1  UNL1       -0.2908
     24 C           4.2002   -1.9718   19.6773 C.3     1  UNL1        0.0817
     25 C           4.8410   -2.0857   21.0288 C.3     1  UNL1        0.0412
     26 C           4.9105   -3.4172   21.7160 C.3     1  UNL1        0.1427
     27 O           4.3392   -4.6348   21.0517 O.3     1  UNL1       -0.3538
     28 C           3.6985   -4.5209   19.7003 C.3     1  UNL1        0.1427
     29 C           3.6289   -3.1894   19.0131 C.3     1  UNL1        0.0412
     30 C           0.4129    3.6013   21.0363 C.3     1  UNL1        0.0738
     31 N          -0.9588    3.7444   20.4465 N.3     1  UNL1       -0.2726
     32 C          -1.1388    4.4282   19.1236 C.3     1  UNL1        0.0721
     33 C          -2.5106    4.5713   18.5338 C.3     1  UNL1        0.0174
     34 C          -3.7023    4.0306   19.2669 C.3     1  UNL1        0.0031
     35 C          -3.5223    3.3469   20.5898 C.3     1  UNL1        0.0204
     36 C          -2.1505    3.2038   21.1796 C.3     1  UNL1        0.0724
     37 C          -4.7140    2.8062   21.3230 C.3     1  UNL1        0.0277
     38 C          -5.1947    3.4808   22.5735 C.ar    1  UNL1       -0.0220
     39 C          -4.5489    3.1671   23.8906 C.ar    1  UNL1       -0.0020
     40 C          -5.0296    3.8417   25.1412 C.ar    1  UNL1        0.0293
     41 C          -6.1561    4.8299   25.0746 C.ar    1  UNL1        0.1401
     42 F          -6.6368    5.5045   26.3252 F       1  UNL1       -0.2042
     43 C          -6.8019    5.1435   23.7576 C.ar    1  UNL1        0.0293
     44 C          -6.3212    4.4690   22.5071 C.ar    1  UNL1       -0.0020
@<TRIPOS>BOND
     1    21    22    1
     2    22    23    2
     3    22    15    1
     4    15    16   ar
     5    16    17   ar
     6    17     9    1
     7     9    10   am
     8    10    11    2
     9    10    12   am
    10     1    12    1
    11     1     2    1
    12     2     3    1
    13     3     4   am
    14     4     5    2
    15     4    24    1
    16    24    25    1
    17    25    26    1
    18    26    27    1
    19    27    28    1
    20    28    29    1
    21     3     6    1
    22     6     7    1
    23     7     8    1
    24     8    30    1
    25    30    31    1
    26    31    32    1
    27    32    33    1
    28    33    34    1
    29    34    35    1
    30    35    37    1
    31    37    38    1
    32    38    39   ar
    33    39    40   ar
    34    40    41   ar
    35    41    42    1
    36    41    43   ar
    37    43    44   ar
    38    35    36    1
    39    17    18   ar
    40    18    19   ar
    41    19    20    1
    42    19    15   ar
    43     8     1    1
    44    36    31    1
    45    29    24    1
    46    44    38   ar
    47     9    13    1
    48    12    14    1
@<TRIPOS>MOLECULE
*****
 44 48 0 0 0
SMALL
GASTEIGER

@<TRIPOS>ATOM
      1 C           6.8027   -2.4851   25.4253 C.3     1  UNL1        0.0942
      2 C           7.2623   -3.4416   26.4854 C.3     1  UNL1        0.1129
      3 N           7.7414   -4.8107   26.1035 N.am    1  UNL1       -0.2779
      4 C           8.2011   -5.7673   27.1636 C.2     1  UNL1        0.2254
      5 O           8.6801   -7.1364   26.7817 O.2     1  UNL1       -0.2749
      6 C           7.7608   -5.2234   24.6615 C.3     1  UNL1        0.0936
      7 C           7.3012   -4.2670   23.6014 C.3     1  UNL1        0.0246
      8 C           6.8221   -2.8978   23.9833 C.3     1  UNL1        0.0374
      9 N           4.3999    0.4753   26.5264 N.am    1  UNL1       -0.2485
     10 C           4.8790   -0.8938   26.1445 C.2     1  UNL1        0.3059
     11 O           3.9135   -2.0410   26.1001 O.2     1  UNL1       -0.2524
     12 N           6.3236   -1.1159   25.8071 N.am    1  UNL1       -0.2885
     13 H           5.0336    1.2282   26.5556 H       1  UNL1        0.1583
     14 H           6.9573   -0.3630   25.8363 H       1  UNL1        0.1510
     15 C           0.8303    0.6842   28.0364 C.ar    1  UNL1        0.0803
     16 S           2.2648    0.2536   28.1193 S.2     1  UNL1       -0.0488
     17 C           2.9553    0.6974   26.8638 C.ar    1  UNL1        0.1664
     18 N           1.9475    1.4022   26.0049 N.ar    1  UNL1       -0.2282
     19 C           0.6342    1.3940   26.7296 C.ar    1  UNL1        0.0701
     20 C          -0.6497    1.9909   26.2344 C.3     1  UNL1        0.0528
     21 C          -1.3160   -0.5493   28.8249 C.3     1  UNL1        0.0779
     22 C          -0.2231    0.4466   29.0775 C.2     1  UNL1        0.1807
     23 O          -0.1836    1.2048   30.3710 O.2     1  UNL1       -0.2908
     24 C           8.1817   -5.3546   28.6056 C.3     1  UNL1        0.0817
     25 C           6.9610   -5.6046   29.4409 C.3     1  UNL1        0.0412
     26 C           6.9416   -5.1919   30.8829 C.3     1  UNL1        0.1427
     27 O           8.1428   -4.5292   31.4896 O.3     1  UNL1       -0.3538
     28 C           9.3634   -4.2793   30.6543 C.3     1  UNL1        0.1427
     29 C           9.3828   -4.6920   29.2123 C.3     1  UNL1        0.0412
     30 C           6.3624   -1.9413   22.9232 C.3     1  UNL1        0.0738
     31 N           5.4628   -2.4182   21.8217 N.3     1  UNL1       -0.2726
     32 C           5.0902   -3.8685   21.7327 C.3     1  UNL1        0.0721
     33 C           4.1905   -4.3454   20.6312 C.3     1  UNL1        0.0174
     34 C           3.6635   -3.3721   19.6188 C.3     1  UNL1        0.0031
     35 C           4.0361   -1.9219   19.7079 C.3     1  UNL1        0.0204
     36 C           4.9358   -1.4449   20.8094 C.3     1  UNL1        0.0724
     37 C           3.5091   -0.9485   18.6955 C.3     1  UNL1        0.0277
     38 C           2.3683   -0.0414   19.0503 C.ar    1  UNL1       -0.0220
     39 C           1.3639   -0.4670   20.0800 C.ar    1  UNL1       -0.0020
     40 C           0.2232    0.4401   20.4347 C.ar    1  UNL1        0.0293
     41 C           0.0868    1.7728   19.7598 C.ar    1  UNL1        0.1401
     42 F          -1.0540    2.6799   20.1146 F       1  UNL1       -0.2042
     43 C           1.0912    2.1983   18.7302 C.ar    1  UNL1        0.0293
     44 C           2.2319    1.2912   18.3755 C.ar    1  UNL1       -0.0020
@<TRIPOS>BOND
     1    21    22    1
     2    22    23    2
     3    22    15    1
     4    15    16   ar
     5    16    17   ar
     6    17     9    1
     7     9    10   am
     8    10    11    2
     9    10    12   am
    10     1    12    1
    11     1     2    1
    12     2     3    1
    13     3     4   am
    14     4     5    2
    15     4    24    1
    16    24    25    1
    17    25    26    1
    18    26    27    1
    19    27    28    1
    20    28    29    1
    21     3     6    1
    22     6     7    1
    23     7     8    1
    24     8    30    1
    25    30    31    1
    26    31    32    1
    27    32    33    1
    28    33    34    1
    29    34    35    1
    30    35    37    1
    31    37    38    1
    32    38    39   ar
    33    39    40   ar
    34    40    41   ar
    35    41    42    1
    36    41    43   ar
    37    43    44   ar
    38    35    36    1
    39    17    18   ar
    40    18    19   ar
    41    19    20    1
    42    19    15   ar
    43     8     1    1
    44    36    31    1
    45    29    24    1
    46    44    38   ar
    47     9    13    1
    48    12    14    1
