@<TRIPOS>MOLECULE
*****
 19 20 0 0 0
SMALL
GASTEIGER

@<TRIPOS>ATOM
      1 C          -8.4592  -17.5212   21.9822 C.2     1  UNL1        0.1855
      2 O          -7.3650  -17.7667   20.9860 O.2     1  UNL1       -0.2900
      3 C          -8.1369  -16.9161   23.3164 C.ar    1  UNL1        0.0369
      4 C          -9.1765  -16.8864   24.3973 C.ar    1  UNL1        0.0038
      5 C          -8.8541  -16.2814   25.7314 C.ar    1  UNL1        0.0123
      6 C          -7.4921  -15.7060   25.9847 C.ar    1  UNL1        0.0682
      7 CL         -7.1698  -15.1010   27.3189 Cl      1  UNL1       -0.0814
      8 C          -6.4526  -15.7357   24.9038 C.ar    1  UNL1        0.0683
      9 CL         -5.0907  -15.1604   25.1570 Cl      1  UNL1       -0.0814
     10 C          -6.7750  -16.3408   23.5696 C.ar    1  UNL1        0.0151
     11 C          -9.8757  -17.8806   21.6442 C.3     1  UNL1        0.0981
     12 C         -11.2055  -18.5282   21.3944 C.3     1  UNL1        0.0233
     13 C         -12.1463  -17.4750   20.8887 C.3     1  UNL1        0.0189
     14 C         -11.3980  -16.1765   20.8260 C.3     1  UNL1        0.0689
     15 N          -9.9947  -16.4272   21.2929 N.3     1  UNL1       -0.2938
     16 H          -9.7956  -15.8553   22.1137 H       1  UNL1        0.1235
     17 C          -9.4606  -19.2589   22.0662 C.3     1  UNL1        0.0219
     18 C          -9.8618  -20.4415   24.3445 C.3     1  UNL1        0.0001
     19 C         -10.3427  -20.0624   22.9752 C.3     1  UNL1        0.0018
@<TRIPOS>BOND
     1    18    19    1
     2    19    17    1
     3    11    17    1
     4    11     1    1
     5     1     2    2
     6     1     3    1
     7     3     4   ar
     8     4     5   ar
     9     5     6   ar
    10     6     7    1
    11     6     8   ar
    12     8     9    1
    13     8    10   ar
    14    11    12    1
    15    12    13    1
    16    13    14    1
    17    14    15    1
    18    15    11    1
    19    10     3   ar
    20    15    16    1
@<TRIPOS>MOLECULE
*****
 19 20 0 0 0
SMALL
GASTEIGER

@<TRIPOS>ATOM
      1 C          -9.5939  -19.2848   20.0745 C.2     1  UNL1        0.1855
      2 O          -9.7926  -20.0597   18.8056 O.2     1  UNL1       -0.2900
      3 C          -8.2256  -19.1739   20.6791 C.ar    1  UNL1        0.0369
      4 C          -7.9887  -18.2461   21.8336 C.ar    1  UNL1        0.0038
      5 C          -6.6205  -18.1352   22.4382 C.ar    1  UNL1        0.0123
      6 C          -5.4891  -18.9523   21.8882 C.ar    1  UNL1        0.0682
      7 CL         -4.1208  -18.8414   22.4929 Cl      1  UNL1       -0.0814
      8 C          -5.7260  -19.8802   20.7338 C.ar    1  UNL1        0.0683
      9 CL         -4.5946  -20.6972   20.1839 Cl      1  UNL1       -0.0814
     10 C          -7.0942  -19.9910   20.1292 C.ar    1  UNL1        0.0151
     11 C         -10.7634  -18.6208   20.7387 C.3     1  UNL1        0.0981
     12 C         -11.9458  -18.2214   21.5708 C.3     1  UNL1        0.0233
     13 C         -12.3706  -16.8477   21.1434 C.3     1  UNL1        0.0189
     14 C         -11.4507  -16.3982   20.0472 C.3     1  UNL1        0.0689
     15 N         -10.4574  -17.4940   19.7971 N.3     1  UNL1       -0.2938
     16 H          -9.5122  -17.1495   19.9652 H       1  UNL1        0.1235
     17 C         -10.8249  -19.8864   21.5415 C.3     1  UNL1        0.0219
     18 C         -10.0061  -20.3697   23.9594 C.3     1  UNL1        0.0001
     19 C         -11.0442  -19.8242   23.0240 C.3     1  UNL1        0.0018
@<TRIPOS>BOND
     1    18    19    1
     2    19    17    1
     3    11    17    1
     4    11     1    1
     5     1     2    2
     6     1     3    1
     7     3     4   ar
     8     4     5   ar
     9     5     6   ar
    10     6     7    1
    11     6     8   ar
    12     8     9    1
    13     8    10   ar
    14    11    12    1
    15    12    13    1
    16    13    14    1
    17    14    15    1
    18    15    11    1
    19    10     3   ar
    20    15    16    1
@<TRIPOS>MOLECULE
*****
 19 20 0 0 0
SMALL
GASTEIGER

@<TRIPOS>ATOM
      1 C          -9.3680  -17.2113   22.4014 C.2     1  UNL1        0.1855
      2 O          -8.9203  -17.4017   20.9825 O.2     1  UNL1       -0.2900
      3 C          -8.4230  -16.6380   23.4156 C.ar    1  UNL1        0.0369
      4 C          -6.9733  -16.4608   23.0738 C.ar    1  UNL1        0.0038
      5 C          -6.0283  -15.8876   24.0879 C.ar    1  UNL1        0.0123
      6 C          -6.5331  -15.4917   25.4438 C.ar    1  UNL1        0.0682
      7 CL         -5.5880  -14.9185   26.4580 Cl      1  UNL1       -0.0814
      8 C          -7.9828  -15.6689   25.7856 C.ar    1  UNL1        0.0683
      9 CL         -8.4875  -15.2730   27.1415 Cl      1  UNL1       -0.0814
     10 C          -8.9277  -16.2421   24.7715 C.ar    1  UNL1        0.0151
     11 C         -10.7607  -17.5940   22.8062 C.3     1  UNL1        0.0981
     12 C         -12.0241  -18.2563   23.2699 C.3     1  UNL1        0.0233
     13 C         -13.1322  -17.2484   23.1901 C.3     1  UNL1        0.0189
     14 C         -12.5535  -15.9631   22.6770 C.3     1  UNL1        0.0689
     15 N         -11.0878  -16.1767   22.4398 N.3     1  UNL1       -0.2938
     16 H         -10.5463  -15.5355   23.0194 H       1  UNL1        0.1235
     17 C         -10.1424  -18.9313   23.0880 C.3     1  UNL1        0.0219
     18 C          -9.7870  -20.8584   24.7940 C.3     1  UNL1        0.0001
     19 C         -10.6439  -19.7635   24.2307 C.3     1  UNL1        0.0018
@<TRIPOS>BOND
     1    18    19    1
     2    19    17    1
     3    11    17    1
     4    11     1    1
     5     1     2    2
     6     1     3    1
     7     3     4   ar
     8     4     5   ar
     9     5     6   ar
    10     6     7    1
    11     6     8   ar
    12     8     9    1
    13     8    10   ar
    14    11    12    1
    15    12    13    1
    16    13    14    1
    17    14    15    1
    18    15    11    1
    19    10     3   ar
    20    15    16    1
@<TRIPOS>MOLECULE
*****
 19 20 0 0 0
SMALL
GASTEIGER

@<TRIPOS>ATOM
      1 C         -10.4589  -18.7569   23.4759 C.2     1  UNL1        0.1855
      2 O         -10.6649  -20.2056   23.8058 O.2     1  UNL1       -0.2900
      3 C          -9.6745  -17.8800   24.4065 C.ar    1  UNL1        0.0369
      4 C          -9.6886  -18.1501   25.8819 C.ar    1  UNL1        0.0038
      5 C          -8.9042  -17.2732   26.8123 C.ar    1  UNL1        0.0123
      6 C          -8.1057  -16.1263   26.2674 C.ar    1  UNL1        0.0682
      7 CL         -7.3213  -15.2494   27.1979 Cl      1  UNL1       -0.0814
      8 C          -8.0916  -15.8562   24.7920 C.ar    1  UNL1        0.0683
      9 CL         -7.2932  -14.7093   24.2470 Cl      1  UNL1       -0.0814
     10 C          -8.8760  -16.7331   23.8615 C.ar    1  UNL1        0.0151
     11 C         -11.0373  -18.1851   22.2156 C.3     1  UNL1        0.0981
     12 C         -11.8098  -17.4640   21.1511 C.3     1  UNL1        0.0233
     13 C         -11.2376  -17.8520   19.8198 C.3     1  UNL1        0.0189
     14 C         -10.1115  -18.8129   20.0617 C.3     1  UNL1        0.0689
     15 N          -9.9877  -19.0188   21.5423 N.3     1  UNL1       -0.2938
     16 H          -9.0614  -18.7287   21.8559 H       1  UNL1        0.1235
     17 C         -11.9659  -17.4710   23.1524 C.3     1  UNL1        0.0219
     18 C         -14.0318  -18.2154   24.5411 C.3     1  UNL1        0.0001
     19 C         -13.4115  -17.8655   23.2209 C.3     1  UNL1        0.0018
@<TRIPOS>BOND
     1    18    19    1
     2    19    17    1
     3    11    17    1
     4    11     1    1
     5     1     2    2
     6     1     3    1
     7     3     4   ar
     8     4     5   ar
     9     5     6   ar
    10     6     7    1
    11     6     8   ar
    12     8     9    1
    13     8    10   ar
    14    11    12    1
    15    12    13    1
    16    13    14    1
    17    14    15    1
    18    15    11    1
    19    10     3   ar
    20    15    16    1
@<TRIPOS>MOLECULE
*****
 19 20 0 0 0
SMALL
GASTEIGER

@<TRIPOS>ATOM
      1 C         -10.5751  -16.7396   22.5926 C.2     1  UNL1        0.1855
      2 O         -11.6473  -15.7056   22.4158 O.2     1  UNL1       -0.2900
      3 C          -9.3352  -16.4091   23.3694 C.ar    1  UNL1        0.0369
      4 C          -7.9913  -16.4937   22.7085 C.ar    1  UNL1        0.0038
      5 C          -6.7514  -16.1631   23.4852 C.ar    1  UNL1        0.0123
      6 C          -6.8554  -15.7479   24.9228 C.ar    1  UNL1        0.0682
      7 CL         -5.6154  -15.4174   25.6996 Cl      1  UNL1       -0.0814
      8 C          -8.1992  -15.6633   25.5838 C.ar    1  UNL1        0.0683
      9 CL         -8.3032  -15.2482   27.0214 Cl      1  UNL1       -0.0814
     10 C          -9.4391  -15.9939   24.8070 C.ar    1  UNL1        0.0151
     11 C         -10.7430  -18.1042   21.9929 C.3     1  UNL1        0.0981
     12 C         -11.0226  -19.5435   21.6763 C.3     1  UNL1        0.0233
     13 C         -10.6253  -19.7903   20.2511 C.3     1  UNL1        0.0189
     14 C         -10.1001  -18.5036   19.6868 C.3     1  UNL1        0.0689
     15 N         -10.1728  -17.4615   20.7633 N.3     1  UNL1       -0.2938
     16 H         -10.7746  -16.6947   20.4627 H       1  UNL1        0.1235
     17 C         -11.2780  -18.4616   23.3478 C.3     1  UNL1        0.0219
     18 C          -9.9089  -19.7417   25.1470 C.3     1  UNL1        0.0001
     19 C         -10.8729  -19.7513   23.9978 C.3     1  UNL1        0.0018
@<TRIPOS>BOND
     1    18    19    1
     2    19    17    1
     3    11    17    1
     4    11     1    1
     5     1     2    2
     6     1     3    1
     7     3     4   ar
     8     4     5   ar
     9     5     6   ar
    10     6     7    1
    11     6     8   ar
    12     8     9    1
    13     8    10   ar
    14    11    12    1
    15    12    13    1
    16    13    14    1
    17    14    15    1
    18    15    11    1
    19    10     3   ar
    20    15    16    1
@<TRIPOS>MOLECULE
*****
 19 20 0 0 0
SMALL
GASTEIGER

@<TRIPOS>ATOM
      1 C          -9.6820  -18.4794   20.8381 C.2     1  UNL1        0.1855
      2 O          -9.9200  -18.6609   19.3683 O.2     1  UNL1       -0.2900
      3 C          -8.2838  -18.5085   21.3806 C.ar    1  UNL1        0.0369
      4 C          -7.3554  -19.6242   21.0020 C.ar    1  UNL1        0.0038
      5 C          -5.9573  -19.6532   21.5445 C.ar    1  UNL1        0.0123
      6 C          -5.4875  -18.5665   22.4656 C.ar    1  UNL1        0.0682
      7 CL         -4.0893  -18.5956   23.0081 Cl      1  UNL1       -0.0814
      8 C          -6.4158  -17.4508   22.8442 C.ar    1  UNL1        0.0683
      9 CL         -5.9460  -16.3641   23.7653 Cl      1  UNL1       -0.0814
     10 C          -7.8140  -17.4218   22.3017 C.ar    1  UNL1        0.0151
     11 C         -10.8420  -18.2688   21.7654 C.3     1  UNL1        0.0981
     12 C         -11.9622  -18.3622   22.7585 C.3     1  UNL1        0.0233
     13 C         -12.6026  -17.0097   22.8635 C.3     1  UNL1        0.0189
     14 C         -11.8780  -16.0806   21.9353 C.3     1  UNL1        0.0689
     15 N         -10.7900  -16.8587   21.2566 N.3     1  UNL1       -0.2938
     16 H          -9.8826  -16.4459   21.4729 H       1  UNL1        0.1235
     17 C         -10.6515  -19.7229   22.0803 C.3     1  UNL1        0.0219
     18 C          -9.3887  -20.5989   24.1751 C.3     1  UNL1        0.0001
     19 C         -10.6672  -20.1899   23.5056 C.3     1  UNL1        0.0018
@<TRIPOS>BOND
     1    18    19    1
     2    19    17    1
     3    11    17    1
     4    11     1    1
     5     1     2    2
     6     1     3    1
     7     3     4   ar
     8     4     5   ar
     9     5     6   ar
    10     6     7    1
    11     6     8   ar
    12     8     9    1
    13     8    10   ar
    14    11    12    1
    15    12    13    1
    16    13    14    1
    17    14    15    1
    18    15    11    1
    19    10     3   ar
    20    15    16    1
@<TRIPOS>MOLECULE
*****
 19 20 0 0 0
SMALL
GASTEIGER

@<TRIPOS>ATOM
      1 C         -10.4274  -16.7977   22.6263 C.2     1  UNL1        0.1855
      2 O         -11.5709  -15.8524   22.4056 O.2     1  UNL1       -0.2900
      3 C         -10.0397  -17.7697   21.5517 C.ar    1  UNL1        0.0369
      4 C         -11.0567  -18.2202   20.5453 C.ar    1  UNL1        0.0038
      5 C         -10.6689  -19.1922   19.4708 C.ar    1  UNL1        0.0123
      6 C          -9.2642  -19.7138   19.4025 C.ar    1  UNL1        0.0682
      7 CL         -8.8765  -20.6859   18.3278 Cl      1  UNL1       -0.0814
      8 C          -8.2472  -19.2633   20.4088 C.ar    1  UNL1        0.0683
      9 CL         -6.8424  -19.7849   20.3405 Cl      1  UNL1       -0.0814
     10 C          -8.6349  -18.2913   21.4834 C.ar    1  UNL1        0.0151
     11 C          -9.6715  -16.7709   23.9217 C.3     1  UNL1        0.0981
     12 C          -9.0978  -16.9886   25.2904 C.3     1  UNL1        0.0233
     13 C          -8.0301  -15.9592   25.5146 C.3     1  UNL1        0.0189
     14 C          -7.9440  -15.1052   24.2844 C.3     1  UNL1        0.0689
     15 N          -8.9585  -15.6069   23.3000 N.3     1  UNL1       -0.2938
     16 H          -8.4917  -15.9044   22.4432 H       1  UNL1        0.1235
     17 C         -10.5427  -17.9405   24.2726 C.3     1  UNL1        0.0219
     18 C          -9.8027  -20.4306   24.3199 C.3     1  UNL1        0.0001
     19 C          -9.9652  -19.1103   25.0130 C.3     1  UNL1        0.0018
@<TRIPOS>BOND
     1    18    19    1
     2    19    17    1
     3    11    17    1
     4    11     1    1
     5     1     2    2
     6     1     3    1
     7     3     4   ar
     8     4     5   ar
     9     5     6   ar
    10     6     7    1
    11     6     8   ar
    12     8     9    1
    13     8    10   ar
    14    11    12    1
    15    12    13    1
    16    13    14    1
    17    14    15    1
    18    15    11    1
    19    10     3   ar
    20    15    16    1
@<TRIPOS>MOLECULE
*****
 19 20 0 0 0
SMALL
GASTEIGER

@<TRIPOS>ATOM
      1 C          -8.5511  -18.1155   21.9169 C.2     1  UNL1        0.1855
      2 O          -9.2902  -17.4862   20.7733 O.2     1  UNL1       -0.2900
      3 C          -7.1293  -18.5588   21.7378 C.ar    1  UNL1        0.0369
      4 C          -6.7672  -19.4798   20.6106 C.ar    1  UNL1        0.0038
      5 C          -5.3455  -19.9230   20.4315 C.ar    1  UNL1        0.0123
      6 C          -4.2858  -19.4453   21.3797 C.ar    1  UNL1        0.0682
      7 CL         -2.8640  -19.8886   21.2005 Cl      1  UNL1       -0.0814
      8 C          -4.6479  -18.5243   22.5068 C.ar    1  UNL1        0.0683
      9 CL         -3.5883  -18.0466   23.4550 Cl      1  UNL1       -0.0814
     10 C          -6.0697  -18.0811   22.6859 C.ar    1  UNL1        0.0151
     11 C          -9.2338  -18.3015   23.2395 C.3     1  UNL1        0.0981
     12 C          -9.9338  -18.1743   24.5600 C.3     1  UNL1        0.0233
     13 C         -10.1406  -19.5546   25.1099 C.3     1  UNL1        0.0189
     14 C          -9.5683  -20.5347   24.1291 C.3     1  UNL1        0.0689
     15 N          -9.0079  -19.7602   22.9732 N.3     1  UNL1       -0.2938
     16 H          -9.4819  -20.0323   22.1119 H       1  UNL1        0.1235
     17 C          -9.3169  -16.8038   23.2294 C.3     1  UNL1        0.0219
     18 C          -7.7321  -15.1193   24.4130 C.3     1  UNL1        0.0001
     19 C          -8.9289  -16.0229   24.4498 C.3     1  UNL1        0.0018
@<TRIPOS>BOND
     1    18    19    1
     2    19    17    1
     3    11    17    1
     4    11     1    1
     5     1     2    2
     6     1     3    1
     7     3     4   ar
     8     4     5   ar
     9     5     6   ar
    10     6     7    1
    11     6     8   ar
    12     8     9    1
    13     8    10   ar
    14    11    12    1
    15    12    13    1
    16    13    14    1
    17    14    15    1
    18    15    11    1
    19    10     3   ar
    20    15    16    1
@<TRIPOS>MOLECULE
*****
 19 20 0 0 0
SMALL
GASTEIGER

@<TRIPOS>ATOM
      1 C         -10.4291  -18.7029   21.5803 C.2     1  UNL1        0.1855
      2 O         -10.3966  -19.7360   20.4933 O.2     1  UNL1       -0.2900
      3 C          -9.1481  -18.1201   22.0996 C.ar    1  UNL1        0.0369
      4 C          -9.1527  -16.7801   22.7735 C.ar    1  UNL1        0.0038
      5 C          -7.8718  -16.1974   23.2928 C.ar    1  UNL1        0.0123
      6 C          -6.5863  -16.9548   23.1382 C.ar    1  UNL1        0.0682
      7 CL         -5.3053  -16.3720   23.6575 Cl      1  UNL1       -0.0814
      8 C          -6.5817  -18.2949   22.4643 C.ar    1  UNL1        0.0683
      9 CL         -5.2962  -19.0523   22.3097 Cl      1  UNL1       -0.0814
     10 C          -7.8626  -18.8775   21.9450 C.ar    1  UNL1        0.0151
     11 C         -11.7424  -18.2525   22.1480 C.3     1  UNL1        0.0981
     12 C         -13.1044  -17.6896   22.4271 C.3     1  UNL1        0.0233
     13 C         -13.4386  -17.9741   23.8615 C.3     1  UNL1        0.0189
     14 C         -12.2830  -18.7129   24.4689 C.3     1  UNL1        0.0689
     15 N         -11.2347  -18.8850   23.4099 N.3     1  UNL1       -0.2938
     16 H         -11.0602  -19.8777   23.2536 H       1  UNL1        0.1235
     17 C         -11.9755  -17.7143   20.7675 C.3     1  UNL1        0.0219
     18 C         -11.5399  -15.6415   19.2628 C.3     1  UNL1        0.0001
     19 C         -12.0511  -16.2331   20.5429 C.3     1  UNL1        0.0018
@<TRIPOS>BOND
     1    18    19    1
     2    19    17    1
     3    11    17    1
     4    11     1    1
     5     1     2    2
     6     1     3    1
     7     3     4   ar
     8     4     5   ar
     9     5     6   ar
    10     6     7    1
    11     6     8   ar
    12     8     9    1
    13     8    10   ar
    14    11    12    1
    15    12    13    1
    16    13    14    1
    17    14    15    1
    18    15    11    1
    19    10     3   ar
    20    15    16    1
