@<TRIPOS>MOLECULE
*****
 16 17 0 0 0
SMALL
GASTEIGER

@<TRIPOS>ATOM
      1 C          -7.6313  -15.5191   27.5264 C.3     1  UNL1        0.0319
      2 C          -7.6113  -15.6939   26.0368 C.ar    1  UNL1       -0.0116
      3 C          -8.8561  -16.1166   25.3144 C.ar    1  UNL1       -0.0076
      4 C          -8.8361  -16.2914   23.8248 C.ar    1  UNL1       -0.0211
      5 C          -7.5713  -16.0435   23.0575 C.ar    1  UNL1       -0.0034
      6 C          -6.3265  -15.6208   23.7797 C.ar    1  UNL1        0.0108
      7 C          -6.3465  -15.4460   25.2695 C.ar    1  UNL1        0.0537
      8 CL         -5.1017  -15.0233   25.9917 Cl      1  UNL1       -0.0826
      9 C         -10.0809  -16.7141   23.1025 C.3     1  UNL1        0.0426
     10 C         -10.9756  -17.6606   23.8467 C.3     1  UNL1        0.0315
     11 C         -12.2768  -18.2612   23.4037 C.2     1  UNL1       -0.0289
     12 C         -13.0046  -18.0637   22.1071 C.2     1  UNL1       -0.0134
     13 C         -12.6111  -17.2168   20.9333 C.3     1  UNL1        0.0986
     14 N         -11.3925  -16.3583   20.7661 N.3     1  UNL1       -0.2674
     15 C         -11.2859  -15.6267   19.4610 C.3     1  UNL1        0.0899
     16 C         -10.2665  -16.1346   21.7315 C.3     1  UNL1        0.0771
@<TRIPOS>BOND
     1     1     2    1
     2     2     3   ar
     3     3     4   ar
     4     4     9    1
     5     9    10    1
     6    10    11    1
     7    11    12    2
     8    12    13    1
     9    13    14    1
    10    14    15    1
    11    14    16    1
    12     4     5   ar
    13     5     6   ar
    14     6     7   ar
    15     7     8    1
    16     7     2   ar
    17    16     9    1
@<TRIPOS>MOLECULE
*****
 16 17 0 0 0
SMALL
GASTEIGER

@<TRIPOS>ATOM
      1 C          -3.2217  -17.8814   23.1073 C.3     1  UNL1        0.0319
      2 C          -4.0111  -18.7421   22.1661 C.ar    1  UNL1       -0.0116
      3 C          -5.5088  -18.7642   22.2473 C.ar    1  UNL1       -0.0076
      4 C          -6.2983  -19.6249   21.3062 C.ar    1  UNL1       -0.0211
      5 C          -5.5902  -20.4636   20.2839 C.ar    1  UNL1       -0.0034
      6 C          -4.0926  -20.4415   20.2026 C.ar    1  UNL1        0.0108
      7 C          -3.3030  -19.5808   21.1438 C.ar    1  UNL1        0.0537
      8 CL         -1.8054  -19.5587   21.0626 Cl      1  UNL1       -0.0826
      9 C          -7.7960  -19.6470   21.3874 C.3     1  UNL1        0.0426
     10 C          -8.5209  -19.4703   20.0860 C.3     1  UNL1        0.0315
     11 C          -9.9996  -19.4458   19.8350 C.2     1  UNL1       -0.0289
     12 C         -11.1184  -19.5921   20.8232 C.2     1  UNL1       -0.0134
     13 C         -11.0351  -19.7989   22.3066 C.3     1  UNL1        0.0986
     14 N          -9.8122  -19.9105   23.1680 N.3     1  UNL1       -0.2674
     15 C         -10.0642  -20.1170   24.6321 C.3     1  UNL1        0.0899
     16 C          -8.3707  -19.8429   22.7588 C.3     1  UNL1        0.0771
@<TRIPOS>BOND
     1     1     2    1
     2     2     3   ar
     3     3     4   ar
     4     4     9    1
     5     9    10    1
     6    10    11    1
     7    11    12    2
     8    12    13    1
     9    13    14    1
    10    14    15    1
    11    14    16    1
    12     4     5   ar
    13     5     6   ar
    14     6     7   ar
    15     7     8    1
    16     7     2   ar
    17    16     9    1
@<TRIPOS>MOLECULE
*****
 16 17 0 0 0
SMALL
GASTEIGER

@<TRIPOS>ATOM
      1 C          -3.2495  -17.8704   23.0624 C.3     1  UNL1        0.0319
      2 C          -4.3118  -18.6377   22.3326 C.ar    1  UNL1       -0.0116
      3 C          -5.7576  -18.4230   22.6700 C.ar    1  UNL1       -0.0076
      4 C          -6.8199  -19.1903   21.9402 C.ar    1  UNL1       -0.0211
      5 C          -6.4366  -20.1723   20.8731 C.ar    1  UNL1       -0.0034
      6 C          -4.9909  -20.3870   20.5357 C.ar    1  UNL1        0.0108
      7 C          -3.9285  -19.6197   21.2655 C.ar    1  UNL1        0.0537
      8 CL         -2.4828  -19.8343   20.9282 Cl      1  UNL1       -0.0826
      9 C          -8.2657  -18.9756   22.2775 C.3     1  UNL1        0.0426
     10 C          -8.8899  -20.0170   23.1585 C.3     1  UNL1        0.0315
     11 C         -10.2987  -20.0879   23.6688 C.2     1  UNL1       -0.0289
     12 C         -11.4310  -19.1352   23.4242 C.2     1  UNL1       -0.0134
     13 C         -11.4345  -17.8761   22.6088 C.3     1  UNL1        0.0986
     14 N         -10.3063  -17.2589   21.8367 N.3     1  UNL1       -0.2674
     15 C         -10.6313  -15.9837   21.1168 C.3     1  UNL1        0.0899
     16 C          -8.8960  -17.7483   21.6893 C.3     1  UNL1        0.0771
@<TRIPOS>BOND
     1     1     2    1
     2     2     3   ar
     3     3     4   ar
     4     4     9    1
     5     9    10    1
     6    10    11    1
     7    11    12    2
     8    12    13    1
     9    13    14    1
    10    14    15    1
    11    14    16    1
    12     4     5   ar
    13     5     6   ar
    14     6     7   ar
    15     7     8    1
    16     7     2   ar
    17    16     9    1
@<TRIPOS>MOLECULE
*****
 16 17 0 0 0
SMALL
GASTEIGER

@<TRIPOS>ATOM
      1 C         -11.1810  -16.0026   20.3681 C.3     1  UNL1        0.0319
      2 C         -10.9646  -16.6198   21.7179 C.ar    1  UNL1       -0.0116
      3 C          -9.8126  -16.1755   22.5698 C.ar    1  UNL1       -0.0076
      4 C          -9.5961  -16.7927   23.9196 C.ar    1  UNL1       -0.0211
      5 C         -10.5316  -17.8542   24.4177 C.ar    1  UNL1       -0.0034
      6 C         -11.6836  -18.2986   23.5659 C.ar    1  UNL1        0.0108
      7 C         -11.9000  -17.6814   22.2160 C.ar    1  UNL1        0.0537
      8 CL        -13.0519  -18.1257   21.3642 Cl      1  UNL1       -0.0826
      9 C          -8.4442  -16.3484   24.7715 C.3     1  UNL1        0.0426
     10 C          -8.7169  -16.2688   26.2445 C.3     1  UNL1        0.0315
     11 C          -7.7846  -15.8636   27.3476 C.2     1  UNL1       -0.0289
     12 C          -6.3496  -15.4380   27.2501 C.2     1  UNL1       -0.0134
     13 C          -5.4923  -15.3124   26.0257 C.3     1  UNL1        0.0986
     14 N          -5.8584  -15.5815   24.5961 N.3     1  UNL1       -0.2674
     15 C          -4.7664  -15.3602   23.5920 C.3     1  UNL1        0.0899
     16 C          -7.1722  -16.0426   24.0381 C.3     1  UNL1        0.0771
@<TRIPOS>BOND
     1     1     2    1
     2     2     3   ar
     3     3     4   ar
     4     4     9    1
     5     9    10    1
     6    10    11    1
     7    11    12    2
     8    12    13    1
     9    13    14    1
    10    14    15    1
    11    14    16    1
    12     4     5   ar
    13     5     6   ar
    14     6     7   ar
    15     7     8    1
    16     7     2   ar
    17    16     9    1
@<TRIPOS>MOLECULE
*****
 16 17 0 0 0
SMALL
GASTEIGER

@<TRIPOS>ATOM
      1 C         -11.0618  -16.3116   22.0288 C.3     1  UNL1        0.0319
      2 C         -10.3266  -17.5605   22.4153 C.ar    1  UNL1       -0.0116
      3 C          -8.9272  -17.7891   21.9256 C.ar    1  UNL1       -0.0076
      4 C          -8.1920  -19.0380   22.3121 C.ar    1  UNL1       -0.0211
      5 C          -8.8559  -20.0584   23.1884 C.ar    1  UNL1       -0.0034
      6 C         -10.2552  -19.8300   23.6782 C.ar    1  UNL1        0.0108
      7 C         -10.9905  -18.5809   23.2916 C.ar    1  UNL1        0.0537
      8 CL        -12.3897  -18.3524   23.7813 Cl      1  UNL1       -0.0826
      9 C          -6.7927  -19.2666   21.8224 C.3     1  UNL1        0.0426
     10 C          -6.6307  -20.3501   20.7977 C.3     1  UNL1        0.0315
     11 C          -5.3764  -20.8161   20.1196 C.2     1  UNL1       -0.0289
     12 C          -3.9746  -20.3137   20.2988 C.2     1  UNL1       -0.0134
     13 C          -3.4805  -19.2213   21.2002 C.3     1  UNL1        0.0986
     14 N          -4.2664  -18.3614   22.1452 N.3     1  UNL1       -0.2674
     15 C          -3.4735  -17.3473   22.9150 C.3     1  UNL1        0.0899
     16 C          -5.7405  -18.3816   22.4220 C.3     1  UNL1        0.0771
@<TRIPOS>BOND
     1     1     2    1
     2     2     3   ar
     3     3     4   ar
     4     4     9    1
     5     9    10    1
     6    10    11    1
     7    11    12    2
     8    12    13    1
     9    13    14    1
    10    14    15    1
    11    14    16    1
    12     4     5   ar
    13     5     6   ar
    14     6     7   ar
    15     7     8    1
    16     7     2   ar
    17    16     9    1
@<TRIPOS>MOLECULE
*****
 16 17 0 0 0
SMALL
GASTEIGER

@<TRIPOS>ATOM
      1 C          -7.7444  -15.3456   27.4471 C.3     1  UNL1        0.0319
      2 C          -7.6383  -15.5747   25.9685 C.ar    1  UNL1       -0.0116
      3 C          -8.8594  -15.9371   25.1762 C.ar    1  UNL1       -0.0076
      4 C          -8.7533  -16.1662   23.6976 C.ar    1  UNL1       -0.0211
      5 C          -7.4262  -16.0328   23.0113 C.ar    1  UNL1       -0.0034
      6 C          -6.2051  -15.6703   23.8035 C.ar    1  UNL1        0.0108
      7 C          -6.3112  -15.4413   25.2822 C.ar    1  UNL1        0.0537
      8 CL         -5.0902  -15.0788   26.0744 Cl      1  UNL1       -0.0826
      9 C          -9.9742  -16.5287   22.9052 C.3     1  UNL1        0.0426
     10 C          -9.9538  -16.1297   21.4594 C.3     1  UNL1        0.0315
     11 C         -11.0084  -16.3457   20.4146 C.2     1  UNL1       -0.0289
     12 C         -12.3436  -17.0140   20.5577 C.2     1  UNL1       -0.0134
     13 C         -12.9542  -17.6313   21.7809 C.3     1  UNL1        0.0986
     14 N         -12.3803  -17.7329   23.1630 N.3     1  UNL1       -0.2674
     15 C         -13.2472  -18.4154   24.1791 C.3     1  UNL1        0.0899
     16 C         -11.0541  -17.2421   23.6633 C.3     1  UNL1        0.0771
@<TRIPOS>BOND
     1     1     2    1
     2     2     3   ar
     3     3     4   ar
     4     4     9    1
     5     9    10    1
     6    10    11    1
     7    11    12    2
     8    12    13    1
     9    13    14    1
    10    14    15    1
    11    14    16    1
    12     4     5   ar
    13     5     6   ar
    14     6     7   ar
    15     7     8    1
    16     7     2   ar
    17    16     9    1
@<TRIPOS>MOLECULE
*****
 16 17 0 0 0
SMALL
GASTEIGER

@<TRIPOS>ATOM
      1 C          -8.6433  -16.7759   27.5841 C.3     1  UNL1        0.0319
      2 C          -8.2609  -16.3448   26.1992 C.ar    1  UNL1       -0.0116
      3 C          -9.0785  -16.7894   25.0227 C.ar    1  UNL1       -0.0076
      4 C          -8.6962  -16.3584   23.6378 C.ar    1  UNL1       -0.0211
      5 C          -7.4962  -15.4827   23.4293 C.ar    1  UNL1       -0.0034
      6 C          -6.6786  -15.0381   24.6057 C.ar    1  UNL1        0.0108
      7 C          -7.0610  -15.4692   25.9907 C.ar    1  UNL1        0.0537
      8 CL         -6.2435  -15.0246   27.1670 Cl      1  UNL1       -0.0826
      9 C          -9.5137  -16.8029   22.4614 C.3     1  UNL1        0.0426
     10 C         -10.8356  -16.1147   22.2902 C.3     1  UNL1        0.0315
     11 C         -11.8715  -16.3305   21.2270 C.2     1  UNL1       -0.0289
     12 C         -11.8414  -17.2877   20.0726 C.2     1  UNL1       -0.0134
     13 C         -10.7681  -18.2655   19.6960 C.3     1  UNL1        0.0986
     14 N          -9.4596  -18.5276   20.3810 N.3     1  UNL1       -0.2674
     15 C          -8.5951  -19.5797   19.7522 C.3     1  UNL1        0.0899
     16 C          -8.9014  -17.8766   21.6117 C.3     1  UNL1        0.0771
@<TRIPOS>BOND
     1     1     2    1
     2     2     3   ar
     3     3     4   ar
     4     4     9    1
     5     9    10    1
     6    10    11    1
     7    11    12    2
     8    12    13    1
     9    13    14    1
    10    14    15    1
    11    14    16    1
    12     4     5   ar
    13     5     6   ar
    14     6     7   ar
    15     7     8    1
    16     7     2   ar
    17    16     9    1
@<TRIPOS>MOLECULE
*****
 16 17 0 0 0
SMALL
GASTEIGER

@<TRIPOS>ATOM
      1 C          -8.4641  -15.5314   27.1755 C.3     1  UNL1        0.0319
      2 C          -7.8261  -15.7925   25.8433 C.ar    1  UNL1       -0.0116
      3 C          -8.6245  -16.4204   24.7395 C.ar    1  UNL1       -0.0076
      4 C          -7.9865  -16.6815   23.4073 C.ar    1  UNL1       -0.0211
      5 C          -6.5501  -16.3149   23.1789 C.ar    1  UNL1       -0.0034
      6 C          -5.7516  -15.6870   24.2827 C.ar    1  UNL1        0.0108
      7 C          -6.3896  -15.4259   25.6149 C.ar    1  UNL1        0.0537
      8 CL         -5.5912  -14.7981   26.7187 Cl      1  UNL1       -0.0826
      9 C          -8.7849  -17.3093   22.3035 C.3     1  UNL1        0.0426
     10 C          -8.1289  -18.4598   21.5991 C.3     1  UNL1        0.0315
     11 C          -8.6597  -19.2888   20.4671 C.2     1  UNL1       -0.0289
     12 C          -9.9774  -19.1720   19.7602 C.2     1  UNL1       -0.0134
     13 C         -11.0899  -18.1975   20.0105 C.3     1  UNL1        0.0986
     14 N         -11.1594  -17.0990   21.0295 N.3     1  UNL1       -0.2674
     15 C         -12.4216  -16.2887   21.0279 C.3     1  UNL1        0.0899
     16 C         -10.1335  -16.7038   22.0500 C.3     1  UNL1        0.0771
@<TRIPOS>BOND
     1     1     2    1
     2     2     3   ar
     3     3     4   ar
     4     4     9    1
     5     9    10    1
     6    10    11    1
     7    11    12    2
     8    12    13    1
     9    13    14    1
    10    14    15    1
    11    14    16    1
    12     4     5   ar
    13     5     6   ar
    14     6     7   ar
    15     7     8    1
    16     7     2   ar
    17    16     9    1
@<TRIPOS>MOLECULE
*****
 16 17 0 0 0
SMALL
GASTEIGER

@<TRIPOS>ATOM
      1 C          -4.1234  -20.7681   19.8261 C.3     1  UNL1        0.0319
      2 C          -4.4988  -19.8034   20.9115 C.ar    1  UNL1       -0.0116
      3 C          -5.9361  -19.4243   21.1140 C.ar    1  UNL1       -0.0076
      4 C          -6.3115  -18.4596   22.1995 C.ar    1  UNL1       -0.0211
      5 C          -5.2498  -17.8739   23.0825 C.ar    1  UNL1       -0.0034
      6 C          -3.8126  -18.2528   22.8801 C.ar    1  UNL1        0.0108
      7 C          -3.4372  -19.2176   21.7946 C.ar    1  UNL1        0.0537
      8 CL         -2.0001  -19.5966   21.5921 Cl      1  UNL1       -0.0826
      9 C          -7.7486  -18.0805   22.4019 C.3     1  UNL1        0.0426
     10 C          -7.9926  -16.9243   23.3259 C.3     1  UNL1        0.0315
     11 C          -9.3001  -16.3097   23.7299 C.2     1  UNL1       -0.0289
     12 C         -10.6861  -16.6996   23.3097 C.2     1  UNL1       -0.0134
     13 C         -11.1073  -17.8003   22.3817 C.3     1  UNL1        0.0986
     14 N         -10.2464  -18.7830   21.6448 N.3     1  UNL1       -0.2674
     15 C         -10.9767  -19.7717   20.7852 C.3     1  UNL1        0.0899
     16 C          -8.7516  -18.9076   21.6538 C.3     1  UNL1        0.0771
@<TRIPOS>BOND
     1     1     2    1
     2     2     3   ar
     3     3     4   ar
     4     4     9    1
     5     9    10    1
     6    10    11    1
     7    11    12    2
     8    12    13    1
     9    13    14    1
    10    14    15    1
    11    14    16    1
    12     4     5   ar
    13     5     6   ar
    14     6     7   ar
    15     7     8    1
    16     7     2   ar
    17    16     9    1
