@<TRIPOS>MOLECULE
*****
 25 27 0 0 0
SMALL
GASTEIGER

@<TRIPOS>ATOM
      1 C         -10.3592  -19.3246   22.5004 C.ar    1  UNL1       -0.0001
      2 C         -10.5370  -19.6487   21.0467 C.ar    1  UNL1       -0.0003
      3 C          -9.3666  -19.5692   20.1119 C.ar    1  UNL1       -0.0031
      4 C          -8.0184  -19.1656   20.6307 C.ar    1  UNL1       -0.0071
      5 C          -7.8405  -18.8415   22.0844 C.ar    1  UNL1       -0.0071
      6 C          -9.0109  -18.9210   23.0192 C.ar    1  UNL1       -0.0031
      7 C          -6.4025  -18.4760   22.3053 C.3     1  UNL1        0.1222
      8 N          -5.6917  -18.5742   20.9881 N.3     1  UNL1       -0.1462
      9 C          -6.6904  -19.0004   19.9532 C.3     1  UNL1        0.1222
     10 S          -4.2376  -18.2953   20.7479 S.O2    1  UNL1        0.0696
     11 O          -4.4182  -18.6070   19.2918 O.2     1  UNL1       -0.1523
     12 O          -4.0569  -17.9836   22.2040 O.2     1  UNL1       -0.1523
     13 C          -2.7834  -18.0164   20.5078 C.ar    1  UNL1        0.1517
     14 C          -1.8477  -18.8571   19.6908 C.ar    1  UNL1        0.0271
     15 C          -0.4956  -18.2080   19.7206 C.ar    1  UNL1        0.0089
     16 C          -0.5959  -16.9663   20.5560 C.ar    1  UNL1        0.0368
     17 S          -2.0098  -16.8478   21.0425 S.2     1  UNL1       -0.0668
     18 C         -12.5950  -18.3491   23.3944 C.2     1  UNL1        0.0598
     19 C         -11.5295  -19.4041   23.4352 C.2     1  UNL1        0.0047
     20 O         -15.1628  -18.3499   23.7898 O.2     1  UNL1       -0.2681
     21 C         -13.7654  -18.4287   24.3292 C.2     1  UNL1        0.2679
     22 N         -13.5383  -18.5869   25.8035 N.am    1  UNL1       -0.1934
     23 O         -14.7087  -18.6664   26.7383 O.3     1  UNL1       -0.2949
     24 H         -12.6211  -18.6386   26.1575 H       1  UNL1        0.1825
     25 H         -15.5328  -18.6001   26.2310 H       1  UNL1        0.2414
@<TRIPOS>BOND
     1    20    21    2
     2    21    18    1
     3    18    19    2
     4    19     1    1
     5     1     2   ar
     6     2     3   ar
     7     3     4   ar
     8     4     5   ar
     9     5     6   ar
    10     5     7    1
    11     7     8    1
    12     8    10    1
    13    10    11    2
    14    10    12    2
    15    10    13    1
    16    13    14   ar
    17    14    15   ar
    18    15    16   ar
    19    16    17   ar
    20     8     9    1
    21    21    22   am
    22    22    23    1
    23     6     1   ar
    24    17    13   ar
    25     9     4    1
    26    22    24    1
    27    23    25    1
@<TRIPOS>MOLECULE
*****
 25 27 0 0 0
SMALL
GASTEIGER

@<TRIPOS>ATOM
      1 C          -9.5520  -17.5508   24.1629 C.ar    1  UNL1       -0.0001
      2 C          -9.0191  -16.4469   25.0273 C.ar    1  UNL1       -0.0003
      3 C          -7.5955  -15.9985   24.8785 C.ar    1  UNL1       -0.0031
      4 C          -6.7047  -16.6540   23.8652 C.ar    1  UNL1       -0.0071
      5 C          -7.2376  -17.7579   23.0007 C.ar    1  UNL1       -0.0071
      6 C          -8.6613  -18.2063   23.1496 C.ar    1  UNL1       -0.0031
      7 C          -6.1315  -18.2128   22.0954 C.3     1  UNL1        0.1222
      8 N          -4.9149  -17.3900   22.4004 N.3     1  UNL1       -0.1462
      9 C          -5.2692  -16.4266   23.4942 C.3     1  UNL1        0.1222
     10 S          -3.5786  -17.5096   21.7295 S.O2    1  UNL1        0.0696
     11 O          -3.1084  -16.2788   22.4466 O.2     1  UNL1       -0.1523
     12 O          -4.0489  -18.7403   21.0124 O.2     1  UNL1       -0.1523
     13 C          -2.2424  -17.6292   21.0585 C.ar    1  UNL1        0.1517
     14 C          -1.2104  -16.5461   20.9499 C.ar    1  UNL1        0.0271
     15 C          -0.0338  -17.1004   20.2026 C.ar    1  UNL1        0.0089
     16 C          -0.3387  -18.5259   19.8494 C.ar    1  UNL1        0.0368
     17 S          -1.7037  -18.8527   20.3784 S.2     1  UNL1       -0.0668
     18 C         -12.0058  -17.5702   23.3093 C.2     1  UNL1        0.0598
     19 C         -10.9757  -17.9992   24.3117 C.2     1  UNL1        0.0047
     20 O         -14.2564  -18.3060   22.2402 O.2     1  UNL1       -0.2681
     21 C         -13.4294  -18.0186   23.4581 C.2     1  UNL1        0.2679
     22 N         -14.0261  -18.1795   24.8249 N.am    1  UNL1       -0.1934
     23 O         -15.4498  -18.6279   24.9737 O.3     1  UNL1       -0.2949
     24 H         -13.4833  -17.9909   25.6243 H       1  UNL1        0.1825
     25 H         -15.8377  -18.7691   24.0960 H       1  UNL1        0.2414
@<TRIPOS>BOND
     1    20    21    2
     2    21    18    1
     3    18    19    2
     4    19     1    1
     5     1     2   ar
     6     2     3   ar
     7     3     4   ar
     8     4     5   ar
     9     5     6   ar
    10     5     7    1
    11     7     8    1
    12     8    10    1
    13    10    11    2
    14    10    12    2
    15    10    13    1
    16    13    14   ar
    17    14    15   ar
    18    15    16   ar
    19    16    17   ar
    20     8     9    1
    21    21    22   am
    22    22    23    1
    23     6     1   ar
    24    17    13   ar
    25     9     4    1
    26    22    24    1
    27    23    25    1
@<TRIPOS>MOLECULE
*****
 25 27 0 0 0
SMALL
GASTEIGER

@<TRIPOS>ATOM
      1 C           7.5480   -3.8239   21.2041 C.ar    1  UNL1       -0.0001
      2 C           8.4192   -5.0430   21.2736 C.ar    1  UNL1       -0.0003
      3 C           8.7067   -5.6848   22.5985 C.ar    1  UNL1       -0.0031
      4 C           8.1231   -5.1075   23.8539 C.ar    1  UNL1       -0.0071
      5 C           7.2519   -3.8884   23.7844 C.ar    1  UNL1       -0.0071
      6 C           6.9644   -3.2466   22.4595 C.ar    1  UNL1       -0.0031
      7 C           6.8201   -3.5470   25.1798 C.3     1  UNL1        0.1222
      8 N           7.4244   -4.5551   26.1117 N.3     1  UNL1       -0.1462
      9 C           8.2297   -5.5195   25.2923 C.3     1  UNL1        0.1222
     10 S           7.2535   -4.5924   27.6015 S.O2    1  UNL1        0.0696
     11 O           7.2387   -3.0928   27.6373 O.2     1  UNL1       -0.1523
     12 O           7.2682   -6.0918   27.5657 O.2     1  UNL1       -0.1523
     13 C           7.0826   -4.6297   29.0912 C.ar    1  UNL1        0.1517
     14 C           6.6851   -3.4749   29.9622 C.ar    1  UNL1        0.0271
     15 C           6.6360   -3.9598   31.3809 C.ar    1  UNL1        0.0089
     16 C           7.0030   -5.4142   31.3866 C.ar    1  UNL1        0.0368
     17 S           7.2790   -5.8281   29.9715 S.2     1  UNL1       -0.0668
     18 C           5.8419   -2.9540   19.4484 C.2     1  UNL1        0.0598
     19 C           7.2604   -3.1821   19.8791 C.2     1  UNL1        0.0047
     20 O           6.6849   -1.8487   17.2535 O.2     1  UNL1       -0.2681
     21 C           5.5543   -2.3122   18.1235 C.2     1  UNL1        0.2679
     22 N           4.1361   -2.1339   17.6685 N.am    1  UNL1       -0.1934
     23 O           3.8486   -1.4921   16.3436 O.3     1  UNL1       -0.2949
     24 H           3.3940   -2.4382   18.2395 H       1  UNL1        0.1825
     25 H           4.6838   -1.2534   15.9119 H       1  UNL1        0.2414
@<TRIPOS>BOND
     1    20    21    2
     2    21    18    1
     3    18    19    2
     4    19     1    1
     5     1     2   ar
     6     2     3   ar
     7     3     4   ar
     8     4     5   ar
     9     5     6   ar
    10     5     7    1
    11     7     8    1
    12     8    10    1
    13    10    11    2
    14    10    12    2
    15    10    13    1
    16    13    14   ar
    17    14    15   ar
    18    15    16   ar
    19    16    17   ar
    20     8     9    1
    21    21    22   am
    22    22    23    1
    23     6     1   ar
    24    17    13   ar
    25     9     4    1
    26    22    24    1
    27    23    25    1
@<TRIPOS>MOLECULE
*****
 25 27 0 0 0
SMALL
GASTEIGER

@<TRIPOS>ATOM
      1 C           8.3234   -6.8038   26.3714 C.ar    1  UNL1       -0.0001
      2 C           9.1691   -7.6856   25.5013 C.ar    1  UNL1       -0.0003
      3 C           9.2497   -7.4280   24.0258 C.ar    1  UNL1       -0.0031
      4 C           8.4846   -6.2887   23.4204 C.ar    1  UNL1       -0.0071
      5 C           7.6389   -5.4069   24.2905 C.ar    1  UNL1       -0.0071
      6 C           7.5583   -5.6645   25.7660 C.ar    1  UNL1       -0.0031
      7 C           7.0017   -4.3674   23.4167 C.3     1  UNL1        0.1222
      8 N           7.4536   -4.6067   22.0066 N.3     1  UNL1       -0.1462
      9 C           8.3701   -5.7942   22.0089 C.3     1  UNL1        0.1222
     10 S           7.0584   -3.8002   20.8052 S.O2    1  UNL1        0.0696
     11 O           5.6431   -4.2751   20.9519 O.2     1  UNL1       -0.1523
     12 O           8.4737   -3.3254   20.6585 O.2     1  UNL1       -0.1523
     13 C           6.6633   -2.9937   19.6037 C.ar    1  UNL1        0.1517
     14 C           5.4224   -3.1848   18.7829 C.ar    1  UNL1        0.0271
     15 C           5.4319   -2.1637   17.6841 C.ar    1  UNL1        0.0089
     16 C           6.6786   -1.3417   17.8258 C.ar    1  UNL1        0.0368
     17 S           7.4396   -1.8548   19.0123 S.2     1  UNL1       -0.0668
     18 C           7.9991   -5.9244   28.7945 C.2     1  UNL1        0.0598
     19 C           8.2427   -7.0613   27.8469 C.2     1  UNL1        0.0047
     20 O           9.0249   -6.9194   30.9642 O.2     1  UNL1       -0.2681
     21 C           7.9185   -6.1819   30.2700 C.2     1  UNL1        0.2679
     22 N           6.7313   -5.7019   31.0514 N.am    1  UNL1       -0.1934
     23 O           6.6507   -5.9595   32.5269 O.3     1  UNL1       -0.2949
     24 H           6.0052   -5.2179   30.5957 H       1  UNL1        0.1825
     25 H           7.4407   -6.4435   32.8143 H       1  UNL1        0.2414
@<TRIPOS>BOND
     1    20    21    2
     2    21    18    1
     3    18    19    2
     4    19     1    1
     5     1     2   ar
     6     2     3   ar
     7     3     4   ar
     8     4     5   ar
     9     5     6   ar
    10     5     7    1
    11     7     8    1
    12     8    10    1
    13    10    11    2
    14    10    12    2
    15    10    13    1
    16    13    14   ar
    17    14    15   ar
    18    15    16   ar
    19    16    17   ar
    20     8     9    1
    21    21    22   am
    22    22    23    1
    23     6     1   ar
    24    17    13   ar
    25     9     4    1
    26    22    24    1
    27    23    25    1
@<TRIPOS>MOLECULE
*****
 25 27 0 0 0
SMALL
GASTEIGER

@<TRIPOS>ATOM
      1 C           7.6145   -5.1225   25.7037 C.ar    1  UNL1       -0.0001
      2 C           8.4158   -5.5816   24.5218 C.ar    1  UNL1       -0.0003
      3 C           8.0482   -5.1217   23.1421 C.ar    1  UNL1       -0.0031
      4 C           6.8793   -4.2029   22.9444 C.ar    1  UNL1       -0.0071
      5 C           6.0779   -3.7438   24.1263 C.ar    1  UNL1       -0.0071
      6 C           6.4455   -4.2036   25.5060 C.ar    1  UNL1       -0.0031
      7 C           4.9865   -2.8448   23.6255 C.3     1  UNL1        0.1222
      8 N           5.1134   -2.7484   22.1340 N.3     1  UNL1       -0.1462
      9 C           6.2832   -3.5877   21.7131 C.3     1  UNL1        0.1222
     10 S           4.2262   -1.9524   21.2233 S.O2    1  UNL1        0.0696
     11 O           5.0993   -2.3126   20.0579 O.2     1  UNL1       -0.1523
     12 O           3.3532   -1.5921   22.3886 O.2     1  UNL1       -0.1523
     13 C           3.3391   -1.1564   20.3126 C.ar    1  UNL1        0.1517
     14 C           1.8984   -0.8191   20.5588 C.ar    1  UNL1        0.0271
     15 C           1.4057   -0.0121   19.3942 C.ar    1  UNL1        0.0089
     16 C           2.5420    0.1492   18.4283 C.ar    1  UNL1        0.0368
     17 S           3.7368   -0.5580   18.9960 S.2     1  UNL1       -0.0668
     18 C           6.9801   -5.4917   28.1960 C.2     1  UNL1        0.0598
     19 C           7.9820   -5.5823   27.0834 C.2     1  UNL1        0.0047
     20 O           8.6210   -6.7125   29.7982 O.2     1  UNL1       -0.2681
     21 C           7.3477   -5.9515   29.5756 C.2     1  UNL1        0.2679
     22 N           6.4419   -5.6502   30.7328 N.am    1  UNL1       -0.1934
     23 O           6.8095   -6.1101   32.1124 O.3     1  UNL1       -0.2949
     24 H           5.6062   -5.1508   30.5867 H       1  UNL1        0.1825
     25 H           7.6558   -6.5831   32.0808 H       1  UNL1        0.2414
@<TRIPOS>BOND
     1    20    21    2
     2    21    18    1
     3    18    19    2
     4    19     1    1
     5     1     2   ar
     6     2     3   ar
     7     3     4   ar
     8     4     5   ar
     9     5     6   ar
    10     5     7    1
    11     7     8    1
    12     8    10    1
    13    10    11    2
    14    10    12    2
    15    10    13    1
    16    13    14   ar
    17    14    15   ar
    18    15    16   ar
    19    16    17   ar
    20     8     9    1
    21    21    22   am
    22    22    23    1
    23     6     1   ar
    24    17    13   ar
    25     9     4    1
    26    22    24    1
    27    23    25    1
@<TRIPOS>MOLECULE
*****
 25 27 0 0 0
SMALL
GASTEIGER

@<TRIPOS>ATOM
      1 C           4.0812   -1.8685   19.6241 C.ar    1  UNL1       -0.0001
      2 C           5.2729   -2.0388   18.7292 C.ar    1  UNL1       -0.0003
      3 C           6.4660   -2.8118   19.2078 C.ar    1  UNL1       -0.0031
      4 C           6.4674   -3.4145   20.5814 C.ar    1  UNL1       -0.0071
      5 C           5.2757   -3.2442   21.4763 C.ar    1  UNL1       -0.0071
      6 C           4.0827   -2.4712   20.9977 C.ar    1  UNL1       -0.0031
      7 C           5.5633   -3.9470   22.7700 C.3     1  UNL1        0.1222
      8 N           6.9327   -4.5516   22.6745 N.3     1  UNL1       -0.1462
      9 C           7.4915   -4.2225   21.3219 C.3     1  UNL1        0.1222
     10 S           7.6224   -5.3459   23.7439 S.O2    1  UNL1        0.0696
     11 O           6.9212   -4.5384   24.7958 O.2     1  UNL1       -0.1523
     12 O           8.3235   -6.1532   22.6920 O.2     1  UNL1       -0.1523
     13 C           8.3121   -6.1401   24.8132 C.ar    1  UNL1        0.1517
     14 C           8.6267   -7.6057   24.7583 C.ar    1  UNL1        0.0271
     15 C           9.3173   -7.9797   26.0364 C.ar    1  UNL1        0.0089
     16 C           9.4294   -6.7452   26.8810 C.ar    1  UNL1        0.0368
     17 S           8.8081   -5.6083   26.1250 S.2     1  UNL1       -0.0668
     18 C           2.1510   -0.1931   20.0900 C.2     1  UNL1        0.0598
     19 C           2.8882   -1.0955   19.1455 C.2     1  UNL1        0.0047
     20 O          -0.3022    0.5941   20.4249 O.2     1  UNL1       -0.2681
     21 C           0.9579    0.5799   19.6113 C.2     1  UNL1        0.2679
     22 N           1.0250    1.3387   18.3191 N.am    1  UNL1       -0.1934
     23 O          -0.1680    2.1117   17.8405 O.3     1  UNL1       -0.2949
     24 H           1.8521    1.3294   17.7852 H       1  UNL1        0.1825
     25 H          -0.8924    2.0162   18.4785 H       1  UNL1        0.2414
@<TRIPOS>BOND
     1    20    21    2
     2    21    18    1
     3    18    19    2
     4    19     1    1
     5     1     2   ar
     6     2     3   ar
     7     3     4   ar
     8     4     5   ar
     9     5     6   ar
    10     5     7    1
    11     7     8    1
    12     8    10    1
    13    10    11    2
    14    10    12    2
    15    10    13    1
    16    13    14   ar
    17    14    15   ar
    18    15    16   ar
    19    16    17   ar
    20     8     9    1
    21    21    22   am
    22    22    23    1
    23     6     1   ar
    24    17    13   ar
    25     9     4    1
    26    22    24    1
    27    23    25    1
@<TRIPOS>MOLECULE
*****
 25 27 0 0 0
SMALL
GASTEIGER

@<TRIPOS>ATOM
      1 C           3.7797   -1.5303   22.0331 C.ar    1  UNL1       -0.0001
      2 C           4.6803   -2.4497   22.8035 C.ar    1  UNL1       -0.0003
      3 C           4.7365   -2.3643   24.3000 C.ar    1  UNL1       -0.0031
      4 C           3.8921   -1.3595   25.0262 C.ar    1  UNL1       -0.0071
      5 C           2.9915   -0.4401   24.2558 C.ar    1  UNL1       -0.0071
      6 C           2.9353   -0.5255   22.7593 C.ar    1  UNL1       -0.0031
      7 C           2.2803    0.4427   25.2382 C.3     1  UNL1        0.1222
      8 N           2.7414    0.0688   26.6157 N.3     1  UNL1       -0.1462
      9 C           3.7376   -1.0450   26.4846 C.3     1  UNL1        0.1222
     10 S           2.2864    0.6983   27.8990 S.O2    1  UNL1        0.0696
     11 O           2.1833    2.0271   27.2107 O.2     1  UNL1       -0.1523
     12 O           2.3895   -0.6305   28.5872 O.2     1  UNL1       -0.1523
     13 C           1.8313    1.3276   29.1822 C.ar    1  UNL1        0.1517
     14 C           0.8976    2.4947   29.3092 C.ar    1  UNL1        0.0271
     15 C           0.7192    2.7888   30.7693 C.ar    1  UNL1        0.0089
     16 C           1.5427    1.8035   31.5446 C.ar    1  UNL1        0.0368
     17 S           2.2300    0.9005   30.5636 S.2     1  UNL1       -0.0668
     18 C           4.9819   -1.8340   19.7501 C.2     1  UNL1        0.0598
     19 C           3.7235   -1.6157   20.5366 C.2     1  UNL1        0.0047
     20 O           6.0772   -2.5059   17.4920 O.2     1  UNL1       -0.2681
     21 C           4.9257   -1.9194   18.2536 C.2     1  UNL1        0.2679
     22 N           3.7179   -1.4182   17.5186 N.am    1  UNL1       -0.1934
     23 O           3.6617   -1.5036   16.0221 O.3     1  UNL1       -0.2949
     24 H           2.9621   -1.0333   18.0184 H       1  UNL1        0.1825
     25 H           4.4801   -1.9049   15.6901 H       1  UNL1        0.2414
@<TRIPOS>BOND
     1    20    21    2
     2    21    18    1
     3    18    19    2
     4    19     1    1
     5     1     2   ar
     6     2     3   ar
     7     3     4   ar
     8     4     5   ar
     9     5     6   ar
    10     5     7    1
    11     7     8    1
    12     8    10    1
    13    10    11    2
    14    10    12    2
    15    10    13    1
    16    13    14   ar
    17    14    15   ar
    18    15    16   ar
    19    16    17   ar
    20     8     9    1
    21    21    22   am
    22    22    23    1
    23     6     1   ar
    24    17    13   ar
    25     9     4    1
    26    22    24    1
    27    23    25    1
@<TRIPOS>MOLECULE
*****
 25 27 0 0 0
SMALL
GASTEIGER

@<TRIPOS>ATOM
      1 C           5.1407   -0.4365   35.2491 C.ar    1  UNL1       -0.0001
      2 C           6.5156    0.1362   35.0718 C.ar    1  UNL1       -0.0003
      3 C           7.4098   -0.3826   33.9848 C.ar    1  UNL1       -0.0031
      4 C           6.9290   -1.4741   33.0753 C.ar    1  UNL1       -0.0071
      5 C           5.5541   -2.0469   33.2527 C.ar    1  UNL1       -0.0071
      6 C           4.6599   -1.5281   34.3396 C.ar    1  UNL1       -0.0031
      7 C           5.3561   -3.1082   32.2112 C.3     1  UNL1        0.1222
      8 N           6.6087   -3.1913   31.3902 N.3     1  UNL1       -0.1462
      9 C           7.5808   -2.1814   31.9243 C.3     1  UNL1        0.1222
     10 S           6.8473   -4.1211   30.2375 S.O2    1  UNL1        0.0696
     11 O           6.8243   -2.9560   29.2930 O.2     1  UNL1       -0.1523
     12 O           6.8703   -5.2861   31.1821 O.2     1  UNL1       -0.1523
     13 C           7.0860   -5.0508   29.0849 C.ar    1  UNL1        0.1517
     14 C           6.4397   -4.9643   27.7340 C.ar    1  UNL1        0.0271
     15 C           6.9671   -6.0904   26.8950 C.ar    1  UNL1        0.0089
     16 C           7.9392   -6.8727   27.7274 C.ar    1  UNL1        0.0368
     17 S           8.0127   -6.2302   29.0808 S.2     1  UNL1       -0.0668
     18 C           4.8405    0.7479   37.5420 C.2     1  UNL1        0.0598
     19 C           4.2466    0.0823   36.3361 C.2     1  UNL1        0.0047
     20 O           4.4136    2.3826   39.5156 O.2     1  UNL1       -0.2681
     21 C           3.9464    1.2667   38.6289 C.2     1  UNL1        0.2679
     22 N           2.5850    0.6694   38.8291 N.am    1  UNL1       -0.1934
     23 O           1.6909    1.1882   39.9160 O.3     1  UNL1       -0.2949
     24 H           2.2784   -0.0631   38.2471 H       1  UNL1        0.1825
     25 H           2.1418    1.9031   40.3919 H       1  UNL1        0.2414
@<TRIPOS>BOND
     1    20    21    2
     2    21    18    1
     3    18    19    2
     4    19     1    1
     5     1     2   ar
     6     2     3   ar
     7     3     4   ar
     8     4     5   ar
     9     5     6   ar
    10     5     7    1
    11     7     8    1
    12     8    10    1
    13    10    11    2
    14    10    12    2
    15    10    13    1
    16    13    14   ar
    17    14    15   ar
    18    15    16   ar
    19    16    17   ar
    20     8     9    1
    21    21    22   am
    22    22    23    1
    23     6     1   ar
    24    17    13   ar
    25     9     4    1
    26    22    24    1
    27    23    25    1
@<TRIPOS>MOLECULE
*****
 25 27 0 0 0
SMALL
GASTEIGER

@<TRIPOS>ATOM
      1 C           3.1917   -1.2602   20.2176 C.ar    1  UNL1       -0.0001
      2 C           3.4743   -0.9064   18.7876 C.ar    1  UNL1       -0.0003
      3 C           2.6702    0.1608   18.1060 C.ar    1  UNL1       -0.0031
      4 C           1.5836    0.8742   18.8545 C.ar    1  UNL1       -0.0071
      5 C           1.3011    0.5205   20.2845 C.ar    1  UNL1       -0.0071
      6 C           2.1051   -0.5468   20.9660 C.ar    1  UNL1       -0.0031
      7 C           0.1755    1.3889   20.7632 C.3     1  UNL1        0.1222
      8 N          -0.2375    2.2794   19.6290 N.3     1  UNL1       -0.1462
      9 C           0.6327    1.9613   18.4494 C.3     1  UNL1        0.1222
     10 S          -1.3291    3.3075   19.6676 S.O2    1  UNL1        0.0696
     11 O          -0.6994    4.0197   18.5073 O.2     1  UNL1       -0.1523
     12 O          -1.9588    2.5953   20.8279 O.2     1  UNL1       -0.1523
     13 C          -2.4207    4.3356   19.7063 C.ar    1  UNL1        0.1517
     14 C          -2.2574    5.7815   20.0705 C.ar    1  UNL1        0.0271
     15 C          -3.6031    6.4378   19.9768 C.ar    1  UNL1        0.0089
     16 C          -4.5978    5.3974   19.5548 C.ar    1  UNL1        0.0368
     17 S          -3.8670    4.0982   19.3876 S.2     1  UNL1       -0.0668
     18 C           4.3075   -2.2126   22.3619 C.2     1  UNL1        0.0598
     19 C           3.9958   -2.3274   20.8991 C.2     1  UNL1        0.0047
     20 O           5.6547   -4.4313   22.2503 O.2     1  UNL1       -0.2681
     21 C           5.1116   -3.2798   23.0434 C.2     1  UNL1        0.2679
     22 N           5.3726   -3.1955   24.5182 N.am    1  UNL1       -0.1934
     23 O           6.1766   -4.2627   25.1997 O.3     1  UNL1       -0.2949
     24 H           5.0161   -2.4397   25.0387 H       1  UNL1        0.1825
     25 H           6.4493   -4.9278   24.5484 H       1  UNL1        0.2414
@<TRIPOS>BOND
     1    20    21    2
     2    21    18    1
     3    18    19    2
     4    19     1    1
     5     1     2   ar
     6     2     3   ar
     7     3     4   ar
     8     4     5   ar
     9     5     6   ar
    10     5     7    1
    11     7     8    1
    12     8    10    1
    13    10    11    2
    14    10    12    2
    15    10    13    1
    16    13    14   ar
    17    14    15   ar
    18    15    16   ar
    19    16    17   ar
    20     8     9    1
    21    21    22   am
    22    22    23    1
    23     6     1   ar
    24    17    13   ar
    25     9     4    1
    26    22    24    1
    27    23    25    1
