@<TRIPOS>MOLECULE
*****
 37 40 0 0 0
SMALL
GASTEIGER

@<TRIPOS>ATOM
      1 C          -9.5731  -17.1231   24.2541 C.3     1  UNL1        0.0468
      2 C          -9.9270  -18.3114   25.9477 C.3     1  UNL1        0.0069
      3 C          -8.8976  -16.5169   23.9285 C.3     1  UNL1        0.0500
      4 C          -8.7830  -15.9890   23.1297 C.3     1  UNL1        0.1694
      5 C          -8.9860  -15.4032   21.8840 C.3     1  UNL1        0.0435
      6 C          -8.3208  -14.4485   20.9374 C.3     1  UNL1        0.0040
      7 C          -9.5021  -15.9336   22.2504 C.3     1  UNL1        0.0038
      8 C          -7.5245  -15.6559   23.9161 C.3     1  UNL1        0.0001
      9 C         -10.0319  -16.4850   22.6385 C.3     1  UNL1        0.0001
     10 C         -10.6587  -16.6687   22.2780 C.3     1  UNL1        0.0005
     11 C         -11.3446  -16.8587   21.8641 C.3     1  UNL1        0.0093
     12 C         -12.4290  -16.9426   20.8311 C.3     1  UNL1        0.0082
     13 C         -12.0483  -16.0514   19.6861 C.3     1  UNL1        0.0645
     14 C         -10.7287  -15.4167   20.0116 C.2     1  UNL1        0.1504
     15 O          -9.9761  -14.4524   19.1434 O.2     1  UNL1       -0.2961
     16 C         -10.2938  -15.9157   21.3576 C.3     1  UNL1        0.0610
     17 C         -10.9272  -17.3122   23.1117 C.3     1  UNL1        0.0276
     18 C         -12.7994  -18.4676   23.0959 C.3     1  UNL1        0.0025
     19 C         -10.4138  -17.4526   23.9157 C.3     1  UNL1        0.1141
     20 O         -11.3894  -18.8529   25.3040 O.3     1  UNL1       -0.3841
     21 H         -10.8377  -18.9616   26.0944 H       1  UNL1        0.2103
     22 C          -8.1924  -16.4928   27.1768 C.2     1  UNL1       -0.0048
     23 C          -8.3729  -17.3523   25.9608 C.2     1  UNL1       -0.0243
     24 O          -6.9108  -14.8337   23.1455 O.3     1  UNL1       -0.4516
     25 C          -5.7391  -15.3152   23.9487 C.2     1  UNL1        0.3283
     26 O          -5.6708  -15.0309   25.4199 O.2     1  UNL1       -0.2491
     27 C          -4.6357  -16.0809   23.2808 C.3     1  UNL1        0.1714
     28 S          -4.5500  -17.5695   23.4446 S.3     1  UNL1       -0.1019
     29 C          -5.1213  -18.4739   22.3931 C.ar    1  UNL1        0.0255
     30 C          -4.2155  -19.3710   21.6027 C.ar    1  UNL1        0.0061
     31 C          -4.7867  -20.2754   20.5512 C.ar    1  UNL1        0.0003
     32 C          -6.2638  -20.2827   20.2901 C.ar    1  UNL1       -0.0018
     33 C          -7.1697  -19.3856   21.0805 C.ar    1  UNL1        0.0074
     34 C          -6.5984  -18.4812   22.1320 C.ar    1  UNL1        0.0043
     35 C          -8.6468  -19.3929   20.8194 C.3     1  UNL1        0.1636
     36 O          -9.1949  -18.7250   19.5932 O.3     1  UNL1       -0.3772
     37 H          -9.0452  -17.7685   19.6517 H       1  UNL1        0.2109
@<TRIPOS>BOND
     1    22    23    2
     2    23     1    1
     3     1     2    1
     4     1     3    1
     5     3     4    1
     6     4    24    1
     7    24    25    1
     8    25    26    2
     9    25    27    1
    10    27    28    1
    11    28    29    1
    12    29    30   ar
    13    30    31   ar
    14    31    32   ar
    15    32    33   ar
    16    33    35    1
    17    35    36    1
    18    33    34   ar
    19     4     5    1
    20     5     6    1
    21     5     7    1
    22     7     8    1
    23     7     9    1
    24     9    10    1
    25    11    10    1
    26    11    12    1
    27    12    13    1
    28    13    14    1
    29    14    15    2
    30    16    14    1
    31    11    17    1
    32    17    18    1
    33    17    19    1
    34    19    20    1
    35    19     1    1
    36    34    29   ar
    37    16     5    1
    38    16    11    1
    39    36    37    1
    40    20    21    1
@<TRIPOS>MOLECULE
*****
 37 40 0 0 0
SMALL
GASTEIGER

@<TRIPOS>ATOM
      1 C          -6.1319  -18.6189   21.9616 C.3     1  UNL1        0.0468
      2 C          -4.2855  -19.6112   22.0707 C.3     1  UNL1        0.0069
      3 C          -6.5612  -17.8516   22.3575 C.3     1  UNL1        0.0500
      4 C          -7.4256  -17.4333   22.2702 C.3     1  UNL1        0.1694
      5 C          -8.7270  -17.1432   21.8720 C.3     1  UNL1        0.0435
      6 C          -9.8161  -16.1450   22.1317 C.3     1  UNL1        0.0040
      7 C          -8.2737  -17.7750   21.5939 C.3     1  UNL1        0.0038
      8 C          -6.7424  -16.5436   23.2972 C.3     1  UNL1        0.0001
      9 C          -7.7957  -18.4283   21.3110 C.3     1  UNL1        0.0001
     10 C          -8.1028  -18.8835   20.8060 C.3     1  UNL1        0.0005
     11 C          -8.4595  -19.3741   20.2492 C.3     1  UNL1        0.0093
     12 C          -9.4265  -20.0030   19.2904 C.3     1  UNL1        0.0082
     13 C         -10.6920  -19.1980   19.3137 C.3     1  UNL1        0.0645
     14 C         -10.5070  -18.0716   20.2869 C.2     1  UNL1        0.1504
     15 O         -11.5234  -17.0209   20.6229 O.2     1  UNL1       -0.2961
     16 C          -9.1272  -18.1805   20.8651 C.3     1  UNL1        0.0610
     17 C          -7.1823  -19.4614   20.7950 C.3     1  UNL1        0.0276
     18 C          -6.9700  -21.2323   19.5068 C.3     1  UNL1        0.0025
     19 C          -6.3892  -19.2857   21.3144 C.3     1  UNL1        0.1141
     20 O          -4.7918  -20.7497   20.9334 O.3     1  UNL1       -0.3841
     21 H          -4.0179  -20.5324   21.4762 H       1  UNL1        0.2103
     22 C          -3.3894  -17.1050   22.9779 C.2     1  UNL1       -0.0048
     23 C          -4.4618  -18.1412   23.1399 C.2     1  UNL1       -0.0243
     24 O          -7.6379  -15.6625   23.5582 O.3     1  UNL1       -0.4516
     25 C          -7.4685  -15.7904   25.0431 C.2     1  UNL1        0.3283
     26 O          -6.1315  -15.5289   25.6707 O.2     1  UNL1       -0.2491
     27 C          -8.6361  -16.1797   25.9004 C.3     1  UNL1        0.1714
     28 S          -8.9542  -17.6289   26.1214 S.3     1  UNL1       -0.1019
     29 C          -9.7920  -18.3734   25.1245 C.ar    1  UNL1        0.0255
     30 C          -9.2747  -19.6382   24.5060 C.ar    1  UNL1        0.0061
     31 C         -10.1126  -20.3828   23.5091 C.ar    1  UNL1        0.0003
     32 C         -11.4677  -19.8624   23.1309 C.ar    1  UNL1       -0.0018
     33 C         -11.9849  -18.5976   23.7494 C.ar    1  UNL1        0.0074
     34 C         -11.1471  -17.8531   24.7463 C.ar    1  UNL1        0.0043
     35 C         -13.3400  -18.0772   23.3711 C.3     1  UNL1        0.1636
     36 O         -14.4480  -18.0657   24.3822 O.3     1  UNL1       -0.3772
     37 H         -14.6833  -18.9777   24.6144 H       1  UNL1        0.2109
@<TRIPOS>BOND
     1    22    23    2
     2    23     1    1
     3     1     2    1
     4     1     3    1
     5     3     4    1
     6     4    24    1
     7    24    25    1
     8    25    26    2
     9    25    27    1
    10    27    28    1
    11    28    29    1
    12    29    30   ar
    13    30    31   ar
    14    31    32   ar
    15    32    33   ar
    16    33    35    1
    17    35    36    1
    18    33    34   ar
    19     4     5    1
    20     5     6    1
    21     5     7    1
    22     7     8    1
    23     7     9    1
    24     9    10    1
    25    11    10    1
    26    11    12    1
    27    12    13    1
    28    13    14    1
    29    14    15    2
    30    16    14    1
    31    11    17    1
    32    17    18    1
    33    17    19    1
    34    19    20    1
    35    19     1    1
    36    34    29   ar
    37    16     5    1
    38    16    11    1
    39    36    37    1
    40    20    21    1
@<TRIPOS>MOLECULE
*****
 37 40 0 0 0
SMALL
GASTEIGER

@<TRIPOS>ATOM
      1 C          -9.8332  -17.2165   24.1227 C.3     1  UNL1        0.0468
      2 C         -10.2651  -18.4141   25.7916 C.3     1  UNL1        0.0069
      3 C          -9.1221  -16.6442   23.8121 C.3     1  UNL1        0.0500
      4 C          -8.9725  -16.1088   23.0241 C.3     1  UNL1        0.1694
      5 C          -9.1339  -15.4890   21.7889 C.3     1  UNL1        0.0435
      6 C          -8.4093  -14.5565   20.8640 C.3     1  UNL1        0.0040
      7 C          -9.6819  -15.9956   22.1425 C.3     1  UNL1        0.0038
      8 C          -7.7018  -15.8636   23.8231 C.3     1  UNL1        0.0001
      9 C         -10.2449  -16.5228   22.5174 C.3     1  UNL1        0.0001
     10 C         -10.8789  -16.6633   22.1503 C.3     1  UNL1        0.0005
     11 C         -11.5722  -16.8057   21.7295 C.3     1  UNL1        0.0093
     12 C         -12.6532  -16.8075   20.6896 C.3     1  UNL1        0.0082
     13 C         -12.2151  -15.9184   19.5639 C.3     1  UNL1        0.0645
     14 C         -10.8632  -15.3669   19.9079 C.2     1  UNL1        0.1504
     15 O         -10.0512  -14.4314   19.0621 O.2     1  UNL1       -0.2961
     16 C         -10.4658  -15.9153   21.2464 C.3     1  UNL1        0.0610
     17 C         -11.1890  -17.3059   22.9702 C.3     1  UNL1        0.0276
     18 C         -13.1244  -18.3510   22.9230 C.3     1  UNL1        0.0025
     19 C         -10.6894  -17.4906   23.7739 C.3     1  UNL1        0.1141
     20 O         -11.7522  -18.8583   25.1304 O.3     1  UNL1       -0.3841
     21 H         -11.2125  -19.0134   25.9213 H       1  UNL1        0.2103
     22 C          -8.2721  -16.6451   26.9656 C.2     1  UNL1       -0.0048
     23 C          -8.6586  -17.5465   25.8307 C.2     1  UNL1       -0.0243
     24 O          -7.0372  -15.0637   23.0714 O.3     1  UNL1       -0.4516
     25 C          -5.9117  -15.6065   23.9012 C.2     1  UNL1        0.3283
     26 O          -5.2807  -14.7517   24.9600 O.2     1  UNL1       -0.2491
     27 C          -5.4171  -17.0039   23.6722 C.3     1  UNL1        0.1714
     28 S          -3.9481  -17.2633   23.5149 S.3     1  UNL1       -0.1019
     29 C          -3.4288  -17.8979   22.2588 C.ar    1  UNL1        0.0255
     30 C          -4.2381  -18.9499   21.5601 C.ar    1  UNL1        0.0061
     31 C          -3.7188  -19.5845   20.3040 C.ar    1  UNL1        0.0003
     32 C          -2.3902  -19.1670   19.7468 C.ar    1  UNL1       -0.0018
     33 C          -1.5809  -18.1150   20.4455 C.ar    1  UNL1        0.0074
     34 C          -2.1002  -17.4804   21.7015 C.ar    1  UNL1        0.0043
     35 C          -0.2523  -17.6976   19.8882 C.3     1  UNL1        0.1636
     36 O           1.0034  -17.9623   20.6649 O.3     1  UNL1       -0.3772
     37 H           0.9966  -17.4361   21.4797 H       1  UNL1        0.2109
@<TRIPOS>BOND
     1    22    23    2
     2    23     1    1
     3     1     2    1
     4     1     3    1
     5     3     4    1
     6     4    24    1
     7    24    25    1
     8    25    26    2
     9    25    27    1
    10    27    28    1
    11    28    29    1
    12    29    30   ar
    13    30    31   ar
    14    31    32   ar
    15    32    33   ar
    16    33    35    1
    17    35    36    1
    18    33    34   ar
    19     4     5    1
    20     5     6    1
    21     5     7    1
    22     7     8    1
    23     7     9    1
    24     9    10    1
    25    11    10    1
    26    11    12    1
    27    12    13    1
    28    13    14    1
    29    14    15    2
    30    16    14    1
    31    11    17    1
    32    17    18    1
    33    17    19    1
    34    19    20    1
    35    19     1    1
    36    34    29   ar
    37    16     5    1
    38    16    11    1
    39    36    37    1
    40    20    21    1
@<TRIPOS>MOLECULE
*****
 37 40 0 0 0
SMALL
GASTEIGER

@<TRIPOS>ATOM
      1 C           4.3349   -2.3630   22.1551 C.3     1  UNL1        0.0468
      2 C           5.6938   -3.5390   23.2397 C.3     1  UNL1        0.0069
      3 C           4.0509   -2.2499   21.2407 C.3     1  UNL1        0.0500
      4 C           3.4119   -1.6855   20.7900 C.3     1  UNL1        0.1694
      5 C           2.4299   -0.7344   20.5308 C.3     1  UNL1        0.0435
      6 C           1.6528   -0.1640   19.3815 C.3     1  UNL1        0.0040
      7 C           2.7403   -0.9071   21.2762 C.3     1  UNL1        0.0038
      8 C           3.9895   -2.4961   19.6400 C.3     1  UNL1        0.0001
      9 C           3.0686   -1.0932   22.0463 C.3     1  UNL1        0.0001
     10 C           2.8058   -0.7123   22.6314 C.3     1  UNL1        0.0005
     11 C           2.5027   -0.2813   23.2642 C.3     1  UNL1        0.0093
     12 C           1.7227    0.6777   24.1138 C.3     1  UNL1        0.0082
     13 C           0.7988    1.4464   23.2163 C.3     1  UNL1        0.0645
     14 C           1.0078    0.9624   21.8120 C.2     1  UNL1        0.1504
     15 O           0.2897    1.4591   20.5923 O.2     1  UNL1       -0.2961
     16 C           2.0609   -0.1054   21.8416 C.3     1  UNL1        0.0610
     17 C           3.4782   -1.2737   23.2749 C.3     1  UNL1        0.0276
     18 C           3.5360   -0.9140   25.4446 C.3     1  UNL1        0.0025
     19 C           4.0977   -1.9586   22.9978 C.3     1  UNL1        0.1141
     20 O           5.2373   -2.7951   24.6835 O.3     1  UNL1       -0.3841
     21 H           5.8446   -3.4772   24.3565 H       1  UNL1        0.2103
     22 C           6.9190   -3.7438   20.6512 C.2     1  UNL1       -0.0048
     23 C           5.6458   -3.8375   21.4387 C.2     1  UNL1       -0.0243
     24 O           3.3542   -2.0452   18.6204 O.3     1  UNL1       -0.4516
     25 C           4.5324   -1.6784   17.7676 C.2     1  UNL1        0.3283
     26 O           5.5971   -2.6957   17.4821 O.2     1  UNL1       -0.2491
     27 C           4.6460   -0.2946   17.2004 C.3     1  UNL1        0.1714
     28 S           5.6292    0.6767   17.7836 S.3     1  UNL1       -0.1019
     29 C           5.5958    0.9881   19.2505 C.ar    1  UNL1        0.0255
     30 C           4.6611    2.0383   19.7732 C.ar    1  UNL1        0.0061
     31 C           4.6277    2.3497   21.2401 C.ar    1  UNL1        0.0003
     32 C           5.5291    1.6108   22.1844 C.ar    1  UNL1       -0.0018
     33 C           6.4639    0.5606   21.6617 C.ar    1  UNL1        0.0074
     34 C           6.4972    0.2492   20.1947 C.ar    1  UNL1        0.0043
     35 C           7.3653   -0.1783   22.6059 C.3     1  UNL1        0.1636
     36 O           6.9744   -0.3384   24.0452 O.3     1  UNL1       -0.3772
     37 H           6.9649    0.5305   24.4763 H       1  UNL1        0.2109
@<TRIPOS>BOND
     1    22    23    2
     2    23     1    1
     3     1     2    1
     4     1     3    1
     5     3     4    1
     6     4    24    1
     7    24    25    1
     8    25    26    2
     9    25    27    1
    10    27    28    1
    11    28    29    1
    12    29    30   ar
    13    30    31   ar
    14    31    32   ar
    15    32    33   ar
    16    33    35    1
    17    35    36    1
    18    33    34   ar
    19     4     5    1
    20     5     6    1
    21     5     7    1
    22     7     8    1
    23     7     9    1
    24     9    10    1
    25    11    10    1
    26    11    12    1
    27    12    13    1
    28    13    14    1
    29    14    15    2
    30    16    14    1
    31    11    17    1
    32    17    18    1
    33    17    19    1
    34    19    20    1
    35    19     1    1
    36    34    29   ar
    37    16     5    1
    38    16    11    1
    39    36    37    1
    40    20    21    1
@<TRIPOS>MOLECULE
*****
 37 40 0 0 0
SMALL
GASTEIGER

@<TRIPOS>ATOM
      1 C           2.4137   -0.5835   21.2791 C.3     1  UNL1        0.0468
      2 C           0.9011    0.8605   21.4598 C.3     1  UNL1        0.0069
      3 C           2.8294   -1.1074   20.5845 C.3     1  UNL1        0.0500
      4 C           3.5320   -1.7673   20.5562 C.3     1  UNL1        0.1694
      5 C           4.5493   -2.6414   20.9266 C.3     1  UNL1        0.0435
      6 C           5.4908   -3.6380   20.3180 C.3     1  UNL1        0.0040
      7 C           4.1317   -2.1507   21.4431 C.3     1  UNL1        0.0038
      8 C           3.1222   -1.6738   19.0945 C.3     1  UNL1        0.0001
      9 C           3.6928   -1.6378   21.9720 C.3     1  UNL1        0.0001
     10 C           3.8704   -1.6604   22.6962 C.3     1  UNL1        0.0005
     11 C           4.0812   -1.7000   23.4911 C.3     1  UNL1        0.0093
     12 C           4.7364   -2.0534   24.7933 C.3     1  UNL1        0.0082
     13 C           5.7880   -3.0869   24.5176 C.3     1  UNL1        0.0645
     14 C           5.7827   -3.3722   23.0450 C.2     1  UNL1        0.1504
     15 O           6.6755   -4.3441   22.3320 O.2     1  UNL1       -0.2961
     16 C           4.7278   -2.5151   22.4106 C.3     1  UNL1        0.0610
     17 C           3.1064   -0.9114   22.8875 C.3     1  UNL1        0.0276
     18 C           2.7349   -0.1642   24.9232 C.3     1  UNL1        0.0025
     19 C           2.5284   -0.5023   22.2331 C.3     1  UNL1        0.1141
     20 O           1.1476    0.9594   23.1258 O.3     1  UNL1       -0.3841
     21 H           0.5891    1.3425   22.4314 H       1  UNL1        0.2103
     22 C           1.5430    1.0878   18.5782 C.2     1  UNL1       -0.0048
     23 C           1.2095    0.2402   19.7700 C.2     1  UNL1       -0.0243
     24 O           3.9035   -2.5144   18.5206 O.3     1  UNL1       -0.4516
     25 C           4.5671   -1.6305   17.5066 C.2     1  UNL1        0.3283
     26 O           3.7970   -1.1492   16.3127 O.2     1  UNL1       -0.2491
     27 C           6.0008   -1.2279   17.6863 C.3     1  UNL1        0.1714
     28 S           6.3393    0.1684   18.1176 S.3     1  UNL1       -0.1019
     29 C           6.2052    0.5615   19.5589 C.ar    1  UNL1        0.0255
     30 C           7.1003   -0.0573   20.5914 C.ar    1  UNL1        0.0061
     31 C           6.9662    0.3359   22.0328 C.ar    1  UNL1        0.0003
     32 C           5.9372    1.3478   22.4416 C.ar    1  UNL1       -0.0018
     33 C           5.0421    1.9665   21.4091 C.ar    1  UNL1        0.0074
     34 C           5.1762    1.5734   19.9677 C.ar    1  UNL1        0.0043
     35 C           4.0131    2.9784   21.8179 C.3     1  UNL1        0.1636
     36 O           3.3567    2.8793   23.1630 O.3     1  UNL1       -0.3772
     37 H           2.8168    2.0743   23.2008 H       1  UNL1        0.2109
@<TRIPOS>BOND
     1    22    23    2
     2    23     1    1
     3     1     2    1
     4     1     3    1
     5     3     4    1
     6     4    24    1
     7    24    25    1
     8    25    26    2
     9    25    27    1
    10    27    28    1
    11    28    29    1
    12    29    30   ar
    13    30    31   ar
    14    31    32   ar
    15    32    33   ar
    16    33    35    1
    17    35    36    1
    18    33    34   ar
    19     4     5    1
    20     5     6    1
    21     5     7    1
    22     7     8    1
    23     7     9    1
    24     9    10    1
    25    11    10    1
    26    11    12    1
    27    12    13    1
    28    13    14    1
    29    14    15    2
    30    16    14    1
    31    11    17    1
    32    17    18    1
    33    17    19    1
    34    19    20    1
    35    19     1    1
    36    34    29   ar
    37    16     5    1
    38    16    11    1
    39    36    37    1
    40    20    21    1
@<TRIPOS>MOLECULE
*****
 37 40 0 0 0
SMALL
GASTEIGER

@<TRIPOS>ATOM
      1 C           4.3793   -2.3863   20.1259 C.3     1  UNL1        0.0468
      2 C           5.5311   -3.6435   18.9018 C.3     1  UNL1        0.0069
      3 C           4.2154   -2.2504   21.0663 C.3     1  UNL1        0.0500
      4 C           3.6671   -1.6484   21.5830 C.3     1  UNL1        0.1694
      5 C           2.7760   -0.6430   21.9455 C.3     1  UNL1        0.0435
      6 C           2.1765   -0.0218   23.1721 C.3     1  UNL1        0.0040
      7 C           2.9836   -0.8385   21.1705 C.3     1  UNL1        0.0038
      8 C           4.3368   -2.4799   22.6661 C.3     1  UNL1        0.0001
      9 C           3.2051   -1.0484   20.3690 C.3     1  UNL1        0.0001
     10 C           2.8934   -0.6586   19.8146 C.3     1  UNL1        0.0005
     11 C           2.5387   -0.2168   19.2171 C.3     1  UNL1        0.0093
     12 C           1.7130    0.7764   18.4544 C.3     1  UNL1        0.0082
     13 C           0.9477    1.6016   19.4461 C.3     1  UNL1        0.0645
     14 C           1.3005    1.1184   20.8217 C.2     1  UNL1        0.1504
     15 O           0.7641    1.6634   22.1121 O.2     1  UNL1       -0.2961
     16 C           2.2838   -0.0055   20.6801 C.3     1  UNL1        0.0610
     17 C           3.4515   -1.2610   19.1026 C.3     1  UNL1        0.0276
     18 C           3.2630   -0.9226   16.9369 C.3     1  UNL1        0.0025
     19 C           4.0628   -1.9764   19.3125 C.3     1  UNL1        0.1141
     20 O           4.9421   -2.8876   17.5133 O.3     1  UNL1       -0.3841
     21 H           5.5475   -3.5991   17.7742 H       1  UNL1        0.2103
     22 C           7.0052   -3.8985   21.4156 C.2     1  UNL1       -0.0048
     23 C           5.6875   -3.9243   20.6995 C.2     1  UNL1       -0.0243
     24 O           3.8556   -1.9868   23.7486 O.3     1  UNL1       -0.4516
     25 C           5.1494   -1.6856   24.4451 C.2     1  UNL1        0.3283
     26 O           5.9105   -2.7865   25.1224 O.2     1  UNL1       -0.2491
     27 C           5.6822   -0.2836   24.4643 C.3     1  UNL1        0.1714
     28 S           6.8101    0.1027   23.5540 S.3     1  UNL1       -0.1019
     29 C           6.5247    0.5221   22.1424 C.ar    1  UNL1        0.0255
     30 C           5.5914    1.6653   21.8739 C.ar    1  UNL1        0.0061
     31 C           5.3059    2.0848   20.4623 C.ar    1  UNL1        0.0003
     32 C           5.9537    1.3610   19.3192 C.ar    1  UNL1       -0.0018
     33 C           6.8870    0.2179   19.5877 C.ar    1  UNL1        0.0074
     34 C           7.1725   -0.2016   20.9993 C.ar    1  UNL1        0.0043
     35 C           7.5348   -0.5059   18.4447 C.3     1  UNL1        0.1636
     36 O           6.7758   -0.7261   17.1698 O.3     1  UNL1       -0.3772
     37 H           6.0290   -1.3222   17.3369 H       1  UNL1        0.2109
@<TRIPOS>BOND
     1    22    23    2
     2    23     1    1
     3     1     2    1
     4     1     3    1
     5     3     4    1
     6     4    24    1
     7    24    25    1
     8    25    26    2
     9    25    27    1
    10    27    28    1
    11    28    29    1
    12    29    30   ar
    13    30    31   ar
    14    31    32   ar
    15    32    33   ar
    16    33    35    1
    17    35    36    1
    18    33    34   ar
    19     4     5    1
    20     5     6    1
    21     5     7    1
    22     7     8    1
    23     7     9    1
    24     9    10    1
    25    11    10    1
    26    11    12    1
    27    12    13    1
    28    13    14    1
    29    14    15    2
    30    16    14    1
    31    11    17    1
    32    17    18    1
    33    17    19    1
    34    19    20    1
    35    19     1    1
    36    34    29   ar
    37    16     5    1
    38    16    11    1
    39    36    37    1
    40    20    21    1
@<TRIPOS>MOLECULE
*****
 37 40 0 0 0
SMALL
GASTEIGER

@<TRIPOS>ATOM
      1 C           2.4064   -0.2609   22.8691 C.3     1  UNL1        0.0468
      2 C           1.4692    1.0214   24.2414 C.3     1  UNL1        0.0069
      3 C           2.3658   -0.4602   21.9266 C.3     1  UNL1        0.0500
      4 C           2.8269   -1.0690   21.3379 C.3     1  UNL1        0.1694
      5 C           3.6847   -2.0482   20.8464 C.3     1  UNL1        0.0435
      6 C           4.0386   -2.7286   19.5572 C.3     1  UNL1        0.0040
      7 C           3.6417   -1.8050   21.6343 C.3     1  UNL1        0.0038
      8 C           1.8745   -0.3630   20.3853 C.3     1  UNL1        0.0001
      9 C           3.5900   -1.5460   22.4502 C.3     1  UNL1        0.0001
     10 C           4.0447   -1.8735   22.9427 C.3     1  UNL1        0.0005
     11 C           4.5546   -2.2469   23.4705 C.3     1  UNL1        0.0093
     12 C           5.5989   -3.1301   24.0864 C.3     1  UNL1        0.0082
     13 C           6.1811   -3.9860   23.0007 C.3     1  UNL1        0.0645
     14 C           5.4966   -3.6317   21.7139 C.2     1  UNL1        0.1504
     15 O           5.7694   -4.2447   20.3723 O.2     1  UNL1       -0.2961
     16 C           4.4913   -2.5569   22.0042 C.3     1  UNL1        0.0610
     17 C           3.6176   -1.2496   23.7235 C.3     1  UNL1        0.0276
     18 C           4.3082   -1.4074   25.8064 C.3     1  UNL1        0.0025
     19 C           2.9250   -0.5879   23.6135 C.3     1  UNL1        0.1141
     20 O           2.4059    0.4099   25.5042 O.3     1  UNL1       -0.3841
     21 H           1.7079    1.0641   25.3436 H       1  UNL1        0.2103
     22 C           0.9039    2.4559   21.7703 C.2     1  UNL1       -0.0048
     23 C           0.8960    1.1523   22.5124 C.2     1  UNL1       -0.0243
     24 O           2.1364   -0.9113   19.2551 O.3     1  UNL1       -0.4516
     25 C           2.3463    0.3615   18.4896 C.2     1  UNL1        0.3283
     26 O           1.1918    1.2864   18.2415 O.2     1  UNL1       -0.2491
     27 C           3.7105    0.7093   17.9723 C.3     1  UNL1        0.1714
     28 S           4.5254    1.7661   18.6573 S.3     1  UNL1       -0.1019
     29 C           5.1398    1.4884   19.9973 C.ar    1  UNL1        0.0255
     30 C           6.2245    0.4604   20.1265 C.ar    1  UNL1        0.0061
     31 C           6.8389    0.1828   21.4664 C.ar    1  UNL1        0.0003
     32 C           6.3685    0.9331   22.6772 C.ar    1  UNL1       -0.0018
     33 C           5.2837    1.9610   22.5480 C.ar    1  UNL1        0.0074
     34 C           4.6694    2.2387   21.2080 C.ar    1  UNL1        0.0043
     35 C           4.8133    2.7113   23.7587 C.3     1  UNL1        0.1636
     36 O           4.8062    2.0409   25.1005 O.3     1  UNL1       -0.3772
     37 H           4.1603    1.3172   25.0970 H       1  UNL1        0.2109
@<TRIPOS>BOND
     1    22    23    2
     2    23     1    1
     3     1     2    1
     4     1     3    1
     5     3     4    1
     6     4    24    1
     7    24    25    1
     8    25    26    2
     9    25    27    1
    10    27    28    1
    11    28    29    1
    12    29    30   ar
    13    30    31   ar
    14    31    32   ar
    15    32    33   ar
    16    33    35    1
    17    35    36    1
    18    33    34   ar
    19     4     5    1
    20     5     6    1
    21     5     7    1
    22     7     8    1
    23     7     9    1
    24     9    10    1
    25    11    10    1
    26    11    12    1
    27    12    13    1
    28    13    14    1
    29    14    15    2
    30    16    14    1
    31    11    17    1
    32    17    18    1
    33    17    19    1
    34    19    20    1
    35    19     1    1
    36    34    29   ar
    37    16     5    1
    38    16    11    1
    39    36    37    1
    40    20    21    1
@<TRIPOS>MOLECULE
*****
 37 40 0 0 0
SMALL
GASTEIGER

@<TRIPOS>ATOM
      1 C          -9.4240  -17.2371   21.3253 C.3     1  UNL1        0.0468
      2 C         -11.3110  -16.9806   20.4425 C.3     1  UNL1        0.0069
      3 C          -8.8629  -16.7878   21.9679 C.3     1  UNL1        0.0500
      4 C          -7.9900  -16.9518   22.3435 C.3     1  UNL1        0.1694
      5 C          -6.7535  -17.5208   22.6321 C.3     1  UNL1        0.0435
      6 C          -5.5462  -17.2805   23.4893 C.3     1  UNL1        0.0040
      7 C          -7.3052  -17.8261   22.0989 C.3     1  UNL1        0.0038
      8 C          -8.4016  -15.6646   23.0414 C.3     1  UNL1        0.0001
      9 C          -7.8842  -18.1357   21.5472 C.3     1  UNL1        0.0001
     10 C          -7.7118  -18.7667   21.1884 C.3     1  UNL1        0.0005
     11 C          -7.5029  -19.4635   20.8027 C.3     1  UNL1        0.0093
     12 C          -6.7765  -20.6873   20.3288 C.3     1  UNL1        0.0082
     13 C          -5.4548  -20.7446   21.0357 C.3     1  UNL1        0.0645
     14 C          -5.3642  -19.5562   21.9464 C.2     1  UNL1        0.1504
     15 O          -4.2104  -19.2189   22.8436 O.2     1  UNL1       -0.2961
     16 C          -6.6301  -18.7644   21.8025 C.3     1  UNL1        0.0610
     17 C          -8.6714  -18.7177   20.6805 C.3     1  UNL1        0.0276
     18 C          -9.2663  -20.2598   19.2284 C.3     1  UNL1        0.0025
     19 C          -9.3447  -18.0366   20.7920 C.3     1  UNL1        0.1141
     20 O         -11.1153  -18.3890   19.5347 O.3     1  UNL1       -0.3841
     21 H         -11.7618  -17.6808   19.6808 H       1  UNL1        0.2103
     22 C         -11.8202  -15.4759   22.7403 C.2     1  UNL1       -0.0048
     23 C         -10.8172  -15.7006   21.6478 C.2     1  UNL1       -0.0243
     24 O          -7.3952  -15.4097   23.7956 O.3     1  UNL1       -0.4516
     25 C          -7.5459  -15.6659   25.2658 C.2     1  UNL1        0.3283
     26 O          -6.4146  -15.3562   26.2008 O.2     1  UNL1       -0.2491
     27 C          -8.8278  -16.2317   25.8010 C.3     1  UNL1        0.1714
     28 S          -8.9832  -17.7148   25.9628 S.3     1  UNL1       -0.1019
     29 C          -9.8153  -18.4926   24.9867 C.ar    1  UNL1        0.0255
     30 C          -9.2815  -19.7610   24.3899 C.ar    1  UNL1        0.0061
     31 C         -10.1136  -20.5388   23.4138 C.ar    1  UNL1        0.0003
     32 C         -11.4794  -20.0482   23.0346 C.ar    1  UNL1       -0.0018
     33 C         -12.0132  -18.7798   23.6314 C.ar    1  UNL1        0.0074
     34 C         -11.1812  -18.0020   24.6075 C.ar    1  UNL1        0.0043
     35 C         -13.3791  -18.2892   23.2522 C.3     1  UNL1        0.1636
     36 O         -14.4229  -18.0847   24.3099 O.3     1  UNL1       -0.3772
     37 H         -14.6603  -18.9406   24.6997 H       1  UNL1        0.2109
@<TRIPOS>BOND
     1    22    23    2
     2    23     1    1
     3     1     2    1
     4     1     3    1
     5     3     4    1
     6     4    24    1
     7    24    25    1
     8    25    26    2
     9    25    27    1
    10    27    28    1
    11    28    29    1
    12    29    30   ar
    13    30    31   ar
    14    31    32   ar
    15    32    33   ar
    16    33    35    1
    17    35    36    1
    18    33    34   ar
    19     4     5    1
    20     5     6    1
    21     5     7    1
    22     7     8    1
    23     7     9    1
    24     9    10    1
    25    11    10    1
    26    11    12    1
    27    12    13    1
    28    13    14    1
    29    14    15    2
    30    16    14    1
    31    11    17    1
    32    17    18    1
    33    17    19    1
    34    19    20    1
    35    19     1    1
    36    34    29   ar
    37    16     5    1
    38    16    11    1
    39    36    37    1
    40    20    21    1
@<TRIPOS>MOLECULE
*****
 37 40 0 0 0
SMALL
GASTEIGER

@<TRIPOS>ATOM
      1 C          -7.6699  -18.6328   21.0444 C.3     1  UNL1        0.0468
      2 C          -7.6628  -20.2676   19.7279 C.3     1  UNL1        0.0069
      3 C          -8.2475  -17.8954   21.2733 C.3     1  UNL1        0.0500
      4 C          -8.2013  -17.1609   21.8963 C.3     1  UNL1        0.1694
      5 C          -7.7669  -16.2812   22.8831 C.3     1  UNL1        0.0435
      6 C          -8.2143  -15.0420   23.6003 C.3     1  UNL1        0.0040
      7 C          -7.3484  -16.9410   22.6158 C.3     1  UNL1        0.0038
      8 C          -9.5477  -16.9289   21.2282 C.3     1  UNL1        0.0001
      9 C          -6.9211  -17.6282   22.3320 C.3     1  UNL1        0.0001
     10 C          -6.2566  -17.7693   22.6403 C.3     1  UNL1        0.0005
     11 C          -5.5255  -17.9079   22.9929 C.3     1  UNL1        0.0093
     12 C          -4.2964  -17.8165   23.8477 C.3     1  UNL1        0.0082
     13 C          -4.4354  -16.6129   24.7321 C.3     1  UNL1        0.0645
     14 C          -5.7504  -15.9604   24.4237 C.2     1  UNL1        0.1504
     15 O          -6.2958  -14.7246   25.0758 O.2     1  UNL1       -0.2961
     16 C          -6.4241  -16.7608   23.3488 C.3     1  UNL1        0.0610
     17 C          -6.1637  -18.6397   21.9960 C.3     1  UNL1        0.0276
     18 C          -4.3844  -19.9309   22.0831 C.3     1  UNL1        0.0025
     19 C          -6.8067  -18.9411   21.3438 C.3     1  UNL1        0.1141
     20 O          -6.1506  -20.7586   20.2920 O.3     1  UNL1       -0.3841
     21 H          -6.8273  -21.0222   19.6490 H       1  UNL1        0.2103
     22 C         -10.4886  -19.8279   19.8309 C.2     1  UNL1       -0.0048
     23 C          -9.1396  -19.1958   19.6556 C.2     1  UNL1       -0.0243
     24 O          -9.9804  -15.8698   21.8091 O.3     1  UNL1       -0.4516
     25 C         -11.1903  -16.3108   21.0400 C.2     1  UNL1        0.3283
     26 O         -11.0940  -16.5477   19.5619 O.2     1  UNL1       -0.2491
     27 C         -12.4963  -16.5149   21.7487 C.3     1  UNL1        0.1714
     28 S         -12.7410  -17.7769   22.5216 S.3     1  UNL1       -0.1019
     29 C         -11.6066  -18.4524   23.2336 C.ar    1  UNL1        0.0255
     30 C         -11.1007  -19.7788   22.7492 C.ar    1  UNL1        0.0061
     31 C          -9.9663  -20.4543   23.4611 C.ar    1  UNL1        0.0003
     32 C          -9.3377  -19.8032   24.6573 C.ar    1  UNL1       -0.0018
     33 C          -9.8435  -18.4768   25.1417 C.ar    1  UNL1        0.0074
     34 C         -10.9780  -17.8013   24.4298 C.ar    1  UNL1        0.0043
     35 C          -9.2149  -17.8257   26.3380 C.3     1  UNL1        0.1636
     36 O          -8.6560  -16.4380   26.2295 O.3     1  UNL1       -0.3772
     37 H          -7.8949  -16.4420   25.6282 H       1  UNL1        0.2109
@<TRIPOS>BOND
     1    22    23    2
     2    23     1    1
     3     1     2    1
     4     1     3    1
     5     3     4    1
     6     4    24    1
     7    24    25    1
     8    25    26    2
     9    25    27    1
    10    27    28    1
    11    28    29    1
    12    29    30   ar
    13    30    31   ar
    14    31    32   ar
    15    32    33   ar
    16    33    35    1
    17    35    36    1
    18    33    34   ar
    19     4     5    1
    20     5     6    1
    21     5     7    1
    22     7     8    1
    23     7     9    1
    24     9    10    1
    25    11    10    1
    26    11    12    1
    27    12    13    1
    28    13    14    1
    29    14    15    2
    30    16    14    1
    31    11    17    1
    32    17    18    1
    33    17    19    1
    34    19    20    1
    35    19     1    1
    36    34    29   ar
    37    16     5    1
    38    16    11    1
    39    36    37    1
    40    20    21    1
