@<TRIPOS>MOLECULE
*****
 30 34 0 0 0
SMALL
GASTEIGER

@<TRIPOS>ATOM
      1 O           0.1843    6.0189   18.0999 O.2     1  UNL1       -0.2638
      2 C           0.2121    4.6181   18.6357 C.2     1  UNL1        0.3160
      3 N           1.3708    3.7184   18.3232 N.am    1  UNL1       -0.1720
      4 C           1.3986    2.3176   18.8590 C.ar    1  UNL1        0.0775
      5 C           2.5574    1.4179   18.5465 C.ar    1  UNL1        0.0167
      6 C           2.5851    0.0172   19.0823 C.ar    1  UNL1        0.0013
      7 C           1.4540   -0.4838   19.9307 C.ar    1  UNL1        0.0002
      8 C           0.2953    0.4159   20.2433 C.ar    1  UNL1        0.0051
      9 C           0.2676    1.8166   19.7074 C.ar    1  UNL1        0.0623
     10 C          -0.8912    2.7164   20.0200 C.2     1  UNL1        0.2419
     11 N          -2.1399    2.5025   20.8230 N.2     1  UNL1       -0.0301
     12 C          -2.9394    3.7710   20.7835 C.2     1  UNL1        0.3826
     13 N          -2.1848    4.7689   19.9560 N.2     1  UNL1       -0.0254
     14 C          -0.9189    4.1171   19.4841 C.2     1  UNL1        0.2907
     15 C          -4.2615    4.0012   21.4538 C.ar    1  UNL1        0.1679
     16 C          -4.3640    3.9455   22.9492 C.ar    1  UNL1        0.0711
     17 CL         -3.1445    3.6595   23.7744 Cl      1  UNL1       -0.0818
     18 C          -5.6860    4.1757   23.6194 C.ar    1  UNL1        0.0121
     19 C          -6.9055    4.4616   22.7942 C.ar    1  UNL1        0.0072
     20 C          -6.8031    4.5174   21.2988 C.ar    1  UNL1        0.0756
     21 C          -5.4811    4.2872   20.6286 C.ar    1  UNL1        0.2982
     22 N          -5.3785    4.3429   19.1331 N.pl3   1  UNL1        0.0812
     23 O          -5.4269    3.0768   18.3303 O.2     1  UNL1        0.0415
     24 O          -5.2276    5.6649   18.4404 O.co2   1  UNL1       -0.5760
     25 C           3.7439   -0.8827   18.7698 C.ar    1  UNL1        0.0000
     26 C           4.9639   -0.3278   18.0963 C.ar    1  UNL1        0.0000
     27 C           6.1227   -1.2275   17.7838 C.ar    1  UNL1        0.0000
     28 C           6.0614   -2.6822   18.1447 C.ar    1  UNL1        0.0000
     29 C           4.8414   -3.2371   18.8182 C.ar    1  UNL1        0.0000
     30 C           3.6826   -2.3373   19.1307 C.ar    1  UNL1        0.0000
@<TRIPOS>UNITY_ATOM_ATTR
22 1
charge 1
24 1
charge -1
@<TRIPOS>BOND
     1     1     2    2
     2     2     3    1
     3     3     4    2
     4     4     5   ar
     5     5     6   ar
     6     6    25    1
     7    25    26   ar
     8    26    27   ar
     9    27    28   ar
    10    28    29   ar
    11    29    30   ar
    12     6     7   ar
    13     7     8   ar
    14     8     9   ar
    15     9    10    2
    16    10    11    1
    17    11    12    2
    18    12    15    1
    19    15    16   ar
    20    16    17    1
    21    16    18   ar
    22    18    19   ar
    23    19    20   ar
    24    20    21   ar
    25    21    22    1
    26    22    23    2
    27    22    24    1
    28    12    13    1
    29    13    14    2
    30    14     2    1
    31     9     4   ar
    32    14    10    1
    33    30    25   ar
    34    21    15   ar
@<TRIPOS>MOLECULE
*****
 30 34 0 0 0
SMALL
GASTEIGER

@<TRIPOS>ATOM
      1 O           9.1741   -5.6310   21.4032 O.2     1  UNL1       -0.2638
      2 C           8.0388   -4.8282   21.9659 C.2     1  UNL1        0.3160
      3 N           7.1260   -4.0729   21.0460 N.am    1  UNL1       -0.1720
      4 C           5.9907   -3.2701   21.6087 C.ar    1  UNL1        0.0775
      5 C           5.0779   -2.5148   20.6888 C.ar    1  UNL1        0.0167
      6 C           3.9426   -1.7120   21.2515 C.ar    1  UNL1        0.0013
      7 C           3.7202   -1.6645   22.7341 C.ar    1  UNL1        0.0002
      8 C           4.6330   -2.4198   23.6541 C.ar    1  UNL1        0.0051
      9 C           5.7682   -3.2226   23.0913 C.ar    1  UNL1        0.0623
     10 C           6.6811   -3.9779   24.0113 C.2     1  UNL1        0.2419
     11 N           6.7093   -4.1184   25.5044 N.2     1  UNL1       -0.0301
     12 C           7.8620   -5.0081   25.8645 C.2     1  UNL1        0.3826
     13 N           8.5462   -5.4174   24.5939 N.2     1  UNL1       -0.0254
     14 C           7.8163   -4.7807   23.4485 C.2     1  UNL1        0.2907
     15 C           8.2606   -5.4168   27.2517 C.ar    1  UNL1        0.1679
     16 C           8.4293   -4.3778   28.3203 C.ar    1  UNL1        0.0711
     17 CL          8.1994   -2.9301   28.0018 Cl      1  UNL1       -0.0818
     18 C           8.8278   -4.7865   29.7074 C.ar    1  UNL1        0.0121
     19 C           9.0577   -6.2342   30.0259 C.ar    1  UNL1        0.0072
     20 C           8.8890   -7.2731   28.9572 C.ar    1  UNL1        0.0756
     21 C           8.4905   -6.8645   27.5701 C.ar    1  UNL1        0.2982
     22 N           8.3218   -7.9035   26.5014 N.pl3   1  UNL1        0.0812
     23 O           9.5214   -8.4287   25.7700 O.2     1  UNL1        0.0415
     24 O           6.9535   -8.4172   26.1642 O.co2   1  UNL1       -0.5760
     25 C           3.0298   -0.9566   20.3316 C.ar    1  UNL1        0.0000
     26 C           3.4992   -0.5698   18.9605 C.ar    1  UNL1        0.0000
     27 C           2.5864    0.1855   18.0405 C.ar    1  UNL1        0.0000
     28 C           1.2041    0.5540   18.4917 C.ar    1  UNL1        0.0000
     29 C           0.7347    0.1671   19.8628 C.ar    1  UNL1        0.0000
     30 C           1.6475   -0.5882   20.7827 C.ar    1  UNL1        0.0000
@<TRIPOS>UNITY_ATOM_ATTR
22 1
charge 1
24 1
charge -1
@<TRIPOS>BOND
     1     1     2    2
     2     2     3    1
     3     3     4    2
     4     4     5   ar
     5     5     6   ar
     6     6    25    1
     7    25    26   ar
     8    26    27   ar
     9    27    28   ar
    10    28    29   ar
    11    29    30   ar
    12     6     7   ar
    13     7     8   ar
    14     8     9   ar
    15     9    10    2
    16    10    11    1
    17    11    12    2
    18    12    15    1
    19    15    16   ar
    20    16    17    1
    21    16    18   ar
    22    18    19   ar
    23    19    20   ar
    24    20    21   ar
    25    21    22    1
    26    22    23    2
    27    22    24    1
    28    12    13    1
    29    13    14    2
    30    14     2    1
    31     9     4   ar
    32    14    10    1
    33    30    25   ar
    34    21    15   ar
@<TRIPOS>MOLECULE
*****
 30 34 0 0 0
SMALL
GASTEIGER

@<TRIPOS>ATOM
      1 O           0.1946    5.8056   17.9901 O.2     1  UNL1       -0.2638
      2 C           0.1942    4.4387   18.6081 C.2     1  UNL1        0.3160
      3 N           1.3071    3.4792   18.3070 N.am    1  UNL1       -0.1720
      4 C           1.3066    2.1124   18.9250 C.ar    1  UNL1        0.0775
      5 C           2.4195    1.1528   18.6239 C.ar    1  UNL1        0.0167
      6 C           2.4191   -0.2139   19.2419 C.ar    1  UNL1        0.0013
      7 C           1.3057   -0.6212   20.1609 C.ar    1  UNL1        0.0002
      8 C           0.1928    0.3384   20.4619 C.ar    1  UNL1        0.0051
      9 C           0.1933    1.7051   19.8440 C.ar    1  UNL1        0.0623
     10 C          -0.9197    2.6648   20.1450 C.2     1  UNL1        0.2419
     11 N          -2.1422    2.5456   21.0059 N.2     1  UNL1       -0.0301
     12 C          -2.8974    3.8388   20.9200 C.2     1  UNL1        0.3826
     13 N          -2.1415    4.7571   20.0061 N.2     1  UNL1       -0.0254
     14 C          -0.9192    4.0315   19.5271 C.2     1  UNL1        0.2907
     15 C          -4.1828    4.1577   21.6244 C.ar    1  UNL1        0.1679
     16 C          -5.4788    4.1286   20.8698 C.ar    1  UNL1        0.0711
     17 CL         -5.4895    3.7806   19.4108 Cl      1  UNL1       -0.0818
     18 C          -6.7641    4.4475   21.5743 C.ar    1  UNL1        0.0121
     19 C          -6.7534    4.7954   23.0333 C.ar    1  UNL1        0.0072
     20 C          -5.4574    4.8245   23.7879 C.ar    1  UNL1        0.0756
     21 C          -4.1721    4.5057   23.0835 C.ar    1  UNL1        0.2982
     22 N          -2.8760    4.5348   23.8381 N.pl3   1  UNL1        0.0812
     23 O          -2.0053    5.7551   23.7864 O.2     1  UNL1        0.0415
     24 O          -2.4507    3.3435   24.6443 O.co2   1  UNL1       -0.5760
     25 C           3.5320   -1.1736   18.9408 C.ar    1  UNL1        0.0000
     26 C           4.7308   -0.7125   18.1660 C.ar    1  UNL1        0.0000
     27 C           5.8437   -1.6720   17.8650 C.ar    1  UNL1        0.0000
     28 C           5.7579   -3.0927   18.3388 C.ar    1  UNL1        0.0000
     29 C           4.5591   -3.5538   19.1136 C.ar    1  UNL1        0.0000
     30 C           3.4461   -2.5942   19.4146 C.ar    1  UNL1        0.0000
@<TRIPOS>UNITY_ATOM_ATTR
22 1
charge 1
24 1
charge -1
@<TRIPOS>BOND
     1     1     2    2
     2     2     3    1
     3     3     4    2
     4     4     5   ar
     5     5     6   ar
     6     6    25    1
     7    25    26   ar
     8    26    27   ar
     9    27    28   ar
    10    28    29   ar
    11    29    30   ar
    12     6     7   ar
    13     7     8   ar
    14     8     9   ar
    15     9    10    2
    16    10    11    1
    17    11    12    2
    18    12    15    1
    19    15    16   ar
    20    16    17    1
    21    16    18   ar
    22    18    19   ar
    23    19    20   ar
    24    20    21   ar
    25    21    22    1
    26    22    23    2
    27    22    24    1
    28    12    13    1
    29    13    14    2
    30    14     2    1
    31     9     4   ar
    32    14    10    1
    33    30    25   ar
    34    21    15   ar
@<TRIPOS>MOLECULE
*****
 30 34 0 0 0
SMALL
GASTEIGER

@<TRIPOS>ATOM
      1 O           8.0912   -6.6465   30.3071 O.2     1  UNL1       -0.2638
      2 C           7.5788   -5.4867   29.5055 C.2     1  UNL1        0.3160
      3 N           7.4132   -5.6163   28.0204 N.am    1  UNL1       -0.1720
      4 C           6.9008   -4.4565   27.2188 C.ar    1  UNL1        0.0775
      5 C           6.7352   -4.5861   25.7336 C.ar    1  UNL1        0.0167
      6 C           6.2229   -3.4263   24.9322 C.ar    1  UNL1        0.0013
      7 C           5.8761   -2.1370   25.6159 C.ar    1  UNL1        0.0002
      8 C           6.0418   -2.0074   27.1010 C.ar    1  UNL1        0.0051
      9 C           6.5541   -3.1672   27.9025 C.ar    1  UNL1        0.0623
     10 C           6.7197   -3.0376   29.3877 C.2     1  UNL1        0.2419
     11 N           6.4619   -1.9002   30.3309 N.2     1  UNL1       -0.0301
     12 C           6.8150   -2.3569   31.7154 C.2     1  UNL1        0.3826
     13 N           7.2909   -3.7767   31.6278 N.2     1  UNL1       -0.0254
     14 C           7.2321   -4.1974   30.1892 C.2     1  UNL1        0.2907
     15 C           6.7104   -1.5377   32.9676 C.ar    1  UNL1        0.1679
     16 C           7.9312   -0.8766   33.5355 C.ar    1  UNL1        0.0711
     17 CL          9.2567   -1.0348   32.8512 Cl      1  UNL1       -0.0818
     18 C           7.8266   -0.0575   34.7877 C.ar    1  UNL1        0.0121
     19 C           6.5012    0.1007   35.4719 C.ar    1  UNL1        0.0072
     20 C           5.2803   -0.5604   34.9040 C.ar    1  UNL1        0.0756
     21 C           5.3850   -1.3796   33.6518 C.ar    1  UNL1        0.2982
     22 N           4.1641   -2.0407   33.0839 N.pl3   1  UNL1        0.0812
     23 O           3.6821   -3.3418   33.6537 O.2     1  UNL1        0.0415
     24 O           3.4253   -1.4006   31.9461 O.co2   1  UNL1       -0.5760
     25 C           6.0572   -3.5558   23.4469 C.ar    1  UNL1        0.0000
     26 C           7.2527   -3.8147   22.5787 C.ar    1  UNL1        0.0000
     27 C           7.0872   -3.9442   21.0936 C.ar    1  UNL1        0.0000
     28 C           5.7260   -3.8149   20.4765 C.ar    1  UNL1        0.0000
     29 C           4.5305   -3.5560   21.3447 C.ar    1  UNL1        0.0000
     30 C           4.6962   -3.4265   22.8300 C.ar    1  UNL1        0.0000
@<TRIPOS>UNITY_ATOM_ATTR
22 1
charge 1
24 1
charge -1
@<TRIPOS>BOND
     1     1     2    2
     2     2     3    1
     3     3     4    2
     4     4     5   ar
     5     5     6   ar
     6     6    25    1
     7    25    26   ar
     8    26    27   ar
     9    27    28   ar
    10    28    29   ar
    11    29    30   ar
    12     6     7   ar
    13     7     8   ar
    14     8     9   ar
    15     9    10    2
    16    10    11    1
    17    11    12    2
    18    12    15    1
    19    15    16   ar
    20    16    17    1
    21    16    18   ar
    22    18    19   ar
    23    19    20   ar
    24    20    21   ar
    25    21    22    1
    26    22    23    2
    27    22    24    1
    28    12    13    1
    29    13    14    2
    30    14     2    1
    31     9     4   ar
    32    14    10    1
    33    30    25   ar
    34    21    15   ar
@<TRIPOS>MOLECULE
*****
 30 34 0 0 0
SMALL
GASTEIGER

@<TRIPOS>ATOM
      1 O           8.4882   -6.4219   21.5904 O.2     1  UNL1       -0.2638
      2 C           7.8739   -5.3936   22.4936 C.2     1  UNL1        0.3160
      3 N           7.8854   -5.5978   23.9795 N.am    1  UNL1       -0.1720
      4 C           7.2712   -4.5695   24.8826 C.ar    1  UNL1        0.0775
      5 C           7.2827   -4.7737   26.3686 C.ar    1  UNL1        0.0167
      6 C           6.6685   -3.7455   27.2716 C.ar    1  UNL1        0.0013
      7 C           6.0428   -2.5131   26.6887 C.ar    1  UNL1        0.0002
      8 C           6.0312   -2.3090   25.2027 C.ar    1  UNL1        0.0051
      9 C           6.6455   -3.3372   24.2997 C.ar    1  UNL1        0.0623
     10 C           6.6339   -3.1331   22.8136 C.2     1  UNL1        0.2419
     11 N           6.0942   -2.0267   21.9567 N.2     1  UNL1       -0.0301
     12 C           6.3749   -2.3710   20.5240 C.2     1  UNL1        0.3826
     13 N           7.0880   -3.6903   20.4955 N.2     1  UNL1       -0.0254
     14 C           7.2482   -4.1613   21.9106 C.2     1  UNL1        0.2907
     15 C           6.0069   -1.5417   19.3295 C.ar    1  UNL1        0.1679
     16 C           7.0648   -0.7709   18.5970 C.ar    1  UNL1        0.0711
     17 CL          8.4907   -0.8294   19.0589 Cl      1  UNL1       -0.0818
     18 C           6.6968    0.0585   17.4025 C.ar    1  UNL1        0.0121
     19 C           5.2709    0.1170   16.9406 C.ar    1  UNL1        0.0072
     20 C           4.2130   -0.6538   17.6731 C.ar    1  UNL1        0.0756
     21 C           4.5810   -1.4831   18.8675 C.ar    1  UNL1        0.2982
     22 N           3.5231   -2.2540   19.6001 N.pl3   1  UNL1        0.0812
     23 O           2.6812   -1.5722   20.6376 O.2     1  UNL1        0.0415
     24 O           3.3070   -3.7067   19.2952 O.co2   1  UNL1       -0.5760
     25 C           6.6800   -3.9496   28.7577 C.ar    1  UNL1        0.0000
     26 C           6.9678   -5.3076   29.3260 C.ar    1  UNL1        0.0000
     27 C           6.9793   -5.5117   30.8120 C.ar    1  UNL1        0.0000
     28 C           6.7031   -4.3578   31.7297 C.ar    1  UNL1        0.0000
     29 C           6.4153   -2.9997   31.1614 C.ar    1  UNL1        0.0000
     30 C           6.4038   -2.7957   29.6754 C.ar    1  UNL1        0.0000
@<TRIPOS>UNITY_ATOM_ATTR
22 1
charge 1
24 1
charge -1
@<TRIPOS>BOND
     1     1     2    2
     2     2     3    1
     3     3     4    2
     4     4     5   ar
     5     5     6   ar
     6     6    25    1
     7    25    26   ar
     8    26    27   ar
     9    27    28   ar
    10    28    29   ar
    11    29    30   ar
    12     6     7   ar
    13     7     8   ar
    14     8     9   ar
    15     9    10    2
    16    10    11    1
    17    11    12    2
    18    12    15    1
    19    15    16   ar
    20    16    17    1
    21    16    18   ar
    22    18    19   ar
    23    19    20   ar
    24    20    21   ar
    25    21    22    1
    26    22    23    2
    27    22    24    1
    28    12    13    1
    29    13    14    2
    30    14     2    1
    31     9     4   ar
    32    14    10    1
    33    30    25   ar
    34    21    15   ar
@<TRIPOS>MOLECULE
*****
 30 34 0 0 0
SMALL
GASTEIGER

@<TRIPOS>ATOM
      1 O           1.2442    5.1094   23.5609 O.2     1  UNL1       -0.2638
      2 C           0.9963    3.8698   22.7535 C.2     1  UNL1        0.3160
      3 N           2.0893    2.8575   22.5787 N.am    1  UNL1       -0.1720
      4 C           1.8414    1.6179   21.7712 C.ar    1  UNL1        0.0775
      5 C           2.9344    0.6056   21.5964 C.ar    1  UNL1        0.0167
      6 C           2.6865   -0.6340   20.7890 C.ar    1  UNL1        0.0013
      7 C           1.3455   -0.8613   20.1564 C.ar    1  UNL1        0.0002
      8 C           0.2525    0.1510   20.3312 C.ar    1  UNL1        0.0051
      9 C           0.5005    1.3906   21.1386 C.ar    1  UNL1        0.0623
     10 C          -0.5926    2.4029   21.3134 C.2     1  UNL1        0.2419
     11 N          -2.0056    2.4509   20.8125 N.2     1  UNL1       -0.0301
     12 C          -2.6310    3.7201   21.3104 C.2     1  UNL1        0.3826
     13 N          -1.6045    4.4566   22.1190 N.2     1  UNL1       -0.0254
     14 C          -0.3446    3.6425   22.1208 C.2     1  UNL1        0.2907
     15 C          -4.0363    4.1734   21.0461 C.ar    1  UNL1        0.1679
     16 C          -5.1101    3.9186   22.0619 C.ar    1  UNL1        0.0711
     17 CL         -4.7787    3.2106   23.3421 Cl      1  UNL1       -0.0818
     18 C          -6.5154    4.3718   21.7975 C.ar    1  UNL1        0.0121
     19 C          -6.8468    5.0798   20.5173 C.ar    1  UNL1        0.0072
     20 C          -5.7729    5.3346   19.5015 C.ar    1  UNL1        0.0756
     21 C          -4.3677    4.8814   19.7659 C.ar    1  UNL1        0.2982
     22 N          -3.2938    5.1361   18.7500 N.pl3   1  UNL1        0.0812
     23 O          -2.4300    6.3572   18.8620 O.2     1  UNL1        0.0415
     24 O          -3.0838    4.1697   17.6222 O.co2   1  UNL1       -0.5760
     25 C           3.7795   -1.6463   20.6142 C.ar    1  UNL1        0.0000
     26 C           4.2957   -2.4051   21.8006 C.ar    1  UNL1        0.0000
     27 C           5.3887   -3.4174   21.6259 C.ar    1  UNL1        0.0000
     28 C           5.9655   -3.6710   20.2645 C.ar    1  UNL1        0.0000
     29 C           5.4492   -2.9122   19.0781 C.ar    1  UNL1        0.0000
     30 C           4.3562   -1.8999   19.2529 C.ar    1  UNL1        0.0000
@<TRIPOS>UNITY_ATOM_ATTR
22 1
charge 1
24 1
charge -1
@<TRIPOS>BOND
     1     1     2    2
     2     2     3    1
     3     3     4    2
     4     4     5   ar
     5     5     6   ar
     6     6    25    1
     7    25    26   ar
     8    26    27   ar
     9    27    28   ar
    10    28    29   ar
    11    29    30   ar
    12     6     7   ar
    13     7     8   ar
    14     8     9   ar
    15     9    10    2
    16    10    11    1
    17    11    12    2
    18    12    15    1
    19    15    16   ar
    20    16    17    1
    21    16    18   ar
    22    18    19   ar
    23    19    20   ar
    24    20    21   ar
    25    21    22    1
    26    22    23    2
    27    22    24    1
    28    12    13    1
    29    13    14    2
    30    14     2    1
    31     9     4   ar
    32    14    10    1
    33    30    25   ar
    34    21    15   ar
@<TRIPOS>MOLECULE
*****
 30 34 0 0 0
SMALL
GASTEIGER

@<TRIPOS>ATOM
      1 O         -12.2276    2.8142   17.0826 O.2     1  UNL1       -0.2638
      2 C         -12.8131    1.5548   17.6493 C.2     1  UNL1        0.3160
      3 N         -11.9994    0.2950   17.6755 N.am    1  UNL1       -0.1720
      4 C         -12.5849   -0.9644   18.2422 C.ar    1  UNL1        0.0775
      5 C         -11.7712   -2.2242   18.2685 C.ar    1  UNL1        0.0167
      6 C         -12.3567   -3.4836   18.8351 C.ar    1  UNL1        0.0013
      7 C         -13.7560   -3.4832   19.3754 C.ar    1  UNL1        0.0002
      8 C         -14.5698   -2.2234   19.3491 C.ar    1  UNL1        0.0051
      9 C         -13.9842   -0.9640   18.7825 C.ar    1  UNL1        0.0623
     10 C         -14.7980    0.2958   18.7562 C.2     1  UNL1        0.2419
     11 N         -16.1941    0.5986   19.2135 N.2     1  UNL1       -0.0301
     12 C         -16.4714    2.0451   18.9296 C.2     1  UNL1        0.3826
     13 N         -15.2467    2.6363   18.2967 N.2     1  UNL1       -0.0254
     14 C         -14.2124    1.5552   18.1896 C.2     1  UNL1        0.2907
     15 C         -17.7492    2.7727   19.2264 C.ar    1  UNL1        0.1679
     16 C         -18.7118    3.0806   18.1180 C.ar    1  UNL1        0.0711
     17 CL        -18.3967    2.6609   16.7128 Cl      1  UNL1       -0.0818
     18 C         -19.9894    3.8081   18.4148 C.ar    1  UNL1        0.0121
     19 C         -20.3045    4.2278   19.8200 C.ar    1  UNL1        0.0072
     20 C         -19.3419    3.9199   20.9284 C.ar    1  UNL1        0.0756
     21 C         -18.0642    3.1924   20.6316 C.ar    1  UNL1        0.2982
     22 N         -17.1015    2.8844   21.7400 N.pl3   1  UNL1        0.0812
     23 O         -17.2614    1.6289   22.5450 O.2     1  UNL1        0.0415
     24 O         -15.9791    3.8321   22.0433 O.co2   1  UNL1       -0.5760
     25 C         -11.5429   -4.7434   18.8614 C.ar    1  UNL1        0.0000
     26 C         -10.0623   -4.6752   19.0919 C.ar    1  UNL1        0.0000
     27 C          -9.2486   -5.9350   19.1183 C.ar    1  UNL1        0.0000
     28 C          -9.9154   -7.2631   18.9140 C.ar    1  UNL1        0.0000
     29 C         -11.3960   -7.3313   18.6835 C.ar    1  UNL1        0.0000
     30 C         -12.2098   -6.0714   18.6572 C.ar    1  UNL1        0.0000
@<TRIPOS>UNITY_ATOM_ATTR
22 1
charge 1
24 1
charge -1
@<TRIPOS>BOND
     1     1     2    2
     2     2     3    1
     3     3     4    2
     4     4     5   ar
     5     5     6   ar
     6     6    25    1
     7    25    26   ar
     8    26    27   ar
     9    27    28   ar
    10    28    29   ar
    11    29    30   ar
    12     6     7   ar
    13     7     8   ar
    14     8     9   ar
    15     9    10    2
    16    10    11    1
    17    11    12    2
    18    12    15    1
    19    15    16   ar
    20    16    17    1
    21    16    18   ar
    22    18    19   ar
    23    19    20   ar
    24    20    21   ar
    25    21    22    1
    26    22    23    2
    27    22    24    1
    28    12    13    1
    29    13    14    2
    30    14     2    1
    31     9     4   ar
    32    14    10    1
    33    30    25   ar
    34    21    15   ar
@<TRIPOS>MOLECULE
*****
 30 34 0 0 0
SMALL
GASTEIGER

@<TRIPOS>ATOM
      1 O           9.3868   -0.5637   25.0585 O.2     1  UNL1       -0.2638
      2 C           8.2463   -1.3239   24.4491 C.2     1  UNL1        0.3160
      3 N           7.3198   -0.6421   23.4864 N.am    1  UNL1       -0.1720
      4 C           6.1793   -1.4024   22.8770 C.ar    1  UNL1        0.0775
      5 C           5.2528   -0.7206   21.9143 C.ar    1  UNL1        0.0167
      6 C           4.1123   -1.4808   21.3049 C.ar    1  UNL1        0.0013
      7 C           3.8984   -2.9228   21.6582 C.ar    1  UNL1        0.0002
      8 C           4.8248   -3.6046   22.6209 C.ar    1  UNL1        0.0051
      9 C           5.9653   -2.8444   23.2302 C.ar    1  UNL1        0.0623
     10 C           6.8918   -3.5262   24.1930 C.2     1  UNL1        0.2419
     11 N           6.9306   -4.9272   24.7272 N.2     1  UNL1       -0.0301
     12 C           8.0950   -5.0329   25.6668 C.2     1  UNL1        0.3826
     13 N           8.7759   -3.6972   25.7132 N.2     1  UNL1       -0.0254
     14 C           8.0323   -2.7660   24.8023 C.2     1  UNL1        0.2907
     15 C           8.5064   -6.2592   26.4266 C.ar    1  UNL1        0.1679
     16 C           9.1244   -7.4182   25.7022 C.ar    1  UNL1        0.0711
     17 CL          9.3311   -7.3510   24.2181 Cl      1  UNL1       -0.0818
     18 C           9.5357   -8.6443   26.4620 C.ar    1  UNL1        0.0121
     19 C           9.3290   -8.7115   27.9462 C.ar    1  UNL1        0.0072
     20 C           8.7110   -7.5525   28.6706 C.ar    1  UNL1        0.0756
     21 C           8.2997   -6.3264   27.9108 C.ar    1  UNL1        0.2982
     22 N           7.6816   -5.1673   28.6351 N.pl3   1  UNL1        0.0812
     23 O           8.5559   -4.1192   29.2572 O.2     1  UNL1        0.0415
     24 O           6.1892   -5.0564   28.7374 O.co2   1  UNL1       -0.5760
     25 C           3.1858   -0.7990   20.3422 C.ar    1  UNL1        0.0000
     26 C           1.7789   -0.4801   20.7534 C.ar    1  UNL1        0.0000
     27 C           0.8524    0.2016   19.7908 C.ar    1  UNL1        0.0000
     28 C           1.3327    0.5646   18.4168 C.ar    1  UNL1        0.0000
     29 C           2.7396    0.2458   18.0056 C.ar    1  UNL1        0.0000
     30 C           3.6661   -0.4360   18.9684 C.ar    1  UNL1        0.0000
@<TRIPOS>UNITY_ATOM_ATTR
22 1
charge 1
24 1
charge -1
@<TRIPOS>BOND
     1     1     2    2
     2     2     3    1
     3     3     4    2
     4     4     5   ar
     5     5     6   ar
     6     6    25    1
     7    25    26   ar
     8    26    27   ar
     9    27    28   ar
    10    28    29   ar
    11    29    30   ar
    12     6     7   ar
    13     7     8   ar
    14     8     9   ar
    15     9    10    2
    16    10    11    1
    17    11    12    2
    18    12    15    1
    19    15    16   ar
    20    16    17    1
    21    16    18   ar
    22    18    19   ar
    23    19    20   ar
    24    20    21   ar
    25    21    22    1
    26    22    23    2
    27    22    24    1
    28    12    13    1
    29    13    14    2
    30    14     2    1
    31     9     4   ar
    32    14    10    1
    33    30    25   ar
    34    21    15   ar
@<TRIPOS>MOLECULE
*****
 30 34 0 0 0
SMALL
GASTEIGER

@<TRIPOS>ATOM
      1 O         -11.8509    2.3904   16.8753 O.2     1  UNL1       -0.2638
      2 C         -12.4045    1.1478   17.5075 C.2     1  UNL1        0.3160
      3 N         -11.6207   -0.1302   17.4617 N.am    1  UNL1       -0.1720
      4 C         -12.1743   -1.3727   18.0939 C.ar    1  UNL1        0.0775
      5 C         -11.3904   -2.6508   18.0481 C.ar    1  UNL1        0.0167
      6 C         -11.9441   -3.8932   18.6803 C.ar    1  UNL1        0.0013
      7 C         -13.2816   -3.8576   19.3584 C.ar    1  UNL1        0.0002
      8 C         -14.0654   -2.5796   19.4042 C.ar    1  UNL1        0.0051
      9 C         -13.5118   -1.3372   18.7720 C.ar    1  UNL1        0.0623
     10 C         -14.2957   -0.0590   18.8178 C.2     1  UNL1        0.2419
     11 N         -15.6316    0.2783   19.4107 N.2     1  UNL1       -0.0301
     12 C         -15.9036    1.7292   19.1449 C.2     1  UNL1        0.3826
     13 N         -14.7358    2.2886   18.3878 N.2     1  UNL1       -0.0254
     14 C         -13.7420    1.1834   18.1856 C.2     1  UNL1        0.2907
     15 C         -17.1284    2.4877   19.5629 C.ar    1  UNL1        0.1679
     16 C         -17.0634    3.4370   20.7224 C.ar    1  UNL1        0.0711
     17 CL        -15.7736    3.6280   21.4639 Cl      1  UNL1       -0.0818
     18 C         -18.2882    4.1954   21.1403 C.ar    1  UNL1        0.0121
     19 C         -19.5780    4.0044   20.3988 C.ar    1  UNL1        0.0072
     20 C         -19.6430    3.0550   19.2393 C.ar    1  UNL1        0.0756
     21 C         -18.4182    2.2967   18.8213 C.ar    1  UNL1        0.2982
     22 N         -18.4832    1.3473   17.6618 N.pl3   1  UNL1        0.0812
     23 O         -18.6566   -0.1227   17.9049 O.2     1  UNL1        0.0415
     24 O         -18.3748    1.8679   16.2592 O.co2   1  UNL1       -0.5760
     25 C         -11.1602   -5.1713   18.6345 C.ar    1  UNL1        0.0000
     26 C         -11.7218   -6.3708   17.9303 C.ar    1  UNL1        0.0000
     27 C         -10.9380   -7.6488   17.8844 C.ar    1  UNL1        0.0000
     28 C          -9.5925   -7.7275   18.5428 C.ar    1  UNL1        0.0000
     29 C          -9.0308   -6.5281   19.2470 C.ar    1  UNL1        0.0000
     30 C          -9.8147   -5.2500   19.2928 C.ar    1  UNL1        0.0000
@<TRIPOS>UNITY_ATOM_ATTR
22 1
charge 1
24 1
charge -1
@<TRIPOS>BOND
     1     1     2    2
     2     2     3    1
     3     3     4    2
     4     4     5   ar
     5     5     6   ar
     6     6    25    1
     7    25    26   ar
     8    26    27   ar
     9    27    28   ar
    10    28    29   ar
    11    29    30   ar
    12     6     7   ar
    13     7     8   ar
    14     8     9   ar
    15     9    10    2
    16    10    11    1
    17    11    12    2
    18    12    15    1
    19    15    16   ar
    20    16    17    1
    21    16    18   ar
    22    18    19   ar
    23    19    20   ar
    24    20    21   ar
    25    21    22    1
    26    22    23    2
    27    22    24    1
    28    12    13    1
    29    13    14    2
    30    14     2    1
    31     9     4   ar
    32    14    10    1
    33    30    25   ar
    34    21    15   ar
