@<TRIPOS>MOLECULE
*****
 25 27 0 0 0
SMALL
GASTEIGER

@<TRIPOS>ATOM
      1 C          -1.2047    3.4240   25.5844 C.2     1  UNL1        0.2490
      2 O          -2.2167    4.4933   25.8717 O.2     1  UNL1       -0.2699
      3 N          -0.8608    3.0784   24.1659 N.am    1  UNL1       -0.2754
      4 C           0.1512    2.0091   23.8786 C.3     1  UNL1        0.0981
      5 C           0.4951    1.6636   22.4600 C.3     1  UNL1        0.0442
      6 C          -0.1730    2.3873   21.3287 C.2     1  UNL1       -0.0326
      7 C           0.1709    2.0417   19.9102 C.2     1  UNL1        0.0412
      8 C          -1.1850    3.4566   21.6160 C.3     1  UNL1        0.0442
      9 C          -1.5289    3.8022   23.0345 C.3     1  UNL1        0.0981
     10 C          -1.1367   -0.4792   29.0138 C.3     1  UNL1        0.0310
     11 C          -0.5026    0.7487   28.4304 C.ar    1  UNL1       -0.0217
     12 C           0.7995    1.2528   28.9784 C.ar    1  UNL1       -0.0043
     13 C           1.4335    2.4807   28.3951 C.ar    1  UNL1       -0.0002
     14 C           0.7655    3.2044   27.2638 C.ar    1  UNL1        0.0045
     15 C          -0.5366    2.7003   26.7158 C.ar    1  UNL1        0.0533
     16 C          -1.1707    1.4724   27.2991 C.ar    1  UNL1        0.0003
     17 C           1.1828    0.9724   19.6230 C.1     1  UNL1       -0.0583
     18 C           2.1948   -0.0969   19.3357 C.1     1  UNL1       -0.0405
     19 C           3.2068   -1.1662   19.0485 C.ar    1  UNL1        0.1224
     20 C           4.4759   -0.8232   18.3262 C.ar    1  UNL1        0.0276
     21 C           5.4879   -1.8924   18.0390 C.ar    1  UNL1        0.0034
     22 C           5.2307   -3.3047   18.4740 C.ar    1  UNL1        0.0148
     23 C           3.9616   -3.6478   19.1962 C.ar    1  UNL1        0.0600
     24 C           3.7044   -5.0601   19.6312 C.3     1  UNL1        0.0521
     25 N           2.9496   -2.5785   19.4835 N.ar    1  UNL1       -0.2414
@<TRIPOS>BOND
     1    10    11    1
     2    11    12   ar
     3    12    13   ar
     4    13    14   ar
     5    14    15   ar
     6    15     1    1
     7     1     2    2
     8     1     3   am
     9     3     4    1
    10     4     5    1
    11     5     6    1
    12     6     7    2
    13     7    17    1
    14    17    18    3
    15    18    19    1
    16    19    20   ar
    17    20    21   ar
    18    21    22   ar
    19    22    23   ar
    20    23    24    1
    21    23    25   ar
    22     6     8    1
    23     8     9    1
    24    15    16   ar
    25    16    11   ar
    26     9     3    1
    27    25    19   ar
@<TRIPOS>MOLECULE
*****
 25 27 0 0 0
SMALL
GASTEIGER

@<TRIPOS>ATOM
      1 C          -0.8673    3.2080   25.4332 C.2     1  UNL1        0.2490
      2 O          -1.8312    4.3521   25.5416 O.2     1  UNL1       -0.2699
      3 N          -0.4686    2.6884   24.0838 N.am    1  UNL1       -0.2754
      4 C           0.4953    1.5442   23.9755 C.3     1  UNL1        0.0981
      5 C           0.8940    1.0246   22.6259 C.3     1  UNL1        0.0442
      6 C           0.3287    1.6491   21.3848 C.2     1  UNL1       -0.0326
      7 C           0.7273    1.1295   20.0354 C.2     1  UNL1        0.0412
      8 C          -0.6353    2.7932   21.4932 C.3     1  UNL1        0.0442
      9 C          -1.0339    3.3129   22.8426 C.3     1  UNL1        0.0981
     10 C          -1.0582   -0.4511   29.1176 C.3     1  UNL1        0.0310
     11 C          -0.3975    0.7539   28.5166 C.ar    1  UNL1       -0.0217
     12 C           0.8286    1.3345   29.1567 C.ar    1  UNL1       -0.0043
     13 C           1.4894    2.5395   28.5556 C.ar    1  UNL1       -0.0002
     14 C           0.9241    3.1640   27.3145 C.ar    1  UNL1        0.0045
     15 C          -0.3019    2.5835   26.6744 C.ar    1  UNL1        0.0533
     16 C          -0.9627    1.3784   27.2754 C.ar    1  UNL1        0.0003
     17 C           1.6913   -0.0147   19.9270 C.1     1  UNL1       -0.0583
     18 C           2.6552   -1.1588   19.8187 C.1     1  UNL1       -0.0405
     19 C           3.6192   -2.3029   19.7104 C.ar    1  UNL1        0.1224
     20 C           3.1668   -3.6130   19.1368 C.ar    1  UNL1        0.0276
     21 C           4.1308   -4.7571   19.0285 C.ar    1  UNL1        0.0034
     22 C           5.5471   -4.5912   19.4937 C.ar    1  UNL1        0.0148
     23 C           5.9995   -3.2811   20.0673 C.ar    1  UNL1        0.0600
     24 C           7.4158   -3.1151   20.5325 C.3     1  UNL1        0.0521
     25 N           5.0355   -2.1369   20.1756 N.ar    1  UNL1       -0.2414
@<TRIPOS>BOND
     1    10    11    1
     2    11    12   ar
     3    12    13   ar
     4    13    14   ar
     5    14    15   ar
     6    15     1    1
     7     1     2    2
     8     1     3   am
     9     3     4    1
    10     4     5    1
    11     5     6    1
    12     6     7    2
    13     7    17    1
    14    17    18    3
    15    18    19    1
    16    19    20   ar
    17    20    21   ar
    18    21    22   ar
    19    22    23   ar
    20    23    24    1
    21    23    25   ar
    22     6     8    1
    23     8     9    1
    24    15    16   ar
    25    16    11   ar
    26     9     3    1
    27    25    19   ar
@<TRIPOS>MOLECULE
*****
 25 27 0 0 0
SMALL
GASTEIGER

@<TRIPOS>ATOM
      1 C         -15.8121   -8.7535   18.8315 C.2     1  UNL1        0.2490
      2 O         -14.8390   -9.8726   18.6065 O.2     1  UNL1       -0.2699
      3 N         -15.3118   -7.3539   19.0340 N.am    1  UNL1       -0.2754
      4 C         -16.2850   -6.2348   19.2589 C.3     1  UNL1        0.0981
      5 C         -15.7846   -4.8352   19.4614 C.3     1  UNL1        0.0442
      6 C         -14.3113   -4.5548   19.4389 C.2     1  UNL1       -0.0326
      7 C         -13.8111   -3.1553   19.6414 C.2     1  UNL1        0.0412
      8 C         -13.3382   -5.6740   19.2139 C.3     1  UNL1        0.0442
      9 C         -13.8384   -7.0735   19.0114 C.3     1  UNL1        0.0981
     10 C         -20.1144  -10.4116   16.4354 C.3     1  UNL1        0.0310
     11 C         -19.4366   -9.8630   17.6560 C.ar    1  UNL1       -0.0217
     12 C         -20.2322   -9.5949   18.8990 C.ar    1  UNL1       -0.0043
     13 C         -19.5544   -9.0463   20.1195 C.ar    1  UNL1       -0.0002
     14 C         -18.0811   -8.7658   20.0970 C.ar    1  UNL1        0.0045
     15 C         -17.2855   -9.0339   18.8540 C.ar    1  UNL1        0.0533
     16 C         -17.9633   -9.5825   17.6335 C.ar    1  UNL1        0.0003
     17 C         -14.7842   -2.0362   19.8663 C.1     1  UNL1       -0.0583
     18 C         -15.7573   -0.9171   20.0913 C.1     1  UNL1       -0.0405
     19 C         -16.7304    0.2020   20.3163 C.ar    1  UNL1        0.1224
     20 C         -16.3235    1.6179   20.0338 C.ar    1  UNL1        0.0276
     21 C         -17.2967    2.7370   20.2588 C.ar    1  UNL1        0.0034
     22 C         -18.6766    2.4403   20.7663 C.ar    1  UNL1        0.0148
     23 C         -19.0836    1.0244   21.0488 C.ar    1  UNL1        0.0600
     24 C         -20.4635    0.7277   21.5563 C.3     1  UNL1        0.0521
     25 N         -18.1104   -0.0947   20.8238 N.ar    1  UNL1       -0.2414
@<TRIPOS>BOND
     1    10    11    1
     2    11    12   ar
     3    12    13   ar
     4    13    14   ar
     5    14    15   ar
     6    15     1    1
     7     1     2    2
     8     1     3   am
     9     3     4    1
    10     4     5    1
    11     5     6    1
    12     6     7    2
    13     7    17    1
    14    17    18    3
    15    18    19    1
    16    19    20   ar
    17    20    21   ar
    18    21    22   ar
    19    22    23   ar
    20    23    24    1
    21    23    25   ar
    22     6     8    1
    23     8     9    1
    24    15    16   ar
    25    16    11   ar
    26     9     3    1
    27    25    19   ar
@<TRIPOS>MOLECULE
*****
 25 27 0 0 0
SMALL
GASTEIGER

@<TRIPOS>ATOM
      1 C           3.5256   -1.0520   18.1178 C.2     1  UNL1        0.2490
      2 O           3.5037   -0.9097   16.6247 O.2     1  UNL1       -0.2699
      3 N           2.6587   -0.1713   18.9680 N.am    1  UNL1       -0.2754
      4 C           2.6806   -0.3137   20.4610 C.3     1  UNL1        0.0981
      5 C           1.8137    0.5671   21.3112 C.3     1  UNL1        0.0442
      6 C           0.9249    1.5901   20.6683 C.2     1  UNL1       -0.0326
      7 C           0.0580    2.4708   21.5185 C.2     1  UNL1        0.0412
      8 C           0.9029    1.7325   19.1752 C.3     1  UNL1        0.0442
      9 C           1.7698    0.8518   18.3251 C.3     1  UNL1        0.0981
     10 C           8.1263   -2.3885   20.1296 C.3     1  UNL1        0.0310
     11 C           6.7148   -2.7433   19.7666 C.ar    1  UNL1       -0.0217
     12 C           6.1922   -4.1212   20.0465 C.ar    1  UNL1       -0.0043
     13 C           4.7807   -4.4760   19.6835 C.ar    1  UNL1       -0.0002
     14 C           3.8918   -3.4530   19.0406 C.ar    1  UNL1        0.0045
     15 C           4.4144   -2.0751   18.7607 C.ar    1  UNL1        0.0533
     16 C           5.8259   -1.7203   19.1237 C.ar    1  UNL1        0.0003
     17 C           0.0799    2.3285   23.0115 C.1     1  UNL1       -0.0583
     18 C           0.1018    2.1862   24.5046 C.1     1  UNL1       -0.0405
     19 C           0.1237    2.0439   25.9977 C.ar    1  UNL1        0.1224
     20 C           0.8408    3.0590   26.8374 C.ar    1  UNL1        0.0276
     21 C           0.8627    2.9167   28.3305 C.ar    1  UNL1        0.0034
     22 C           0.1676    1.7592   28.9838 C.ar    1  UNL1        0.0148
     23 C          -0.5496    0.7440   28.1441 C.ar    1  UNL1        0.0600
     24 C          -1.2448   -0.4135   28.7974 C.3     1  UNL1        0.0521
     25 N          -0.5715    0.8863   26.6510 N.ar    1  UNL1       -0.2414
@<TRIPOS>BOND
     1    10    11    1
     2    11    12   ar
     3    12    13   ar
     4    13    14   ar
     5    14    15   ar
     6    15     1    1
     7     1     2    2
     8     1     3   am
     9     3     4    1
    10     4     5    1
    11     5     6    1
    12     6     7    2
    13     7    17    1
    14    17    18    3
    15    18    19    1
    16    19    20   ar
    17    20    21   ar
    18    21    22   ar
    19    22    23   ar
    20    23    24    1
    21    23    25   ar
    22     6     8    1
    23     8     9    1
    24    15    16   ar
    25    16    11   ar
    26     9     3    1
    27    25    19   ar
@<TRIPOS>MOLECULE
*****
 25 27 0 0 0
SMALL
GASTEIGER

@<TRIPOS>ATOM
      1 C         -15.1754   -8.1631   18.7394 C.2     1  UNL1        0.2490
      2 O         -14.5498   -9.5162   18.9059 O.2     1  UNL1       -0.2699
      3 N         -14.3164   -6.9334   18.7488 N.am    1  UNL1       -0.2754
      4 C         -14.9420   -5.5803   18.5823 C.3     1  UNL1        0.0981
      5 C         -14.0830   -4.3506   18.5917 C.3     1  UNL1        0.0442
      6 C         -12.5985   -4.4741   18.7676 C.2     1  UNL1       -0.0326
      7 C         -11.7395   -3.2444   18.7769 C.2     1  UNL1        0.0412
      8 C         -11.9729   -5.8272   18.9340 C.3     1  UNL1        0.0442
      9 C         -12.8319   -7.0568   18.9246 C.3     1  UNL1        0.0981
     10 C         -19.9461   -7.9400   20.7864 C.3     1  UNL1        0.0310
     11 C         -19.0453   -7.9281   19.5871 C.ar    1  UNL1       -0.0217
     12 C         -19.6290   -7.7928   18.2120 C.ar    1  UNL1       -0.0043
     13 C         -18.7281   -7.7809   17.0127 C.ar    1  UNL1       -0.0002
     14 C         -17.2436   -7.9043   17.1884 C.ar    1  UNL1        0.0045
     15 C         -16.6600   -8.0396   18.5635 C.ar    1  UNL1        0.0533
     16 C         -17.5608   -8.0515   19.7629 C.ar    1  UNL1        0.0003
     17 C         -12.3651   -1.8913   18.6105 C.1     1  UNL1       -0.0583
     18 C         -12.9907   -0.5382   18.4440 C.1     1  UNL1       -0.0405
     19 C         -13.6162    0.8150   18.2776 C.ar    1  UNL1        0.1224
     20 C         -14.8760    1.1550   19.0174 C.ar    1  UNL1        0.0276
     21 C         -15.5015    2.5081   18.8509 C.ar    1  UNL1        0.0034
     22 C         -14.8674    3.5212   17.9446 C.ar    1  UNL1        0.0148
     23 C         -13.6075    3.1812   17.2048 C.ar    1  UNL1        0.0600
     24 C         -12.9734    4.1943   16.2985 C.3     1  UNL1        0.0521
     25 N         -12.9820    1.8281   17.3712 N.ar    1  UNL1       -0.2414
@<TRIPOS>BOND
     1    10    11    1
     2    11    12   ar
     3    12    13   ar
     4    13    14   ar
     5    14    15   ar
     6    15     1    1
     7     1     2    2
     8     1     3   am
     9     3     4    1
    10     4     5    1
    11     5     6    1
    12     6     7    2
    13     7    17    1
    14    17    18    3
    15    18    19    1
    16    19    20   ar
    17    20    21   ar
    18    21    22   ar
    19    22    23   ar
    20    23    24    1
    21    23    25   ar
    22     6     8    1
    23     8     9    1
    24    15    16   ar
    25    16    11   ar
    26     9     3    1
    27    25    19   ar
@<TRIPOS>MOLECULE
*****
 25 27 0 0 0
SMALL
GASTEIGER

@<TRIPOS>ATOM
      1 C           0.1744    2.1954   23.5629 C.2     1  UNL1        0.2490
      2 O          -0.7500    2.9998   22.6978 O.2     1  UNL1       -0.2699
      3 N           1.0736    1.1659   22.9452 N.am    1  UNL1       -0.2754
      4 C           1.9980    0.3615   23.8102 C.3     1  UNL1        0.0981
      5 C           2.8973   -0.6680   23.1924 C.3     1  UNL1        0.0442
      6 C           2.8721   -0.8930   21.7097 C.2     1  UNL1       -0.0326
      7 C           3.7714   -1.9224   21.0919 C.2     1  UNL1        0.0412
      8 C           1.9478   -0.0885   20.8446 C.3     1  UNL1        0.0442
      9 C           1.0485    0.9409   21.4623 C.3     1  UNL1        0.0981
     10 C          -1.1615    0.7173   28.3619 C.3     1  UNL1        0.0310
     11 C          -0.4685    1.6813   27.4452 C.ar    1  UNL1       -0.0217
     12 C           0.2497    2.8703   28.0113 C.ar    1  UNL1       -0.0043
     13 C           0.9428    3.8343   27.0946 C.ar    1  UNL1       -0.0002
     14 C           0.9177    3.6094   25.6118 C.ar    1  UNL1        0.0045
     15 C           0.1995    2.4204   25.0457 C.ar    1  UNL1        0.0533
     16 C          -0.4935    1.4564   25.9624 C.ar    1  UNL1        0.0003
     17 C           4.6958   -2.7269   21.9570 C.1     1  UNL1       -0.0583
     18 C           5.6201   -3.5313   22.8221 C.1     1  UNL1       -0.0405
     19 C           6.5445   -4.3358   23.6872 C.ar    1  UNL1        0.1224
     20 C           6.6562   -4.0311   25.1516 C.ar    1  UNL1        0.0276
     21 C           7.5806   -4.8355   26.0167 C.ar    1  UNL1        0.0034
     22 C           8.3933   -5.9447   25.4173 C.ar    1  UNL1        0.0148
     23 C           8.2816   -6.2494   23.9528 C.ar    1  UNL1        0.0600
     24 C           9.0943   -7.3585   23.3534 C.3     1  UNL1        0.0521
     25 N           7.3573   -5.4450   23.0877 N.ar    1  UNL1       -0.2414
@<TRIPOS>BOND
     1    10    11    1
     2    11    12   ar
     3    12    13   ar
     4    13    14   ar
     5    14    15   ar
     6    15     1    1
     7     1     2    2
     8     1     3   am
     9     3     4    1
    10     4     5    1
    11     5     6    1
    12     6     7    2
    13     7    17    1
    14    17    18    3
    15    18    19    1
    16    19    20   ar
    17    20    21   ar
    18    21    22   ar
    19    22    23   ar
    20    23    24    1
    21    23    25   ar
    22     6     8    1
    23     8     9    1
    24    15    16   ar
    25    16    11   ar
    26     9     3    1
    27    25    19   ar
@<TRIPOS>MOLECULE
*****
 25 27 0 0 0
SMALL
GASTEIGER

@<TRIPOS>ATOM
      1 C           3.7725   -0.6442   17.7019 C.2     1  UNL1        0.2490
      2 O           3.8739   -1.0640   16.2654 O.2     1  UNL1       -0.2699
      3 N           4.4289   -1.4659   18.7715 N.am    1  UNL1       -0.2754
      4 C           4.3275   -1.0461   20.2080 C.3     1  UNL1        0.0981
      5 C           4.9839   -1.8678   21.2776 C.3     1  UNL1        0.0442
      6 C           5.7417   -3.1092   20.9107 C.2     1  UNL1       -0.0326
      7 C           6.3980   -3.9309   21.9802 C.2     1  UNL1        0.0412
      8 C           5.8430   -3.5290   19.4742 C.3     1  UNL1        0.0442
      9 C           5.1867   -2.7074   18.4046 C.3     1  UNL1        0.0981
     10 C           3.7035    4.4525   18.7114 C.3     1  UNL1        0.0310
     11 C           2.9803    3.1456   18.5736 C.ar    1  UNL1       -0.0217
     12 C           1.4994    3.0802   18.8026 C.ar    1  UNL1       -0.0043
     13 C           0.7761    1.7733   18.6647 C.ar    1  UNL1       -0.0002
     14 C           1.5338    0.5319   18.2979 C.ar    1  UNL1        0.0045
     15 C           3.0147    0.5973   18.0688 C.ar    1  UNL1        0.0533
     16 C           3.7380    1.9042   18.2067 C.ar    1  UNL1        0.0003
     17 C           6.2967   -3.5111   23.4167 C.1     1  UNL1       -0.0583
     18 C           6.1953   -3.0914   24.8532 C.1     1  UNL1       -0.0405
     19 C           6.0940   -2.6716   26.2897 C.ar    1  UNL1        0.1224
     20 C           5.5683   -1.3106   26.6381 C.ar    1  UNL1        0.0276
     21 C           5.4670   -0.8909   28.0746 C.ar    1  UNL1        0.0034
     22 C           5.8913   -1.8320   29.1627 C.ar    1  UNL1        0.0148
     23 C           6.4169   -3.1931   28.8144 C.ar    1  UNL1        0.0600
     24 C           6.8412   -4.1343   29.9025 C.3     1  UNL1        0.0521
     25 N           6.5183   -3.6129   27.3779 N.ar    1  UNL1       -0.2414
@<TRIPOS>BOND
     1    10    11    1
     2    11    12   ar
     3    12    13   ar
     4    13    14   ar
     5    14    15   ar
     6    15     1    1
     7     1     2    2
     8     1     3   am
     9     3     4    1
    10     4     5    1
    11     5     6    1
    12     6     7    2
    13     7    17    1
    14    17    18    3
    15    18    19    1
    16    19    20   ar
    17    20    21   ar
    18    21    22   ar
    19    22    23   ar
    20    23    24    1
    21    23    25   ar
    22     6     8    1
    23     8     9    1
    24    15    16   ar
    25    16    11   ar
    26     9     3    1
    27    25    19   ar
@<TRIPOS>MOLECULE
*****
 25 27 0 0 0
SMALL
GASTEIGER

@<TRIPOS>ATOM
      1 C           4.1065    0.0012   18.8014 C.2     1  UNL1        0.2490
      2 O           4.2271    0.6971   17.4781 O.2     1  UNL1       -0.2699
      3 N           5.1511   -0.9876   19.2268 N.am    1  UNL1       -0.2754
      4 C           5.0305   -1.6835   20.5501 C.3     1  UNL1        0.0981
      5 C           6.0752   -2.6724   20.9754 C.3     1  UNL1        0.0442
      6 C           7.2404   -2.9653   20.0774 C.2     1  UNL1       -0.0326
      7 C           8.2850   -3.9542   20.5027 C.2     1  UNL1        0.0412
      8 C           7.3610   -2.2694   18.7541 C.3     1  UNL1        0.0442
      9 C           6.3164   -1.2806   18.3287 C.3     1  UNL1        0.0981
     10 C           1.9695    2.7760   22.6400 C.3     1  UNL1        0.0310
     11 C           1.8728    1.6816   21.6187 C.ar    1  UNL1       -0.0217
     12 C           0.6109    0.8802   21.4954 C.ar    1  UNL1       -0.0043
     13 C           0.5141   -0.2142   20.4741 C.ar    1  UNL1       -0.0002
     14 C           1.6793   -0.5072   19.5762 C.ar    1  UNL1        0.0045
     15 C           2.9412    0.2942   19.6994 C.ar    1  UNL1        0.0533
     16 C           3.0380    1.3886   20.7207 C.ar    1  UNL1        0.0003
     17 C           8.1644   -4.6501   21.8260 C.1     1  UNL1       -0.0583
     18 C           8.0438   -5.3460   23.1493 C.1     1  UNL1       -0.0405
     19 C           7.9232   -6.0419   24.4726 C.ar    1  UNL1        0.1224
     20 C           8.5532   -7.3885   24.6721 C.ar    1  UNL1        0.0276
     21 C           8.4326   -8.0844   25.9954 C.ar    1  UNL1        0.0034
     22 C           7.6820   -7.4337   27.1193 C.ar    1  UNL1        0.0148
     23 C           7.0520   -6.0871   26.9199 C.ar    1  UNL1        0.0600
     24 C           6.3014   -5.4365   28.0438 C.3     1  UNL1        0.0521
     25 N           7.1726   -5.3912   25.5966 N.ar    1  UNL1       -0.2414
@<TRIPOS>BOND
     1    10    11    1
     2    11    12   ar
     3    12    13   ar
     4    13    14   ar
     5    14    15   ar
     6    15     1    1
     7     1     2    2
     8     1     3   am
     9     3     4    1
    10     4     5    1
    11     5     6    1
    12     6     7    2
    13     7    17    1
    14    17    18    3
    15    18    19    1
    16    19    20   ar
    17    20    21   ar
    18    21    22   ar
    19    22    23   ar
    20    23    24    1
    21    23    25   ar
    22     6     8    1
    23     8     9    1
    24    15    16   ar
    25    16    11   ar
    26     9     3    1
    27    25    19   ar
@<TRIPOS>MOLECULE
*****
 25 27 0 0 0
SMALL
GASTEIGER

@<TRIPOS>ATOM
      1 C           3.3963   -0.0793   22.9524 C.2     1  UNL1        0.2490
      2 O           4.6800   -0.7805   23.2844 O.2     1  UNL1       -0.2699
      3 N           2.5117    0.4267   24.0530 N.am    1  UNL1       -0.2754
      4 C           1.2279    1.1279   23.7210 C.3     1  UNL1        0.0981
      5 C           0.3433    1.6340   24.8217 C.3     1  UNL1        0.0442
      6 C           0.7425    1.4389   26.2544 C.2     1  UNL1       -0.0326
      7 C          -0.1420    1.9449   27.3550 C.2     1  UNL1        0.0412
      8 C           2.0263    0.7377   26.5864 C.3     1  UNL1        0.0442
      9 C           2.9109    0.2316   25.4858 C.3     1  UNL1        0.0981
     10 C           3.6413    2.6643   18.5464 C.3     1  UNL1        0.0310
     11 C           3.1196    1.4876   19.3167 C.ar    1  UNL1       -0.0217
     12 C           2.1988    0.5061   18.6544 C.ar    1  UNL1       -0.0043
     13 C           1.6771   -0.6705   19.4247 C.ar    1  UNL1       -0.0002
     14 C           2.0763   -0.8657   20.8573 C.ar    1  UNL1        0.0045
     15 C           2.9971    0.1158   21.5197 C.ar    1  UNL1        0.0533
     16 C           3.5187    1.2925   20.7494 C.ar    1  UNL1        0.0003
     17 C          -1.4258    2.6461   27.0229 C.1     1  UNL1       -0.0583
     18 C          -2.7096    3.3473   26.6909 C.1     1  UNL1       -0.0405
     19 C          -3.9934    4.0485   26.3589 C.ar    1  UNL1        0.1224
     20 C          -4.6830    3.7732   25.0557 C.ar    1  UNL1        0.0276
     21 C          -5.9668    4.4744   24.7236 C.ar    1  UNL1        0.0034
     22 C          -6.5609    5.4509   25.6948 C.ar    1  UNL1        0.0148
     23 C          -5.8712    5.7263   26.9982 C.ar    1  UNL1        0.0600
     24 C          -6.4654    6.7029   27.9694 C.3     1  UNL1        0.0521
     25 N          -4.5875    5.0251   27.3302 N.ar    1  UNL1       -0.2414
@<TRIPOS>BOND
     1    10    11    1
     2    11    12   ar
     3    12    13   ar
     4    13    14   ar
     5    14    15   ar
     6    15     1    1
     7     1     2    2
     8     1     3   am
     9     3     4    1
    10     4     5    1
    11     5     6    1
    12     6     7    2
    13     7    17    1
    14    17    18    3
    15    18    19    1
    16    19    20   ar
    17    20    21   ar
    18    21    22   ar
    19    22    23   ar
    20    23    24    1
    21    23    25   ar
    22     6     8    1
    23     8     9    1
    24    15    16   ar
    25    16    11   ar
    26     9     3    1
    27    25    19   ar
