@<TRIPOS>MOLECULE
*****
 37 41 0 0 0
SMALL
GASTEIGER

@<TRIPOS>ATOM
      1 N          -7.3447  -19.3888   21.6124 N.3     1  UNL1       -0.2641
      2 C          -8.3235  -19.0227   22.6884 C.3     1  UNL1        0.0981
      3 C          -9.3849  -19.9992   23.1006 C.3     1  UNL1        0.0224
      4 C         -10.3638  -19.6332   24.1766 C.3     1  UNL1        0.0065
      5 C         -10.2813  -18.2907   24.8405 C.3     1  UNL1        0.0277
      6 C          -9.2199  -17.3142   24.4283 C.ar    1  UNL1       -0.0073
      7 C          -9.1374  -15.9716   25.0922 C.ar    1  UNL1       -0.0015
      8 C          -8.0761  -14.9951   24.6801 C.ar    1  UNL1        0.0203
      9 C          -7.0972  -15.3611   23.6040 C.ar    1  UNL1        0.0985
     10 N          -7.1797  -16.7036   22.9401 N.ar    1  UNL1       -0.2471
     11 C          -8.2411  -17.6802   23.3523 C.ar    1  UNL1        0.0695
     12 C          -7.6756  -19.1197   20.1743 C.3     1  UNL1        0.0989
     13 C          -9.0310  -20.7099   18.6303 C.2     1  UNL1       -0.0122
     14 C          -7.7173  -20.2508   19.1899 C.2     1  UNL1       -0.0120
     15 C         -10.3031  -20.0380   19.0550 C.3     1  UNL1        0.0950
     16 N         -10.3833  -18.5407   19.0947 N.3     1  UNL1       -0.2948
     17 H          -9.4247  -18.1936   19.0650 H       1  UNL1        0.1235
     18 F         -12.3590  -15.1879   23.3015 F       1  UNL1       -0.2043
     19 C         -12.4022  -16.4867   22.5523 C.3     1  UNL1        0.2640
     20 F         -13.4766  -16.7364   23.5689 F       1  UNL1       -0.2043
     21 C         -12.8186  -17.8722   22.1562 C.3     1  UNL1        0.0679
     22 C         -12.1457  -18.5569   21.0037 C.3     1  UNL1        0.0213
     23 C         -11.0563  -17.8560   20.2473 C.3     1  UNL1        0.0546
     24 C         -10.6399  -16.4705   20.6434 C.3     1  UNL1        0.0213
     25 C         -11.3129  -15.7859   21.7959 C.3     1  UNL1        0.0679
     26 C          -6.0349  -20.0238   21.9744 C.3     1  UNL1        0.0888
     27 C          -4.7576  -19.2545   21.8105 C.3     1  UNL1        0.0748
     28 C          -4.0291  -19.2810   20.4996 C.3     1  UNL1        0.0432
     29 C          -2.7518  -18.5117   20.3356 C.ar    1  UNL1       -0.0234
     30 C          -2.0233  -18.5382   19.0247 C.ar    1  UNL1       -0.0045
     31 C          -0.7461  -17.7690   18.8609 C.ar    1  UNL1       -0.0003
     32 C          -0.1974  -16.9732   20.0079 C.ar    1  UNL1       -0.0003
     33 C          -0.9259  -16.9467   21.3188 C.ar    1  UNL1       -0.0032
     34 C          -2.2031  -17.7159   21.4827 C.ar    1  UNL1       -0.0103
     35 C          -2.9317  -17.6895   22.7936 C.3     1  UNL1        0.0953
     36 N          -4.2089  -18.4587   22.9575 N.3     1  UNL1       -0.2934
     37 H          -4.9279  -17.7837   23.2181 H       1  UNL1        0.1236
@<TRIPOS>BOND
     1    18    19    1
     2    19    20    1
     3    19    21    1
     4    21    22    1
     5    22    23    1
     6    23    16    1
     7    16    15    1
     8    15    13    1
     9    13    14    2
    10    14    12    1
    11    12     1    1
    12     1    26    1
    13    27    26    1
    14    27    28    1
    15    28    29    1
    16    29    30   ar
    17    30    31   ar
    18    31    32   ar
    19    32    33   ar
    20    33    34   ar
    21    34    35    1
    22    35    36    1
    23     2     1    1
    24     2     3    1
    25     3     4    1
    26     4     5    1
    27     5     6    1
    28     6     7   ar
    29     7     8   ar
    30     8     9   ar
    31     9    10   ar
    32    10    11   ar
    33    23    24    1
    34    24    25    1
    35    25    19    1
    36    36    27    1
    37    11     2    1
    38    34    29   ar
    39    11     6   ar
    40    16    17    1
    41    36    37    1
@<TRIPOS>MOLECULE
*****
 37 41 0 0 0
SMALL
GASTEIGER

@<TRIPOS>ATOM
      1 N           5.7322   -1.8340   23.0735 N.3     1  UNL1       -0.2641
      2 C           4.9016   -2.1967   21.8783 C.3     1  UNL1        0.0981
      3 C           5.3014   -3.3526   21.0099 C.3     1  UNL1        0.0224
      4 C           4.4708   -3.7152   19.8147 C.3     1  UNL1        0.0065
      5 C           3.2405   -2.9219   19.4878 C.3     1  UNL1        0.0277
      6 C           2.8407   -1.7660   20.3561 C.ar    1  UNL1       -0.0073
      7 C           1.6103   -0.9727   20.0292 C.ar    1  UNL1       -0.0015
      8 C           1.2106    0.1832   20.8975 C.ar    1  UNL1        0.0203
      9 C           2.0411    0.5459   22.0927 C.ar    1  UNL1        0.0985
     10 N           3.2715   -0.2474   22.4197 N.ar    1  UNL1       -0.2471
     11 C           3.6713   -1.4034   21.5513 C.ar    1  UNL1        0.0695
     12 C           6.8132   -0.8014   22.9503 C.3     1  UNL1        0.0989
     13 C           9.1113   -1.6160   22.0529 C.2     1  UNL1       -0.0122
     14 C           8.2437   -1.1801   23.1962 C.2     1  UNL1       -0.0120
     15 C           8.5485   -1.6734   20.6637 C.3     1  UNL1        0.0950
     16 N           8.2809   -0.4045   19.9099 N.3     1  UNL1       -0.2948
     17 H           8.3764    0.3605   20.5778 H       1  UNL1        0.1235
     18 F           3.5364   -0.4052   16.6957 F       1  UNL1       -0.2043
     19 C           4.3401    0.1817   17.8180 C.3     1  UNL1        0.2640
     20 F           3.1311    1.0680   17.8720 F       1  UNL1       -0.2043
     21 C           4.7239    1.0765   18.9591 C.3     1  UNL1        0.0679
     22 C           6.0375    0.8811   19.6564 C.3     1  UNL1        0.0213
     23 C           6.9673   -0.2091   19.2126 C.3     1  UNL1        0.0546
     24 C           6.5835   -1.1038   18.0715 C.3     1  UNL1        0.0213
     25 C           5.2699   -0.9084   17.3742 C.3     1  UNL1        0.0679
     26 C           5.4818   -2.5040   24.3920 C.3     1  UNL1        0.0888
     27 C           6.2839   -3.7091   24.7852 C.3     1  UNL1        0.0748
     28 C           7.1075   -4.4294   23.7591 C.3     1  UNL1        0.0432
     29 C           7.9095   -5.6345   24.1523 C.ar    1  UNL1       -0.0234
     30 C           8.7331   -6.3547   23.1262 C.ar    1  UNL1       -0.0045
     31 C           9.5351   -7.5597   23.5195 C.ar    1  UNL1       -0.0003
     32 C           9.5136   -8.0445   24.9389 C.ar    1  UNL1       -0.0003
     33 C           8.6900   -7.3242   25.9650 C.ar    1  UNL1       -0.0032
     34 C           7.8880   -6.1192   25.5717 C.ar    1  UNL1       -0.0103
     35 C           7.0644   -5.3988   26.5978 C.3     1  UNL1        0.0953
     36 N           6.2624   -4.1938   26.2046 N.3     1  UNL1       -0.2934
     37 H           6.5886   -3.4209   26.7847 H       1  UNL1        0.1236
@<TRIPOS>BOND
     1    18    19    1
     2    19    20    1
     3    19    21    1
     4    21    22    1
     5    22    23    1
     6    23    16    1
     7    16    15    1
     8    15    13    1
     9    13    14    2
    10    14    12    1
    11    12     1    1
    12     1    26    1
    13    27    26    1
    14    27    28    1
    15    28    29    1
    16    29    30   ar
    17    30    31   ar
    18    31    32   ar
    19    32    33   ar
    20    33    34   ar
    21    34    35    1
    22    35    36    1
    23     2     1    1
    24     2     3    1
    25     3     4    1
    26     4     5    1
    27     5     6    1
    28     6     7   ar
    29     7     8   ar
    30     8     9   ar
    31     9    10   ar
    32    10    11   ar
    33    23    24    1
    34    24    25    1
    35    25    19    1
    36    36    27    1
    37    11     2    1
    38    34    29   ar
    39    11     6   ar
    40    16    17    1
    41    36    37    1
@<TRIPOS>MOLECULE
*****
 37 41 0 0 0
SMALL
GASTEIGER

@<TRIPOS>ATOM
      1 N           6.5334   -1.5072   22.0197 N.3     1  UNL1       -0.2641
      2 C           5.5872   -2.0520   20.9912 C.3     1  UNL1        0.0981
      3 C           4.7856   -3.2847   21.2877 C.3     1  UNL1        0.0224
      4 C           3.8394   -3.8295   20.2592 C.3     1  UNL1        0.0065
      5 C           3.6947   -3.1416   18.9342 C.3     1  UNL1        0.0277
      6 C           4.4963   -1.9089   18.6376 C.ar    1  UNL1       -0.0073
      7 C           4.3516   -1.2210   17.3125 C.ar    1  UNL1       -0.0015
      8 C           5.1531    0.0117   17.0160 C.ar    1  UNL1        0.0203
      9 C           6.0994    0.5565   18.0445 C.ar    1  UNL1        0.0985
     10 N           6.2440   -0.1314   19.3696 N.ar    1  UNL1       -0.2471
     11 C           5.4425   -1.3641   19.6662 C.ar    1  UNL1        0.0695
     12 C           6.1245   -0.3436   22.8733 C.3     1  UNL1        0.0989
     13 C           4.5511   -0.9125   24.8610 C.2     1  UNL1       -0.0122
     14 C           5.9076   -0.5330   24.3455 C.2     1  UNL1       -0.0120
     15 C           3.4114   -1.1026   23.9044 C.3     1  UNL1        0.0950
     16 N           2.6062    0.0795   23.4526 N.3     1  UNL1       -0.2948
     17 H           1.6654   -0.0448   23.8266 H       1  UNL1        0.1235
     18 F           1.4457    0.4144   17.8506 F       1  UNL1       -0.2043
     19 C           2.1541    0.9478   19.0604 C.3     1  UNL1        0.2640
     20 F           2.6316    1.9247   18.0271 F       1  UNL1       -0.2043
     21 C           3.0284    1.8205   19.9113 C.3     1  UNL1        0.0679
     22 C           3.1791    1.5311   21.3754 C.3     1  UNL1        0.0213
     23 C           2.4555    0.3689   21.9885 C.3     1  UNL1        0.0546
     24 C           1.5813   -0.5037   21.1376 C.3     1  UNL1        0.0213
     25 C           1.4306   -0.2143   19.6735 C.3     1  UNL1        0.0679
     26 C           7.8885   -2.1261   22.1946 C.3     1  UNL1        0.0888
     27 C           8.0161   -3.4954   22.7938 C.3     1  UNL1        0.0748
     28 C           7.4002   -3.7900   24.1294 C.3     1  UNL1        0.0432
     29 C           7.5278   -5.1593   24.7285 C.ar    1  UNL1       -0.0234
     30 C           6.9120   -5.4539   26.0641 C.ar    1  UNL1       -0.0045
     31 C           7.0396   -6.8231   26.6631 C.ar    1  UNL1       -0.0003
     32 C           7.7830   -7.8977   25.9266 C.ar    1  UNL1       -0.0003
     33 C           8.3988   -7.6031   24.5909 C.ar    1  UNL1       -0.0032
     34 C           8.2712   -6.2339   23.9919 C.ar    1  UNL1       -0.0103
     35 C           8.8871   -5.9392   22.6562 C.3     1  UNL1        0.0953
     36 N           8.7595   -4.5700   22.0572 N.3     1  UNL1       -0.2934
     37 H           8.2951   -4.6848   21.1563 H       1  UNL1        0.1236
@<TRIPOS>BOND
     1    18    19    1
     2    19    20    1
     3    19    21    1
     4    21    22    1
     5    22    23    1
     6    23    16    1
     7    16    15    1
     8    15    13    1
     9    13    14    2
    10    14    12    1
    11    12     1    1
    12     1    26    1
    13    27    26    1
    14    27    28    1
    15    28    29    1
    16    29    30   ar
    17    30    31   ar
    18    31    32   ar
    19    32    33   ar
    20    33    34   ar
    21    34    35    1
    22    35    36    1
    23     2     1    1
    24     2     3    1
    25     3     4    1
    26     4     5    1
    27     5     6    1
    28     6     7   ar
    29     7     8   ar
    30     8     9   ar
    31     9    10   ar
    32    10    11   ar
    33    23    24    1
    34    24    25    1
    35    25    19    1
    36    36    27    1
    37    11     2    1
    38    34    29   ar
    39    11     6   ar
    40    16    17    1
    41    36    37    1
@<TRIPOS>MOLECULE
*****
 37 41 0 0 0
SMALL
GASTEIGER

@<TRIPOS>ATOM
      1 N           7.2845   -4.2543   23.8990 N.3     1  UNL1       -0.2641
      2 C           7.5065   -5.3528   24.8961 C.3     1  UNL1        0.0981
      3 C           8.0138   -6.6886   24.4398 C.3     1  UNL1        0.0224
      4 C           8.2358   -7.7870   25.4369 C.3     1  UNL1        0.0065
      5 C           7.9505   -7.5496   26.8902 C.3     1  UNL1        0.0277
      6 C           7.4432   -6.2138   27.3465 C.ar    1  UNL1       -0.0073
      7 C           7.1579   -5.9764   28.7999 C.ar    1  UNL1       -0.0015
      8 C           6.6506   -4.6406   29.2561 C.ar    1  UNL1        0.0203
      9 C           6.4286   -3.5422   28.2591 C.ar    1  UNL1        0.0985
     10 N           6.7139   -3.7795   26.8057 N.ar    1  UNL1       -0.2471
     11 C           7.2212   -5.1154   26.3494 C.ar    1  UNL1        0.0695
     12 C           8.3492   -3.2229   23.6699 C.3     1  UNL1        0.0989
     13 C           9.3903   -2.9728   21.3027 C.2     1  UNL1       -0.0122
     14 C           9.4649   -3.4980   22.7058 C.2     1  UNL1       -0.0120
     15 C           8.1999   -2.1725   20.8638 C.3     1  UNL1        0.0950
     16 N           7.3059   -2.6925   19.7774 N.3     1  UNL1       -0.2948
     17 H           7.9103   -2.9534   18.9983 H       1  UNL1        0.1235
     18 F           3.6134    1.3595   18.1074 F       1  UNL1       -0.2043
     19 C           4.0634   -0.0712   18.0847 C.3     1  UNL1        0.2640
     20 F           2.8574   -0.1632   17.1974 F       1  UNL1       -0.2043
     21 C           4.0945   -1.5340   17.7538 C.3     1  UNL1        0.0679
     22 C           5.1753   -2.4077   18.3180 C.3     1  UNL1        0.0213
     23 C           6.2250   -1.8187   19.2132 C.3     1  UNL1        0.0546
     24 C           6.1939   -0.3560   19.5440 C.3     1  UNL1        0.0213
     25 C           5.1131    0.5178   18.9798 C.3     1  UNL1        0.0679
     26 C           5.9978   -4.1873   23.1310 C.3     1  UNL1        0.0888
     27 C           5.0553   -3.0402   23.3452 C.3     1  UNL1        0.0748
     28 C           4.2695   -2.4898   22.1922 C.3     1  UNL1        0.0432
     29 C           3.3270   -1.3426   22.4064 C.ar    1  UNL1       -0.0234
     30 C           2.5412   -0.7923   21.2533 C.ar    1  UNL1       -0.0045
     31 C           1.5988    0.3548   21.4676 C.ar    1  UNL1       -0.0003
     32 C           1.4422    0.9516   22.8348 C.ar    1  UNL1       -0.0003
     33 C           2.2280    0.4012   23.9878 C.ar    1  UNL1       -0.0032
     34 C           3.1704   -0.7459   23.7736 C.ar    1  UNL1       -0.0103
     35 C           3.9563   -1.2963   24.9267 C.3     1  UNL1        0.0953
     36 N           4.8988   -2.4434   24.7124 N.3     1  UNL1       -0.2934
     37 H           4.5916   -3.1959   25.3287 H       1  UNL1        0.1236
@<TRIPOS>BOND
     1    18    19    1
     2    19    20    1
     3    19    21    1
     4    21    22    1
     5    22    23    1
     6    23    16    1
     7    16    15    1
     8    15    13    1
     9    13    14    2
    10    14    12    1
    11    12     1    1
    12     1    26    1
    13    27    26    1
    14    27    28    1
    15    28    29    1
    16    29    30   ar
    17    30    31   ar
    18    31    32   ar
    19    32    33   ar
    20    33    34   ar
    21    34    35    1
    22    35    36    1
    23     2     1    1
    24     2     3    1
    25     3     4    1
    26     4     5    1
    27     5     6    1
    28     6     7   ar
    29     7     8   ar
    30     8     9   ar
    31     9    10   ar
    32    10    11   ar
    33    23    24    1
    34    24    25    1
    35    25    19    1
    36    36    27    1
    37    11     2    1
    38    34    29   ar
    39    11     6   ar
    40    16    17    1
    41    36    37    1
@<TRIPOS>MOLECULE
*****
 37 41 0 0 0
SMALL
GASTEIGER

@<TRIPOS>ATOM
      1 N           6.7121   -3.3378   22.4370 N.3     1  UNL1       -0.2641
      2 C           6.9127   -3.8273   23.8406 C.3     1  UNL1        0.0981
      3 C           6.3944   -3.0239   24.9964 C.3     1  UNL1        0.0224
      4 C           6.5950   -3.5134   26.4000 C.3     1  UNL1        0.0065
      5 C           7.3140   -4.8063   26.6478 C.3     1  UNL1        0.0277
      6 C           7.8323   -5.6097   25.4921 C.ar    1  UNL1       -0.0073
      7 C           8.5512   -6.9027   25.7399 C.ar    1  UNL1       -0.0015
      8 C           9.0695   -7.7061   24.5841 C.ar    1  UNL1        0.0203
      9 C           8.8689   -7.2166   23.1805 C.ar    1  UNL1        0.0985
     10 N           8.1500   -5.9237   22.9326 N.ar    1  UNL1       -0.2471
     11 C           7.6316   -5.1202   24.0884 C.ar    1  UNL1        0.0695
     12 C           7.6564   -2.3298   21.8520 C.3     1  UNL1        0.0989
     13 C           8.7135   -2.7707   19.5200 C.2     1  UNL1       -0.0122
     14 C           8.8160   -2.7850   21.0164 C.2     1  UNL1       -0.0120
     15 C           7.4515   -2.3011   18.8591 C.3     1  UNL1        0.0950
     16 N           7.3764   -0.9185   18.2825 N.3     1  UNL1       -0.2948
     17 H           8.2678   -0.4661   18.4854 H       1  UNL1        0.1235
     18 F           2.8933    2.5524   19.1167 F       1  UNL1       -0.2043
     19 C           4.1470    1.9100   19.6318 C.3     1  UNL1        0.2640
     20 F           3.7516    2.7121   20.8361 F       1  UNL1       -0.2043
     21 C           5.2635    1.5462   20.5652 C.3     1  UNL1        0.0679
     22 C           6.3400    0.6034   20.1155 C.3     1  UNL1        0.0213
     23 C           6.3000    0.0243   18.7322 C.3     1  UNL1        0.0546
     24 C           5.1835    0.3881   17.7989 C.3     1  UNL1        0.0213
     25 C           4.1071    1.3310   18.2487 C.3     1  UNL1        0.0679
     26 C           5.5671   -3.8562   21.6183 C.3     1  UNL1        0.0888
     27 C           4.4598   -2.9316   21.2072 C.3     1  UNL1        0.0748
     28 C           3.9552   -1.8933   22.1649 C.3     1  UNL1        0.0432
     29 C           2.8479   -0.9687   21.7537 C.ar    1  UNL1       -0.0234
     30 C           2.3432    0.0696   22.7114 C.ar    1  UNL1       -0.0045
     31 C           1.2360    0.9942   22.3002 C.ar    1  UNL1       -0.0003
     32 C           0.6334    0.8805   20.9313 C.ar    1  UNL1       -0.0003
     33 C           1.1380   -0.1578   19.9736 C.ar    1  UNL1       -0.0032
     34 C           2.2452   -1.0824   20.3848 C.ar    1  UNL1       -0.0103
     35 C           2.7499   -2.1207   19.4271 C.3     1  UNL1        0.0953
     36 N           3.8572   -3.0453   19.8383 N.3     1  UNL1       -0.2934
     37 H           4.6162   -2.9110   19.1703 H       1  UNL1        0.1236
@<TRIPOS>BOND
     1    18    19    1
     2    19    20    1
     3    19    21    1
     4    21    22    1
     5    22    23    1
     6    23    16    1
     7    16    15    1
     8    15    13    1
     9    13    14    2
    10    14    12    1
    11    12     1    1
    12     1    26    1
    13    27    26    1
    14    27    28    1
    15    28    29    1
    16    29    30   ar
    17    30    31   ar
    18    31    32   ar
    19    32    33   ar
    20    33    34   ar
    21    34    35    1
    22    35    36    1
    23     2     1    1
    24     2     3    1
    25     3     4    1
    26     4     5    1
    27     5     6    1
    28     6     7   ar
    29     7     8   ar
    30     8     9   ar
    31     9    10   ar
    32    10    11   ar
    33    23    24    1
    34    24    25    1
    35    25    19    1
    36    36    27    1
    37    11     2    1
    38    34    29   ar
    39    11     6   ar
    40    16    17    1
    41    36    37    1
@<TRIPOS>MOLECULE
*****
 37 41 0 0 0
SMALL
GASTEIGER

@<TRIPOS>ATOM
      1 N           6.4599   -0.8638   22.4605 N.3     1  UNL1       -0.2641
      2 C           6.4789   -0.9950   20.9664 C.3     1  UNL1        0.0981
      3 C           7.2172    0.0114   20.1345 C.3     1  UNL1        0.0224
      4 C           7.2362   -0.1197   18.6404 C.3     1  UNL1        0.0065
      5 C           6.5169   -1.2572   17.9781 C.3     1  UNL1        0.0277
      6 C           5.7786   -2.2636   18.8100 C.ar    1  UNL1       -0.0073
      7 C           5.0592   -3.4012   18.1477 C.ar    1  UNL1       -0.0015
      8 C           4.3209   -4.4076   18.9796 C.ar    1  UNL1        0.0203
      9 C           4.3019   -4.2765   20.4737 C.ar    1  UNL1        0.0985
     10 N           5.0212   -3.1389   21.1360 N.ar    1  UNL1       -0.2471
     11 C           5.7596   -2.1325   20.3041 C.ar    1  UNL1        0.0695
     12 C           5.2829   -0.2324   23.1431 C.3     1  UNL1        0.0989
     13 C           3.0714   -0.5150   24.4770 C.2     1  UNL1       -0.0122
     14 C           4.3926   -1.0601   24.0220 C.2     1  UNL1       -0.0120
     15 C           2.6403    0.8578   24.0532 C.3     1  UNL1        0.0950
     16 N           1.7245    1.0268   22.8773 N.3     1  UNL1       -0.2948
     17 H           0.9478    0.3799   23.0137 H       1  UNL1        0.1235
     18 F           3.1980   -0.6772   17.6079 F       1  UNL1       -0.2043
     19 C           3.2685    0.3417   18.7064 C.3     1  UNL1        0.2640
     20 F           4.1275    1.0110   17.6747 F       1  UNL1       -0.2043
     21 C           3.6373    1.5933   19.4465 C.3     1  UNL1        0.0679
     22 C           3.1227    1.8216   20.8368 C.3     1  UNL1        0.0213
     23 C           2.2392    0.7984   21.4870 C.3     1  UNL1        0.0546
     24 C           1.8704   -0.4530   20.7468 C.3     1  UNL1        0.0213
     25 C           2.3850   -0.6813   19.3565 C.3     1  UNL1        0.0679
     26 C           7.6178   -1.3642   23.2721 C.3     1  UNL1        0.0888
     27 C           7.7781   -2.8343   23.5233 C.3     1  UNL1        0.0748
     28 C           7.2533   -3.4401   24.7912 C.3     1  UNL1        0.0432
     29 C           7.4135   -4.9103   25.0425 C.ar    1  UNL1       -0.0234
     30 C           6.8888   -5.5160   26.3104 C.ar    1  UNL1       -0.0045
     31 C           7.0490   -6.9861   26.5615 C.ar    1  UNL1       -0.0003
     32 C           7.7340   -7.8504   25.5448 C.ar    1  UNL1       -0.0003
     33 C           8.2588   -7.2447   24.2769 C.ar    1  UNL1       -0.0032
     34 C           8.0985   -5.7746   24.0257 C.ar    1  UNL1       -0.0103
     35 C           8.6233   -5.1687   22.7578 C.3     1  UNL1        0.0953
     36 N           8.4631   -3.6987   22.5066 N.3     1  UNL1       -0.2934
     37 H           7.9374   -3.6040   21.6376 H       1  UNL1        0.1236
@<TRIPOS>BOND
     1    18    19    1
     2    19    20    1
     3    19    21    1
     4    21    22    1
     5    22    23    1
     6    23    16    1
     7    16    15    1
     8    15    13    1
     9    13    14    2
    10    14    12    1
    11    12     1    1
    12     1    26    1
    13    27    26    1
    14    27    28    1
    15    28    29    1
    16    29    30   ar
    17    30    31   ar
    18    31    32   ar
    19    32    33   ar
    20    33    34   ar
    21    34    35    1
    22    35    36    1
    23     2     1    1
    24     2     3    1
    25     3     4    1
    26     4     5    1
    27     5     6    1
    28     6     7   ar
    29     7     8   ar
    30     8     9   ar
    31     9    10   ar
    32    10    11   ar
    33    23    24    1
    34    24    25    1
    35    25    19    1
    36    36    27    1
    37    11     2    1
    38    34    29   ar
    39    11     6   ar
    40    16    17    1
    41    36    37    1
