@<TRIPOS>MOLECULE
*****
 25 28 0 0 0
SMALL
GASTEIGER

@<TRIPOS>ATOM
      1 C          -8.3772  -19.2860   20.9485 C.3     1  UNL1        0.1473
      2 O          -9.0233  -19.0313   19.6190 O.3     1  UNL1       -0.3787
      3 H          -9.9865  -18.9982   19.7286 H       1  UNL1        0.2108
      4 C          -9.2245  -19.4443   22.1761 C.ar    1  UNL1        0.0087
      5 C          -8.7728  -20.3436   23.2884 C.ar    1  UNL1        0.0188
      6 C          -9.6201  -20.5018   24.5159 C.ar    1  UNL1        0.0986
      7 N         -10.9192  -19.7608   24.6312 N.ar    1  UNL1       -0.2439
      8 C         -11.3709  -18.8615   23.5190 C.ar    1  UNL1        0.0813
      9 C         -12.6700  -18.1205   23.6343 C.ar    1  UNL1        0.0222
     10 C         -13.1217  -17.2212   22.5221 C.ar    1  UNL1        0.0384
     11 C         -12.2744  -17.0629   21.2944 C.ar    1  UNL1        0.1388
     12 C         -10.9753  -17.8039   21.1791 C.ar    1  UNL1        0.0382
     13 C         -10.5236  -18.7032   22.2914 C.ar    1  UNL1        0.0190
     14 O         -12.7261  -16.1636   20.1822 O.3     1  UNL1       -0.4714
     15 C         -11.7284  -15.6279   19.1985 C.3     1  UNL1        0.2525
     16 C          -3.8969  -19.5751   21.2544 C.3     1  UNL1        0.0381
     17 C          -4.6362  -18.5305   22.0369 C.3     1  UNL1        0.0765
     18 N          -6.1296  -18.4341   21.9350 N.3     1  UNL1       -0.2712
     19 C          -6.8838  -19.3823   21.0505 C.3     1  UNL1        0.0722
     20 C          -6.1445  -20.4269   20.2680 C.3     1  UNL1        0.0177
     21 C          -4.6510  -20.5233   20.3700 C.3     1  UNL1        0.0082
     22 C          -5.7925  -19.9844   20.6807 C.3     1  UNL1        0.0192
     23 C          -6.1868  -19.4273   21.0980 C.3     1  UNL1        0.0888
     24 C          -1.5358  -18.7453   20.5569 C.2     1  UNL1       -0.0049
     25 C          -2.4035  -19.6715   21.3564 C.2     1  UNL1       -0.0251
@<TRIPOS>BOND
     1    24    25    2
     2    16    25    1
     3    16    17    1
     4    17    18    1
     5    18    19    1
     6    19    20    1
     7    21    20    1
     8    21    22    1
     9    23    22    1
    10    23     1    1
    11     1     2    1
    12     1     4    1
    13     4     5   ar
    14     5     6   ar
    15     6     7   ar
    16     7     8   ar
    17     8     9   ar
    18     9    10   ar
    19    10    11   ar
    20    11    14    1
    21    14    15    1
    22    11    12   ar
    23    12    13   ar
    24    21    16    1
    25    13     4   ar
    26    23    18    1
    27    13     8   ar
    28     2     3    1
@<TRIPOS>MOLECULE
*****
 25 28 0 0 0
SMALL
GASTEIGER

@<TRIPOS>ATOM
      1 C          -6.5017  -19.8985   21.6622 C.3     1  UNL1        0.1473
      2 O          -6.5699  -21.0646   22.6032 O.3     1  UNL1       -0.3787
      3 H          -7.4881  -21.3692   22.6745 H       1  UNL1        0.2108
      4 C          -7.7509  -19.3911   21.0047 C.ar    1  UNL1        0.0087
      5 C          -8.1012  -19.8361   19.6158 C.ar    1  UNL1        0.0188
      6 C          -9.3503  -19.3287   18.9584 C.ar    1  UNL1        0.0986
      7 N         -10.2492  -18.3764   19.6900 N.ar    1  UNL1       -0.2439
      8 C          -9.8988  -17.9314   21.0790 C.ar    1  UNL1        0.0813
      9 C         -10.7977  -16.9791   21.8106 C.ar    1  UNL1        0.0222
     10 C         -10.4473  -16.5342   23.1995 C.ar    1  UNL1        0.0384
     11 C          -9.1981  -17.0416   23.8570 C.ar    1  UNL1        0.1388
     12 C          -8.2993  -17.9939   23.1254 C.ar    1  UNL1        0.0382
     13 C          -8.6497  -18.4388   21.7363 C.ar    1  UNL1        0.0190
     14 O          -8.8478  -16.5967   25.2459 O.3     1  UNL1       -0.4714
     15 C          -7.9146  -15.4401   25.4501 C.3     1  UNL1        0.2525
     16 C          -2.5494  -17.9222   20.8112 C.3     1  UNL1        0.0381
     17 C          -3.2620  -17.6489   22.1026 C.3     1  UNL1        0.0765
     18 N          -4.5794  -18.3076   22.3862 N.3     1  UNL1       -0.2712
     19 C          -5.1843  -19.2397   21.3785 C.3     1  UNL1        0.0722
     20 C          -4.4717  -19.5131   20.0873 C.3     1  UNL1        0.0177
     21 C          -3.1542  -18.8543   19.8036 C.3     1  UNL1        0.0082
     22 C          -4.1894  -19.0781   20.5575 C.3     1  UNL1        0.0192
     23 C          -4.5695  -18.9323   21.2462 C.3     1  UNL1        0.0888
     24 C          -0.1847  -17.9905   19.7373 C.2     1  UNL1       -0.0049
     25 C          -1.2320  -17.2635   20.5276 C.2     1  UNL1       -0.0251
@<TRIPOS>BOND
     1    24    25    2
     2    16    25    1
     3    16    17    1
     4    17    18    1
     5    18    19    1
     6    19    20    1
     7    21    20    1
     8    21    22    1
     9    23    22    1
    10    23     1    1
    11     1     2    1
    12     1     4    1
    13     4     5   ar
    14     5     6   ar
    15     6     7   ar
    16     7     8   ar
    17     8     9   ar
    18     9    10   ar
    19    10    11   ar
    20    11    14    1
    21    14    15    1
    22    11    12   ar
    23    12    13   ar
    24    21    16    1
    25    13     4   ar
    26    23    18    1
    27    13     8   ar
    28     2     3    1
@<TRIPOS>MOLECULE
*****
 25 28 0 0 0
SMALL
GASTEIGER

@<TRIPOS>ATOM
      1 C          -9.4227  -17.4649   21.5645 C.3     1  UNL1        0.1473
      2 O          -8.7161  -16.1443   21.6467 O.3     1  UNL1       -0.3787
      3 H          -7.9199  -16.1687   21.0932 H       1  UNL1        0.2108
      4 C          -8.8615  -18.5641   20.7120 C.ar    1  UNL1        0.0087
      5 C          -9.7077  -19.1915   19.6441 C.ar    1  UNL1        0.0188
      6 C          -9.1464  -20.2906   18.7917 C.ar    1  UNL1        0.0986
      7 N          -7.7389  -20.7625   19.0071 N.ar    1  UNL1       -0.2439
      8 C          -6.8927  -20.1351   20.0749 C.ar    1  UNL1        0.0813
      9 C          -5.4852  -20.6069   20.2902 C.ar    1  UNL1        0.0222
     10 C          -4.6390  -19.9795   21.3581 C.ar    1  UNL1        0.0384
     11 C          -5.2003  -18.8803   22.2106 C.ar    1  UNL1        0.1388
     12 C          -6.6078  -18.4085   21.9952 C.ar    1  UNL1        0.0382
     13 C          -7.4540  -19.0359   20.9273 C.ar    1  UNL1        0.0190
     14 O          -4.3541  -18.2529   23.2784 O.3     1  UNL1       -0.4714
     15 C          -2.9965  -17.7128   22.9388 C.3     1  UNL1        0.2525
     16 C         -13.2266  -18.1289   23.8753 C.3     1  UNL1        0.0381
     17 C         -11.9117  -18.5580   24.4559 C.3     1  UNL1        0.0765
     18 N         -10.6437  -18.3367   23.6856 N.3     1  UNL1       -0.2712
     19 C         -10.6907  -17.6862   22.3348 C.3     1  UNL1        0.0722
     20 C         -12.0055  -17.2571   21.7542 C.3     1  UNL1        0.0177
     21 C         -13.2735  -17.4785   22.5245 C.3     1  UNL1        0.0082
     22 C         -11.9836  -17.5607   22.3846 C.3     1  UNL1        0.0192
     23 C         -11.2824  -17.7895   22.6942 C.3     1  UNL1        0.0888
     24 C         -14.4492  -18.5013   26.1373 C.2     1  UNL1       -0.0049
     25 C         -14.4945  -18.3503   24.6456 C.2     1  UNL1       -0.0251
@<TRIPOS>BOND
     1    24    25    2
     2    16    25    1
     3    16    17    1
     4    17    18    1
     5    18    19    1
     6    19    20    1
     7    21    20    1
     8    21    22    1
     9    23    22    1
    10    23     1    1
    11     1     2    1
    12     1     4    1
    13     4     5   ar
    14     5     6   ar
    15     6     7   ar
    16     7     8   ar
    17     8     9   ar
    18     9    10   ar
    19    10    11   ar
    20    11    14    1
    21    14    15    1
    22    11    12   ar
    23    12    13   ar
    24    21    16    1
    25    13     4   ar
    26    23    18    1
    27    13     8   ar
    28     2     3    1
@<TRIPOS>MOLECULE
*****
 25 28 0 0 0
SMALL
GASTEIGER

@<TRIPOS>ATOM
      1 C          -6.1610  -19.4393   22.0241 C.3     1  UNL1        0.1473
      2 O          -6.5464  -20.8429   22.3865 O.3     1  UNL1       -0.3787
      3 H          -7.4424  -20.8465   22.7581 H       1  UNL1        0.2108
      4 C          -7.1230  -18.3128   22.2598 C.ar    1  UNL1        0.0087
      5 C          -6.8175  -17.2695   23.2933 C.ar    1  UNL1        0.0188
      6 C          -7.7795  -16.1430   23.5289 C.ar    1  UNL1        0.0986
      7 N          -9.0469  -16.0598   22.7310 N.ar    1  UNL1       -0.2439
      8 C          -9.3524  -17.1031   21.6976 C.ar    1  UNL1        0.0813
      9 C         -10.6199  -17.0199   20.8997 C.ar    1  UNL1        0.0222
     10 C         -10.9254  -18.0632   19.8662 C.ar    1  UNL1        0.0384
     11 C          -9.9634  -19.1898   19.6305 C.ar    1  UNL1        0.1388
     12 C          -8.6959  -19.2730   20.4284 C.ar    1  UNL1        0.0382
     13 C          -8.3904  -18.2296   21.4619 C.ar    1  UNL1        0.0190
     14 O         -10.2689  -20.2331   18.5971 O.3     1  UNL1       -0.4714
     15 C          -9.1512  -20.9847   17.9369 C.3     1  UNL1        0.2525
     16 C          -2.1187  -18.6080   20.2299 C.3     1  UNL1        0.0381
     17 C          -3.3450  -18.5678   19.3669 C.3     1  UNL1        0.0765
     18 N          -4.6924  -18.8449   19.9649 N.3     1  UNL1       -0.2712
     19 C          -4.8136  -19.1622   21.4260 C.3     1  UNL1        0.0722
     20 C          -3.5873  -19.2025   22.2890 C.3     1  UNL1        0.0177
     21 C          -2.2399  -18.9254   21.6909 C.3     1  UNL1        0.0082
     22 C          -3.5308  -19.0544   21.6072 C.3     1  UNL1        0.0192
     23 C          -4.1848  -19.0329   21.1469 C.3     1  UNL1        0.0888
     24 C           0.0574  -17.1912   20.1458 C.2     1  UNL1       -0.0049
     25 C          -0.7713  -18.3309   19.6318 C.2     1  UNL1       -0.0251
@<TRIPOS>BOND
     1    24    25    2
     2    16    25    1
     3    16    17    1
     4    17    18    1
     5    18    19    1
     6    19    20    1
     7    21    20    1
     8    21    22    1
     9    23    22    1
    10    23     1    1
    11     1     2    1
    12     1     4    1
    13     4     5   ar
    14     5     6   ar
    15     6     7   ar
    16     7     8   ar
    17     8     9   ar
    18     9    10   ar
    19    10    11   ar
    20    11    14    1
    21    14    15    1
    22    11    12   ar
    23    12    13   ar
    24    21    16    1
    25    13     4   ar
    26    23    18    1
    27    13     8   ar
    28     2     3    1
@<TRIPOS>MOLECULE
*****
 25 28 0 0 0
SMALL
GASTEIGER

@<TRIPOS>ATOM
      1 C          -7.6204  -19.9058   22.2313 C.3     1  UNL1        0.1473
      2 O          -7.9022  -20.8343   23.3753 O.3     1  UNL1       -0.3787
      3 H          -7.1037  -21.3449   23.5815 H       1  UNL1        0.2108
      4 C          -6.2590  -19.8826   21.6020 C.ar    1  UNL1        0.0087
      5 C          -5.9111  -20.8728   20.5304 C.ar    1  UNL1        0.0188
      6 C          -4.5497  -20.8495   19.9011 C.ar    1  UNL1        0.0986
      7 N          -3.5362  -19.8361   20.3435 N.ar    1  UNL1       -0.2439
      8 C          -3.8841  -18.8459   21.4152 C.ar    1  UNL1        0.0813
      9 C          -2.8705  -17.8325   21.8576 C.ar    1  UNL1        0.0222
     10 C          -3.2184  -16.8424   22.9293 C.ar    1  UNL1        0.0384
     11 C          -4.5798  -16.8656   23.5586 C.ar    1  UNL1        0.1388
     12 C          -5.5934  -17.8790   23.1162 C.ar    1  UNL1        0.0382
     13 C          -5.2455  -18.8692   22.0444 C.ar    1  UNL1        0.0190
     14 O          -4.9277  -15.8754   24.6302 O.3     1  UNL1       -0.4714
     15 C          -6.3294  -15.3533   24.7426 C.3     1  UNL1        0.2525
     16 C         -10.8594  -17.1901   20.6874 C.3     1  UNL1        0.0381
     17 C         -10.1829  -16.8849   21.9910 C.3     1  UNL1        0.0765
     18 N          -9.1033  -17.7902   22.5056 N.3     1  UNL1       -0.2712
     19 C          -8.7001  -19.0006   21.7167 C.3     1  UNL1        0.0722
     20 C          -9.3766  -19.3058   20.4132 C.3     1  UNL1        0.0177
     21 C         -10.4562  -18.4005   19.8985 C.3     1  UNL1        0.0082
     22 C          -9.5647  -18.7409   20.7813 C.3     1  UNL1        0.0192
     23 C          -9.2039  -18.5782   21.4765 C.3     1  UNL1        0.0888
     24 C         -11.7014  -15.4568   18.9448 C.2     1  UNL1       -0.0049
     25 C         -11.9391  -16.2849   20.1727 C.2     1  UNL1       -0.0251
@<TRIPOS>BOND
     1    24    25    2
     2    16    25    1
     3    16    17    1
     4    17    18    1
     5    18    19    1
     6    19    20    1
     7    21    20    1
     8    21    22    1
     9    23    22    1
    10    23     1    1
    11     1     2    1
    12     1     4    1
    13     4     5   ar
    14     5     6   ar
    15     6     7   ar
    16     7     8   ar
    17     8     9   ar
    18     9    10   ar
    19    10    11   ar
    20    11    14    1
    21    14    15    1
    22    11    12   ar
    23    12    13   ar
    24    21    16    1
    25    13     4   ar
    26    23    18    1
    27    13     8   ar
    28     2     3    1
@<TRIPOS>MOLECULE
*****
 25 28 0 0 0
SMALL
GASTEIGER

@<TRIPOS>ATOM
      1 C          -6.1634  -19.8457   21.5847 C.3     1  UNL1        0.1473
      2 O          -6.2574  -21.1712   22.2804 O.3     1  UNL1       -0.3787
      3 H          -7.1664  -21.3108   22.5888 H       1  UNL1        0.2108
      4 C          -7.3790  -18.9753   21.4618 C.ar    1  UNL1        0.0087
      5 C          -8.5048  -19.3826   20.5581 C.ar    1  UNL1        0.0188
      6 C          -9.7202  -18.5122   20.4353 C.ar    1  UNL1        0.0986
      7 N          -9.8099  -17.2346   21.2161 N.ar    1  UNL1       -0.2439
      8 C          -8.6841  -16.8274   22.1198 C.ar    1  UNL1        0.0813
      9 C          -8.7738  -15.5498   22.9006 C.ar    1  UNL1        0.0222
     10 C          -7.6480  -15.1425   23.8043 C.ar    1  UNL1        0.0384
     11 C          -6.4324  -16.0129   23.9272 C.ar    1  UNL1        0.1388
     12 C          -6.3428  -17.2905   23.1464 C.ar    1  UNL1        0.0382
     13 C          -7.4686  -17.6977   22.2427 C.ar    1  UNL1        0.0190
     14 O          -5.3067  -15.6056   24.8309 O.3     1  UNL1       -0.4714
     15 C          -5.5890  -15.2141   26.2512 C.3     1  UNL1        0.2525
     16 C          -2.2352  -18.4799   19.8662 C.3     1  UNL1        0.0381
     17 C          -3.4904  -18.3640   19.0530 C.3     1  UNL1        0.0765
     18 N          -4.7998  -18.8193   19.6259 N.3     1  UNL1       -0.2712
     19 C          -4.8540  -19.3904   21.0119 C.3     1  UNL1        0.0722
     20 C          -3.5989  -19.5063   21.8250 C.3     1  UNL1        0.0177
     21 C          -2.2895  -19.0510   21.2521 C.3     1  UNL1        0.0082
     22 C          -3.5736  -19.2397   21.1782 C.3     1  UNL1        0.0192
     23 C          -4.2430  -19.1780   20.7446 C.3     1  UNL1        0.0888
     24 C           0.1545  -17.5174   20.2020 C.2     1  UNL1       -0.0049
     25 C          -0.9258  -18.0246   19.2934 C.2     1  UNL1       -0.0251
@<TRIPOS>BOND
     1    24    25    2
     2    16    25    1
     3    16    17    1
     4    17    18    1
     5    18    19    1
     6    19    20    1
     7    21    20    1
     8    21    22    1
     9    23    22    1
    10    23     1    1
    11     1     2    1
    12     1     4    1
    13     4     5   ar
    14     5     6   ar
    15     6     7   ar
    16     7     8   ar
    17     8     9   ar
    18     9    10   ar
    19    10    11   ar
    20    11    14    1
    21    14    15    1
    22    11    12   ar
    23    12    13   ar
    24    21    16    1
    25    13     4   ar
    26    23    18    1
    27    13     8   ar
    28     2     3    1
@<TRIPOS>MOLECULE
*****
 25 28 0 0 0
SMALL
GASTEIGER

@<TRIPOS>ATOM
      1 C           4.5984   -3.8633   20.8765 C.3     1  UNL1        0.1473
      2 O           3.7427   -5.0657   20.6083 O.3     1  UNL1       -0.3787
      3 H           3.5263   -5.1043   19.6636 H       1  UNL1        0.2108
      4 C           4.9809   -2.9488   19.7506 C.ar    1  UNL1        0.0087
      5 C           6.2898   -3.1376   19.0426 C.ar    1  UNL1        0.0188
      6 C           6.6722   -2.2231   17.9168 C.ar    1  UNL1        0.0986
      7 N           5.7458   -1.1198   17.4991 N.ar    1  UNL1       -0.2439
      8 C           4.4370   -0.9310   18.2071 C.ar    1  UNL1        0.0813
      9 C           3.5106    0.1723   17.7893 C.ar    1  UNL1        0.0222
     10 C           2.2018    0.3611   18.4973 C.ar    1  UNL1        0.0384
     11 C           1.8193   -0.5534   19.6231 C.ar    1  UNL1        0.1388
     12 C           2.7457   -1.6567   20.0409 C.ar    1  UNL1        0.0382
     13 C           4.0546   -1.8455   19.3328 C.ar    1  UNL1        0.0190
     14 O           0.5105   -0.3646   20.3311 O.3     1  UNL1       -0.4714
     15 C           0.1225    0.9916   20.8411 C.3     1  UNL1        0.2525
     16 C           6.0183   -2.9994   25.0583 C.3     1  UNL1        0.0381
     17 C           6.6958   -4.0584   24.2400 C.3     1  UNL1        0.0765
     18 N           6.2225   -4.3464   22.8460 N.3     1  UNL1       -0.2712
     19 C           5.0717   -3.5754   22.2704 C.3     1  UNL1        0.0722
     20 C           4.3943   -2.5164   23.0887 C.3     1  UNL1        0.0177
     21 C           4.8675   -2.2285   24.4827 C.3     1  UNL1        0.0082
     22 C           4.9313   -2.8762   23.3574 C.3     1  UNL1        0.0192
     23 C           5.2926   -3.4410   22.9209 C.3     1  UNL1        0.0888
     24 C           5.5160   -2.2554   27.4963 C.2     1  UNL1       -0.0049
     25 C           6.4916   -2.7115   26.4522 C.2     1  UNL1       -0.0251
@<TRIPOS>BOND
     1    24    25    2
     2    16    25    1
     3    16    17    1
     4    17    18    1
     5    18    19    1
     6    19    20    1
     7    21    20    1
     8    21    22    1
     9    23    22    1
    10    23     1    1
    11     1     2    1
    12     1     4    1
    13     4     5   ar
    14     5     6   ar
    15     6     7   ar
    16     7     8   ar
    17     8     9   ar
    18     9    10   ar
    19    10    11   ar
    20    11    14    1
    21    14    15    1
    22    11    12   ar
    23    12    13   ar
    24    21    16    1
    25    13     4   ar
    26    23    18    1
    27    13     8   ar
    28     2     3    1
@<TRIPOS>MOLECULE
*****
 25 28 0 0 0
SMALL
GASTEIGER

@<TRIPOS>ATOM
      1 C          -8.8233  -18.5795   23.2276 C.3     1  UNL1        0.1473
      2 O          -9.4224  -19.3937   24.3358 O.3     1  UNL1       -0.3787
      3 H          -9.2444  -18.9626   25.1864 H       1  UNL1        0.2108
      4 C          -8.0875  -17.3108   23.5423 C.ar    1  UNL1        0.0087
      5 C          -8.8391  -16.1116   24.0394 C.ar    1  UNL1        0.0188
      6 C          -8.1033  -14.8429   24.3541 C.ar    1  UNL1        0.0986
      7 N          -6.6161  -14.7734   24.1717 N.ar    1  UNL1       -0.2439
      8 C          -5.8646  -15.9726   23.6746 C.ar    1  UNL1        0.0813
      9 C          -4.3773  -15.9031   23.4923 C.ar    1  UNL1        0.0222
     10 C          -3.6258  -17.1023   22.9952 C.ar    1  UNL1        0.0384
     11 C          -4.3615  -18.3710   22.6805 C.ar    1  UNL1        0.1388
     12 C          -5.8488  -18.4405   22.8629 C.ar    1  UNL1        0.0382
     13 C          -6.6003  -17.2413   23.3600 C.ar    1  UNL1        0.0190
     14 O          -3.6100  -19.5702   22.1834 O.3     1  UNL1       -0.4714
     15 C          -3.7431  -19.9985   20.7520 C.3     1  UNL1        0.2525
     16 C          -9.2331  -19.9431   18.9588 C.3     1  UNL1        0.0381
     17 C          -7.9086  -20.0469   19.6554 C.3     1  UNL1        0.0765
     18 N          -7.7720  -19.5923   21.0784 N.3     1  UNL1       -0.2712
     19 C          -8.9599  -19.0341   21.8047 C.3     1  UNL1        0.0722
     20 C         -10.2842  -18.9303   21.1081 C.3     1  UNL1        0.0177
     21 C         -10.4208  -19.3849   19.6851 C.3     1  UNL1        0.0082
     22 C          -9.7299  -19.1909   20.7691 C.3     1  UNL1        0.0192
     23 C          -9.0236  -19.2462   21.1407 C.3     1  UNL1        0.0888
     24 C          -9.0250  -21.8090   17.1630 C.2     1  UNL1       -0.0049
     25 C          -9.3697  -20.3976   17.5359 C.2     1  UNL1       -0.0251
@<TRIPOS>BOND
     1    24    25    2
     2    16    25    1
     3    16    17    1
     4    17    18    1
     5    18    19    1
     6    19    20    1
     7    21    20    1
     8    21    22    1
     9    23    22    1
    10    23     1    1
    11     1     2    1
    12     1     4    1
    13     4     5   ar
    14     5     6   ar
    15     6     7   ar
    16     7     8   ar
    17     8     9   ar
    18     9    10   ar
    19    10    11   ar
    20    11    14    1
    21    14    15    1
    22    11    12   ar
    23    12    13   ar
    24    21    16    1
    25    13     4   ar
    26    23    18    1
    27    13     8   ar
    28     2     3    1
@<TRIPOS>MOLECULE
*****
 25 28 0 0 0
SMALL
GASTEIGER

@<TRIPOS>ATOM
      1 C           3.9451   -0.5517   17.3777 C.3     1  UNL1        0.1473
      2 O           3.5747   -1.2663   16.1120 O.3     1  UNL1       -0.3787
      3 H           4.3718   -1.6455   15.7096 H       1  UNL1        0.2108
      4 C           5.3759   -0.5141   17.8266 C.ar    1  UNL1        0.0087
      5 C           6.2793    0.5890   17.3609 C.ar    1  UNL1        0.0188
      6 C           7.7100    0.6266   17.8099 C.ar    1  UNL1        0.0986
      7 N           8.2373   -0.4390   18.7245 N.ar    1  UNL1       -0.2439
      8 C           7.3339   -1.5421   19.1902 C.ar    1  UNL1        0.0813
      9 C           7.8612   -2.6077   20.1048 C.ar    1  UNL1        0.0222
     10 C           6.9578   -3.7108   20.5705 C.ar    1  UNL1        0.0384
     11 C           5.5270   -3.7484   20.1216 C.ar    1  UNL1        0.1388
     12 C           4.9997   -2.6828   19.2069 C.ar    1  UNL1        0.0382
     13 C           5.9032   -1.5797   18.7413 C.ar    1  UNL1        0.0190
     14 O           4.6236   -4.8515   20.5873 O.3     1  UNL1       -0.4714
     15 C           3.4565   -5.2716   19.7438 C.3     1  UNL1        0.2525
     16 C           0.7640    1.4794   19.8282 C.3     1  UNL1        0.0381
     17 C           0.8985   -0.0142   19.8635 C.3     1  UNL1        0.0765
     18 N           1.9588   -0.6912   19.0467 N.3     1  UNL1       -0.2712
     19 C           2.8847    0.1253   18.1945 C.3     1  UNL1        0.0722
     20 C           2.7502    1.6188   18.1593 C.3     1  UNL1        0.0177
     21 C           1.6898    2.2959   18.9761 C.3     1  UNL1        0.0082
     22 C           2.3181    1.2378   18.5569 C.3     1  UNL1        0.0192
     23 C           2.3899    0.4413   18.5757 C.3     1  UNL1        0.0888
     24 C          -0.0852    2.3770   22.1136 C.2     1  UNL1       -0.0049
     25 C          -0.2964    2.1564   20.6451 C.2     1  UNL1       -0.0251
@<TRIPOS>BOND
     1    24    25    2
     2    16    25    1
     3    16    17    1
     4    17    18    1
     5    18    19    1
     6    19    20    1
     7    21    20    1
     8    21    22    1
     9    23    22    1
    10    23     1    1
    11     1     2    1
    12     1     4    1
    13     4     5   ar
    14     5     6   ar
    15     6     7   ar
    16     7     8   ar
    17     8     9   ar
    18     9    10   ar
    19    10    11   ar
    20    11    14    1
    21    14    15    1
    22    11    12   ar
    23    12    13   ar
    24    21    16    1
    25    13     4   ar
    26    23    18    1
    27    13     8   ar
    28     2     3    1
