@<TRIPOS>MOLECULE
*****
 14 14 0 0 0
SMALL
GASTEIGER

@<TRIPOS>ATOM
      1 C          -3.2544  -18.7181   22.0982 C.ar    1  UNL1        0.1493
      2 C          -2.2954  -19.3653   21.1436 C.ar    1  UNL1        0.0582
      3 C          -1.2445  -18.5404   20.4616 C.ar    1  UNL1        0.1020
      4 N          -1.1526  -17.0683   20.7342 N.ar    1  UNL1       -0.2415
      5 C          -2.1116  -16.4211   21.6889 C.ar    1  UNL1        0.1101
      6 C          -3.1625  -17.2460   22.3709 C.ar    1  UNL1        0.0947
      7 C          -5.6132  -19.8072   22.0949 C.3     1  UNL1        0.2525
      8 O          -4.3053  -19.5430   22.7802 O.3     1  UNL1       -0.4707
      9 C          -4.1215  -16.5987   23.3256 C.1     1  UNL1       -0.0584
     10 C          -5.0805  -15.9514   24.2802 C.1     1  UNL1       -0.0688
     11 C          -6.0395  -15.3041   25.2349 C.3     1  UNL1        0.1432
     12 N          -7.1154  -14.3963   24.7170 N.3     1  UNL1       -0.3102
     13 H          -6.6905  -13.5628   24.3106 H       1  UNL1        0.1198
     14 H          -7.7298  -14.1248   25.4846 H       1  UNL1        0.1198
@<TRIPOS>BOND
     1     7     8    1
     2     8     1    1
     3     1     2   ar
     4     2     3   ar
     5     3     4   ar
     6     4     5   ar
     7     5     6   ar
     8     6     9    1
     9     9    10    3
    10    10    11    1
    11    11    12    1
    12     6     1   ar
    13    12    13    1
    14    12    14    1
@<TRIPOS>MOLECULE
*****
 14 14 0 0 0
SMALL
GASTEIGER

@<TRIPOS>ATOM
      1 C          -9.2960  -17.2658   23.1691 C.ar    1  UNL1        0.1493
      2 C          -7.9465  -17.2805   22.5145 C.ar    1  UNL1        0.0582
      3 C          -7.6033  -18.3568   21.5277 C.ar    1  UNL1        0.1020
      4 N          -8.6096  -19.4183   21.1954 N.ar    1  UNL1       -0.2415
      5 C          -9.9591  -19.4036   21.8500 C.ar    1  UNL1        0.1101
      6 C         -10.3023  -18.3273   22.8369 C.ar    1  UNL1        0.0947
      7 C          -8.6636  -15.8220   25.2344 C.3     1  UNL1        0.2525
      8 O          -9.6392  -16.1895   24.1559 O.3     1  UNL1       -0.4707
      9 C         -11.6519  -18.3126   23.4915 C.1     1  UNL1       -0.0584
     10 C         -13.0014  -18.2978   24.1461 C.1     1  UNL1       -0.0688
     11 C         -14.3510  -18.2831   24.8008 C.3     1  UNL1        0.1432
     12 N         -14.4852  -18.6435   26.2506 N.3     1  UNL1       -0.3102
     13 H         -14.2431  -19.6258   26.3806 H       1  UNL1        0.1198
     14 H         -15.4471  -18.4876   26.5521 H       1  UNL1        0.1198
@<TRIPOS>BOND
     1     7     8    1
     2     8     1    1
     3     1     2   ar
     4     2     3   ar
     5     3     4   ar
     6     4     5   ar
     7     5     6   ar
     8     6     9    1
     9     9    10    3
    10    10    11    1
    11    11    12    1
    12     6     1   ar
    13    12    13    1
    14    12    14    1
@<TRIPOS>MOLECULE
*****
 14 14 0 0 0
SMALL
GASTEIGER

@<TRIPOS>ATOM
      1 C         -10.2696  -18.7112   21.0909 C.ar    1  UNL1        0.1493
      2 C          -8.9865  -18.9812   20.3623 C.ar    1  UNL1        0.0582
      3 C          -7.8008  -19.5204   21.1062 C.ar    1  UNL1        0.1020
      4 N          -7.8981  -19.7895   22.5786 N.ar    1  UNL1       -0.2415
      5 C          -9.1811  -19.5194   23.3072 C.ar    1  UNL1        0.1101
      6 C         -10.3669  -18.9802   22.5633 C.ar    1  UNL1        0.0947
      7 C         -11.6406  -16.6904   20.2040 C.3     1  UNL1        0.2525
      8 O         -11.4553  -18.1720   20.3470 O.3     1  UNL1       -0.4707
      9 C         -11.6500  -18.7101   23.2920 C.1     1  UNL1       -0.0584
     10 C         -12.9330  -18.4401   24.0205 C.1     1  UNL1       -0.0688
     11 C         -14.2160  -18.1700   24.7492 C.3     1  UNL1        0.1432
     12 N         -14.3874  -18.6367   26.1644 N.3     1  UNL1       -0.3102
     13 H         -14.3889  -19.6564   26.1884 H       1  UNL1        0.1198
     14 H         -15.2716  -18.2866   26.5332 H       1  UNL1        0.1198
@<TRIPOS>BOND
     1     7     8    1
     2     8     1    1
     3     1     2   ar
     4     2     3   ar
     5     3     4   ar
     6     4     5   ar
     7     5     6   ar
     8     6     9    1
     9     9    10    3
    10    10    11    1
    11    11    12    1
    12     6     1   ar
    13    12    13    1
    14    12    14    1
@<TRIPOS>MOLECULE
*****
 14 14 0 0 0
SMALL
GASTEIGER

@<TRIPOS>ATOM
      1 C         -11.0037  -17.7206   23.4176 C.ar    1  UNL1        0.1493
      2 C         -12.3367  -18.1605   22.8889 C.ar    1  UNL1        0.0582
      3 C         -12.8417  -17.6196   21.5842 C.ar    1  UNL1        0.1020
      4 N         -12.0137  -16.6388   20.8081 N.ar    1  UNL1       -0.2415
      5 C         -10.6807  -16.1988   21.3367 C.ar    1  UNL1        0.1101
      6 C         -10.1757  -16.7397   22.6415 C.ar    1  UNL1        0.0947
      7 C         -10.1256  -19.7095   24.8399 C.3     1  UNL1        0.2525
      8 O         -10.4987  -18.2615   24.7223 O.3     1  UNL1       -0.4707
      9 C          -8.8426  -16.2998   23.1701 C.1     1  UNL1       -0.0584
     10 C          -7.5096  -15.8598   23.6988 C.1     1  UNL1       -0.0688
     11 C          -6.1766  -15.4198   24.2274 C.3     1  UNL1        0.1432
     12 N          -5.1745  -14.7910   23.3053 N.3     1  UNL1       -0.3102
     13 H          -4.8669  -15.4786   22.6175 H       1  UNL1        0.1198
     14 H          -4.3718  -14.4674   23.8451 H       1  UNL1        0.1198
@<TRIPOS>BOND
     1     7     8    1
     2     8     1    1
     3     1     2   ar
     4     2     3   ar
     5     3     4   ar
     6     4     5   ar
     7     5     6   ar
     8     6     9    1
     9     9    10    3
    10    10    11    1
    11    11    12    1
    12     6     1   ar
    13    12    13    1
    14    12    14    1
@<TRIPOS>MOLECULE
*****
 14 14 0 0 0
SMALL
GASTEIGER

@<TRIPOS>ATOM
      1 C          -9.3165  -19.1881   22.6965 C.ar    1  UNL1        0.1493
      2 C          -7.9472  -19.0958   22.0911 C.ar    1  UNL1        0.0582
      3 C          -7.4257  -17.7729   21.6138 C.ar    1  UNL1        0.1020
      4 N          -8.2735  -16.5421   21.7419 N.ar    1  UNL1       -0.2415
      5 C          -9.6427  -16.6343   22.3473 C.ar    1  UNL1        0.1101
      6 C         -10.1642  -17.9573   22.8246 C.ar    1  UNL1        0.0947
      7 C          -9.6384  -20.9250   24.6016 C.3     1  UNL1        0.2525
      8 O          -9.8380  -20.5110   23.1737 O.3     1  UNL1       -0.4707
      9 C         -11.5336  -18.0495   23.4300 C.1     1  UNL1       -0.0584
     10 C         -12.9029  -18.1417   24.0354 C.1     1  UNL1       -0.0688
     11 C         -14.2722  -18.2338   24.6408 C.3     1  UNL1        0.1432
     12 N         -14.4310  -18.6227   26.0808 N.3     1  UNL1       -0.3102
     13 H         -14.1226  -19.5865   26.2087 H       1  UNL1        0.1198
     14 H         -15.4117  -18.5411   26.3488 H       1  UNL1        0.1198
@<TRIPOS>BOND
     1     7     8    1
     2     8     1    1
     3     1     2   ar
     4     2     3   ar
     5     3     4   ar
     6     4     5   ar
     7     5     6   ar
     8     6     9    1
     9     9    10    3
    10    10    11    1
    11    11    12    1
    12     6     1   ar
    13    12    13    1
    14    12    14    1
@<TRIPOS>MOLECULE
*****
 14 14 0 0 0
SMALL
GASTEIGER

@<TRIPOS>ATOM
      1 C         -10.4604  -18.5447   22.7713 C.ar    1  UNL1        0.1493
      2 C         -11.8755  -18.1954   23.1252 C.ar    1  UNL1        0.0582
      3 C         -12.8087  -17.6842   22.0680 C.ar    1  UNL1        0.1020
      4 N         -12.3268  -17.5223   20.6568 N.ar    1  UNL1       -0.2415
      5 C         -10.9117  -17.8717   20.3028 C.ar    1  UNL1        0.1101
      6 C          -9.9785  -18.3829   21.3601 C.ar    1  UNL1        0.0947
      7 C          -9.5290  -20.5116   24.1903 C.3     1  UNL1        0.2525
      8 O          -9.5272  -19.0560   23.8285 O.3     1  UNL1       -0.4707
      9 C          -8.5633  -18.7323   21.0061 C.1     1  UNL1       -0.0584
     10 C          -7.1482  -19.0816   20.6522 C.1     1  UNL1       -0.0688
     11 C          -5.7330  -19.4310   20.2981 C.3     1  UNL1        0.1432
     12 N          -4.8998  -18.4702   19.5026 N.3     1  UNL1       -0.3102
     13 H          -5.2917  -18.3754   18.5657 H       1  UNL1        0.1198
     14 H          -3.9445  -18.8217   19.4376 H       1  UNL1        0.1198
@<TRIPOS>BOND
     1     7     8    1
     2     8     1    1
     3     1     2   ar
     4     2     3   ar
     5     3     4   ar
     6     4     5   ar
     7     5     6   ar
     8     6     9    1
     9     9    10    3
    10    10    11    1
    11    11    12    1
    12     6     1   ar
    13    12    13    1
    14    12    14    1
@<TRIPOS>MOLECULE
*****
 14 14 0 0 0
SMALL
GASTEIGER

@<TRIPOS>ATOM
      1 C          -5.1221  -18.8749   22.0628 C.ar    1  UNL1        0.1493
      2 C          -3.8037  -18.8572   21.3478 C.ar    1  UNL1        0.0582
      3 C          -3.5249  -19.8557   20.2637 C.ar    1  UNL1        0.1020
      4 N          -4.5646  -20.8720   19.8947 N.ar    1  UNL1       -0.2415
      5 C          -5.8830  -20.8897   20.6097 C.ar    1  UNL1        0.1101
      6 C          -6.1618  -19.8912   21.6938 C.ar    1  UNL1        0.0947
      7 C          -4.3334  -16.9115   23.5704 C.3     1  UNL1        0.2525
      8 O          -5.4009  -17.8764   23.1469 O.3     1  UNL1       -0.4707
      9 C          -7.4803  -19.9090   22.4089 C.1     1  UNL1       -0.0584
     10 C          -8.7988  -19.9268   23.1239 C.1     1  UNL1       -0.0688
     11 C         -10.1173  -19.9446   23.8390 C.3     1  UNL1        0.1432
     12 N         -10.1676  -20.2196   25.3127 N.3     1  UNL1       -0.3102
     13 H          -9.8641  -21.1771   25.4904 H       1  UNL1        0.1198
     14 H         -11.1229  -20.0978   25.6489 H       1  UNL1        0.1198
@<TRIPOS>BOND
     1     7     8    1
     2     8     1    1
     3     1     2   ar
     4     2     3   ar
     5     3     4   ar
     6     4     5   ar
     7     5     6   ar
     8     6     9    1
     9     9    10    3
    10    10    11    1
    11    11    12    1
    12     6     1   ar
    13    12    13    1
    14    12    14    1
@<TRIPOS>MOLECULE
*****
 14 14 0 0 0
SMALL
GASTEIGER

@<TRIPOS>ATOM
      1 C         -11.0661  -17.6076   22.0850 C.ar    1  UNL1        0.1493
      2 C         -11.4846  -18.2760   20.8090 C.ar    1  UNL1        0.0582
      3 C         -10.4485  -18.8452   19.8857 C.ar    1  UNL1        0.1020
      4 N          -8.9940  -18.7460   20.2383 N.ar    1  UNL1       -0.2415
      5 C          -8.5755  -18.0776   21.5142 C.ar    1  UNL1        0.1101
      6 C          -9.6115  -17.5084   22.4376 C.ar    1  UNL1        0.0947
      7 C         -13.2564  -17.8862   23.4543 C.3     1  UNL1        0.2525
      8 O         -12.1022  -17.0383   23.0083 O.3     1  UNL1       -0.4707
      9 C          -9.1930  -16.8399   23.7136 C.1     1  UNL1       -0.0584
     10 C          -8.7744  -16.1716   24.9895 C.1     1  UNL1       -0.0688
     11 C          -8.3559  -15.5031   26.2655 C.3     1  UNL1        0.1432
     12 N          -6.9404  -15.0381   26.4393 N.3     1  UNL1       -0.3102
     13 H          -6.3171  -15.8453   26.4570 H       1  UNL1        0.1198
     14 H          -6.8565  -14.5245   27.3165 H       1  UNL1        0.1198
@<TRIPOS>BOND
     1     7     8    1
     2     8     1    1
     3     1     2   ar
     4     2     3   ar
     5     3     4   ar
     6     4     5   ar
     7     5     6   ar
     8     6     9    1
     9     9    10    3
    10    10    11    1
    11    11    12    1
    12     6     1   ar
    13    12    13    1
    14    12    14    1
@<TRIPOS>MOLECULE
*****
 14 14 0 0 0
SMALL
GASTEIGER

@<TRIPOS>ATOM
      1 C          -7.4126  -16.3508   23.2766 C.ar    1  UNL1        0.1493
      2 C          -6.0756  -15.9120   23.7959 C.ar    1  UNL1        0.0582
      3 C          -5.9451  -15.4127   25.2044 C.ar    1  UNL1        0.1020
      4 N          -7.1516  -15.3523   26.0935 N.ar    1  UNL1       -0.2415
      5 C          -8.4886  -15.7912   25.5742 C.ar    1  UNL1        0.1101
      6 C          -8.6191  -16.2904   24.1657 C.ar    1  UNL1        0.0947
      7 C          -7.4149  -18.3158   21.5771 C.3     1  UNL1        0.2525
      8 O          -7.5431  -16.8500   21.8681 O.3     1  UNL1       -0.4707
      9 C          -9.9563  -16.7292   23.6464 C.1     1  UNL1       -0.0584
     10 C         -11.2933  -17.1681   23.1271 C.1     1  UNL1       -0.0688
     11 C         -12.6304  -17.6069   22.6077 C.3     1  UNL1        0.1432
     12 N         -12.9078  -17.5810   21.1339 N.3     1  UNL1       -0.3102
     13 H         -12.9051  -16.6157   20.8043 H       1  UNL1        0.1198
     14 H         -13.8200  -17.9997   20.9522 H       1  UNL1        0.1198
@<TRIPOS>BOND
     1     7     8    1
     2     8     1    1
     3     1     2   ar
     4     2     3   ar
     5     3     4   ar
     6     4     5   ar
     7     5     6   ar
     8     6     9    1
     9     9    10    3
    10    10    11    1
    11    11    12    1
    12     6     1   ar
    13    12    13    1
    14    12    14    1
