@<TRIPOS>MOLECULE
*****
 31 34 0 0 0
SMALL
GASTEIGER

@<TRIPOS>ATOM
      1 C          -1.2891    3.3053   25.5699 C.ar    1  UNL1        0.1399
      2 C          -0.8583    2.4038   26.6887 C.ar    1  UNL1        0.0370
      3 C           0.0565    1.2481   26.4108 C.ar    1  UNL1        0.0046
      4 C           0.5405    0.9938   25.0140 C.ar    1  UNL1        0.0191
      5 C           0.1097    1.8952   23.8952 C.ar    1  UNL1        0.0852
      6 C          -0.8051    3.0510   24.1732 C.ar    1  UNL1        0.0503
      7 C          -1.0586    3.7635   22.8778 C.ar    1  UNL1        0.0172
      8 C          -0.3004    3.0481   21.7992 C.ar    1  UNL1        0.0971
      9 N           0.4216    1.8934   22.4280 N.ar    1  UNL1       -0.2079
     10 S           1.3012    0.9097   21.7148 S.O2    1  UNL1        0.0860
     11 O           2.5101    1.5300   22.3501 O.2     1  UNL1       -0.1476
     12 O           0.0923    0.2893   21.0795 O.2     1  UNL1       -0.1476
     13 C           2.1807   -0.0741   21.0016 C.ar    1  UNL1        0.1277
     14 C           2.2859   -0.0393   19.5057 C.ar    1  UNL1        0.0201
     15 C           3.1654   -1.0231   18.7926 C.ar    1  UNL1       -0.0029
     16 C           3.9397   -2.0418   19.5754 C.ar    1  UNL1       -0.0224
     17 C           3.8345   -2.0766   21.0713 C.ar    1  UNL1       -0.0029
     18 C           2.9550   -1.0928   21.7844 C.ar    1  UNL1        0.0201
     19 C           4.8192   -3.0256   18.8622 C.3     1  UNL1        0.0224
     20 C           6.0790   -2.5592   18.1949 C.3     1  UNL1        0.0047
     21 C           4.4388   -4.4759   18.8162 C.3     1  UNL1        0.0047
     22 C          -3.5358    4.2244   26.4961 C.3     1  UNL1        0.2525
     23 O          -2.2040    4.4611   25.8479 O.3     1  UNL1       -0.4714
     24 C          -1.9191    4.9782   22.6933 C.3     1  UNL1        0.1009
     25 N          -3.4027    4.8838   22.8942 N.3     1  UNL1       -0.2665
     26 C          -4.1792    6.0918   23.3275 C.3     1  UNL1        0.0899
     27 C          -5.6627    5.9974   23.5283 C.3     1  UNL1        0.0897
     28 N          -6.3696    4.6950   23.2959 N.3     1  UNL1       -0.2691
     29 C          -7.8531    4.6007   23.4968 C.3     1  UNL1        0.0897
     30 C          -5.5931    3.4870   22.8626 C.3     1  UNL1        0.0897
     31 C          -4.1097    3.5814   22.6618 C.3     1  UNL1        0.0899
@<TRIPOS>BOND
     1    22    23    1
     2    23     1    1
     3     1     2   ar
     4     2     3   ar
     5     3     4   ar
     6     4     5   ar
     7     5     6   ar
     8     6     7   ar
     9     7    24    1
    10    24    25    1
    11    25    26    1
    12    26    27    1
    13    27    28    1
    14    28    29    1
    15    28    30    1
    16    30    31    1
    17     7     8   ar
    18     8     9   ar
    19     9    10    1
    20    10    11    2
    21    10    12    2
    22    10    13    1
    23    13    14   ar
    24    14    15   ar
    25    15    16   ar
    26    16    19    1
    27    19    20    1
    28    19    21    1
    29    16    17   ar
    30    17    18   ar
    31     6     1   ar
    32    31    25    1
    33    18    13   ar
    34     9     5   ar
@<TRIPOS>MOLECULE
*****
 31 34 0 0 0
SMALL
GASTEIGER

@<TRIPOS>ATOM
      1 C           4.8437   -0.7103   34.3387 C.ar    1  UNL1        0.1399
      2 C           5.0024   -1.9672   33.5358 C.ar    1  UNL1        0.0370
      3 C           4.3243   -2.0972   32.2041 C.ar    1  UNL1        0.0046
      4 C           3.4876   -0.9701   31.6754 C.ar    1  UNL1        0.0191
      5 C           3.3289    0.2868   32.4784 C.ar    1  UNL1        0.0852
      6 C           4.0070    0.4168   33.8100 C.ar    1  UNL1        0.0503
      7 C           3.6699    1.7660   34.3721 C.ar    1  UNL1        0.0172
      8 C           2.7835    2.4700   33.3879 C.ar    1  UNL1        0.0971
      9 N           2.5727    1.5558   32.2175 N.ar    1  UNL1       -0.2079
     10 S           1.7502    1.8575   30.9999 S.O2    1  UNL1        0.0860
     11 O           0.4970    1.5997   31.7826 O.2     1  UNL1       -0.1476
     12 O           3.0036    2.1154   30.2172 O.2     1  UNL1       -0.1476
     13 C           0.9278    2.1593   29.7823 C.ar    1  UNL1        0.1277
     14 C           0.1510    1.0653   29.1118 C.ar    1  UNL1        0.0201
     15 C          -0.6714    1.3671   27.8943 C.ar    1  UNL1       -0.0029
     16 C          -0.7170    2.7630   27.3471 C.ar    1  UNL1       -0.0224
     17 C           0.0599    3.8571   28.0176 C.ar    1  UNL1       -0.0029
     18 C           0.8823    3.5552   29.2352 C.ar    1  UNL1        0.0201
     19 C          -1.5394    3.0648   26.1295 C.3     1  UNL1        0.0224
     20 C          -2.9166    3.6401   26.2783 C.3     1  UNL1        0.0047
     21 C          -0.9845    2.7911   24.7630 C.3     1  UNL1        0.0047
     22 C           6.9337   -0.0797   35.7474 C.3     1  UNL1        0.2525
     23 O           5.5218   -0.5803   35.6704 O.3     1  UNL1       -0.4714
     24 C           4.1372    2.3149   35.6876 C.3     1  UNL1        0.1009
     25 N           3.2546    2.2183   36.8967 N.3     1  UNL1       -0.2665
     26 C           2.2793    3.3161   37.2029 C.3     1  UNL1        0.0899
     27 C           1.3968    3.2195   38.4119 C.3     1  UNL1        0.0897
     28 N           1.4895    2.0252   39.3147 N.3     1  UNL1       -0.2691
     29 C           0.6070    1.9287   40.5238 C.3     1  UNL1        0.0897
     30 C           2.4648    0.9274   39.0085 C.3     1  UNL1        0.0897
     31 C           3.3473    1.0241   37.7995 C.3     1  UNL1        0.0899
@<TRIPOS>BOND
     1    22    23    1
     2    23     1    1
     3     1     2   ar
     4     2     3   ar
     5     3     4   ar
     6     4     5   ar
     7     5     6   ar
     8     6     7   ar
     9     7    24    1
    10    24    25    1
    11    25    26    1
    12    26    27    1
    13    27    28    1
    14    28    29    1
    15    28    30    1
    16    30    31    1
    17     7     8   ar
    18     8     9   ar
    19     9    10    1
    20    10    11    2
    21    10    12    2
    22    10    13    1
    23    13    14   ar
    24    14    15   ar
    25    15    16   ar
    26    16    19    1
    27    19    20    1
    28    19    21    1
    29    16    17   ar
    30    17    18   ar
    31     6     1   ar
    32    31    25    1
    33    18    13   ar
    34     9     5   ar
@<TRIPOS>MOLECULE
*****
 31 34 0 0 0
SMALL
GASTEIGER

@<TRIPOS>ATOM
      1 C          -2.3047    5.4583   18.9535 C.ar    1  UNL1        0.1399
      2 C          -2.3077    5.4056   17.4544 C.ar    1  UNL1        0.0370
      3 C          -1.4847    4.3760   16.7385 C.ar    1  UNL1        0.0046
      4 C          -0.6586    3.3991   17.5216 C.ar    1  UNL1        0.0191
      5 C          -0.6556    3.4519   19.0207 C.ar    1  UNL1        0.0852
      6 C          -1.4786    4.4815   19.7366 C.ar    1  UNL1        0.0503
      7 C          -1.2777    4.2922   21.2110 C.ar    1  UNL1        0.0172
      8 C          -0.3305    3.1456   21.4063 C.ar    1  UNL1        0.0971
      9 N           0.0540    2.6263   20.0526 N.ar    1  UNL1       -0.2079
     10 S           0.9846    1.4822   19.7789 S.O2    1  UNL1        0.0860
     11 O          -0.0643    0.5171   20.2461 O.2     1  UNL1       -0.1476
     12 O           2.0336    2.4472   19.3117 O.2     1  UNL1       -0.1476
     13 C           1.9154    0.3381   19.5051 C.ar    1  UNL1        0.1277
     14 C           2.0810   -0.7536   20.5204 C.ar    1  UNL1        0.0201
     15 C           3.0116   -1.8975   20.2466 C.ar    1  UNL1       -0.0029
     16 C           3.7768   -1.9499   18.9574 C.ar    1  UNL1       -0.0224
     17 C           3.6112   -0.8582   17.9421 C.ar    1  UNL1       -0.0029
     18 C           2.6805    0.2858   18.2160 C.ar    1  UNL1        0.0201
     19 C           4.7075   -3.0939   18.6837 C.3     1  UNL1        0.0224
     20 C           4.2564   -4.5032   18.9295 C.3     1  UNL1        0.0047
     21 C           6.0895   -2.8287   18.1640 C.3     1  UNL1        0.0047
     22 C          -4.6237    6.4579   19.5643 C.3     1  UNL1        0.2525
     23 O          -3.1277    6.4880   19.6694 O.3     1  UNL1       -0.4714
     24 C          -1.9125    5.1065   22.2990 C.3     1  UNL1        0.1009
     25 N          -3.3741    4.9494   22.5979 N.3     1  UNL1       -0.2665
     26 C          -4.1305    6.0678   23.2514 C.3     1  UNL1        0.0899
     27 C          -5.5919    5.9106   23.5502 C.3     1  UNL1        0.0897
     28 N          -6.2971    4.6350   23.1955 N.3     1  UNL1       -0.2691
     29 C          -7.7585    4.4779   23.4944 C.3     1  UNL1        0.0897
     30 C          -5.5407    3.5166   22.5421 C.3     1  UNL1        0.0897
     31 C          -4.0792    3.6738   22.2433 C.3     1  UNL1        0.0899
@<TRIPOS>BOND
     1    22    23    1
     2    23     1    1
     3     1     2   ar
     4     2     3   ar
     5     3     4   ar
     6     4     5   ar
     7     5     6   ar
     8     6     7   ar
     9     7    24    1
    10    24    25    1
    11    25    26    1
    12    26    27    1
    13    27    28    1
    14    28    29    1
    15    28    30    1
    16    30    31    1
    17     7     8   ar
    18     8     9   ar
    19     9    10    1
    20    10    11    2
    21    10    12    2
    22    10    13    1
    23    13    14   ar
    24    14    15   ar
    25    15    16   ar
    26    16    19    1
    27    19    20    1
    28    19    21    1
    29    16    17   ar
    30    17    18   ar
    31     6     1   ar
    32    31    25    1
    33    18    13   ar
    34     9     5   ar
@<TRIPOS>MOLECULE
*****
 31 34 0 0 0
SMALL
GASTEIGER

@<TRIPOS>ATOM
      1 C          -1.4950    3.2835   25.3852 C.ar    1  UNL1        0.1399
      2 C          -1.0256    2.4271   26.5237 C.ar    1  UNL1        0.0370
      3 C          -0.0585    1.3086   26.2717 C.ar    1  UNL1        0.0046
      4 C           0.4393    1.0464   24.8813 C.ar    1  UNL1        0.0191
      5 C          -0.0300    1.9029   23.7428 C.ar    1  UNL1        0.0852
      6 C          -0.9971    3.0214   23.9947 C.ar    1  UNL1        0.0503
      7 C          -1.2803    3.6934   22.6839 C.ar    1  UNL1        0.0172
      8 C          -0.4882    2.9902   21.6218 C.ar    1  UNL1        0.0971
      9 N           0.2845    1.8836   22.2762 N.ar    1  UNL1       -0.2079
     10 S           1.2094    0.9258   21.5854 S.O2    1  UNL1        0.0860
     11 O           2.3892    1.6379   22.1776 O.2     1  UNL1       -0.1476
     12 O           0.0296    0.2136   20.9932 O.2     1  UNL1       -0.1476
     13 C           2.1343   -0.0321   20.8946 C.ar    1  UNL1        0.1277
     14 C           2.8648   -1.0741   21.6886 C.ar    1  UNL1        0.0201
     15 C           3.7895   -2.0318   20.9977 C.ar    1  UNL1       -0.0029
     16 C           3.9839   -1.9476   19.5127 C.ar    1  UNL1       -0.0224
     17 C           3.2534   -0.9056   18.7187 C.ar    1  UNL1       -0.0029
     18 C           2.3286    0.0522   19.4096 C.ar    1  UNL1        0.0201
     19 C           4.9087   -2.9054   18.8219 C.3     1  UNL1        0.0224
     20 C           4.5818   -4.3689   18.7846 C.3     1  UNL1        0.0047
     21 C           6.1607   -2.3998   18.1684 C.3     1  UNL1        0.0047
     22 C          -3.9012    4.0974   25.9307 C.3     1  UNL1        0.2525
     23 O          -2.4621    4.4021   25.6371 O.3     1  UNL1       -0.4714
     24 C          -2.1951    4.8632   22.4723 C.3     1  UNL1        0.1009
     25 N          -3.3413    4.7547   21.5107 N.3     1  UNL1       -0.2665
     26 C          -4.0576    3.4477   21.3420 C.3     1  UNL1        0.0899
     27 C          -5.2037    3.3393   20.3804 C.3     1  UNL1        0.0897
     28 N          -5.6335    4.5379   19.5876 N.3     1  UNL1       -0.2691
     29 C          -6.7797    4.4294   18.6261 C.3     1  UNL1        0.0897
     30 C          -4.9172    5.8450   19.7563 C.3     1  UNL1        0.0897
     31 C          -3.7711    5.9534   20.7179 C.3     1  UNL1        0.0899
@<TRIPOS>BOND
     1    22    23    1
     2    23     1    1
     3     1     2   ar
     4     2     3   ar
     5     3     4   ar
     6     4     5   ar
     7     5     6   ar
     8     6     7   ar
     9     7    24    1
    10    24    25    1
    11    25    26    1
    12    26    27    1
    13    27    28    1
    14    28    29    1
    15    28    30    1
    16    30    31    1
    17     7     8   ar
    18     8     9   ar
    19     9    10    1
    20    10    11    2
    21    10    12    2
    22    10    13    1
    23    13    14   ar
    24    14    15   ar
    25    15    16   ar
    26    16    19    1
    27    19    20    1
    28    19    21    1
    29    16    17   ar
    30    17    18   ar
    31     6     1   ar
    32    31    25    1
    33    18    13   ar
    34     9     5   ar
@<TRIPOS>MOLECULE
*****
 31 34 0 0 0
SMALL
GASTEIGER

@<TRIPOS>ATOM
      1 C           4.9382   -2.6859   18.4223 C.ar    1  UNL1        0.1399
      2 C           3.6835   -3.5013   18.5259 C.ar    1  UNL1        0.0370
      3 C           3.5098   -4.4698   19.6581 C.ar    1  UNL1        0.0046
      4 C           4.5907   -4.6228   20.6867 C.ar    1  UNL1        0.0191
      5 C           5.8454   -3.8073   20.5831 C.ar    1  UNL1        0.0852
      6 C           6.0191   -2.8389   19.4509 C.ar    1  UNL1        0.0503
      7 C           7.3553   -2.1758   19.6090 C.ar    1  UNL1        0.0172
      8 C           8.0074   -2.7345   20.8389 C.ar    1  UNL1        0.0971
      9 N           7.0742   -3.7428   21.4409 N.ar    1  UNL1       -0.2079
     10 S           7.3257   -4.5457   22.6828 S.O2    1  UNL1        0.0860
     11 O           8.0945   -5.5507   21.8774 O.2     1  UNL1       -0.1476
     12 O           6.5568   -3.5406   23.4882 O.2     1  UNL1       -0.1476
     13 C           7.5771   -5.3485   23.9247 C.ar    1  UNL1        0.1277
     14 C           7.0786   -4.8550   25.2506 C.ar    1  UNL1        0.0201
     15 C           7.3300   -5.6578   26.4924 C.ar    1  UNL1       -0.0029
     16 C           8.0800   -6.9542   26.4084 C.ar    1  UNL1       -0.0224
     17 C           8.5785   -7.4477   25.0825 C.ar    1  UNL1       -0.0029
     18 C           8.3270   -6.6448   23.8407 C.ar    1  UNL1        0.0201
     19 C           8.3314   -7.7570   27.6502 C.3     1  UNL1        0.0224
     20 C           8.2820   -9.2552   27.5977 C.3     1  UNL1        0.0047
     21 C           8.6322   -7.0614   28.9448 C.3     1  UNL1        0.0047
     22 C           4.0030   -0.7718   16.9351 C.3     1  UNL1        0.2525
     23 O           5.1119   -1.7174   17.2900 O.3     1  UNL1       -0.4714
     24 C           7.9372   -1.1366   18.6972 C.3     1  UNL1        0.1009
     25 N           7.2352    0.1759   18.5112 N.3     1  UNL1       -0.2665
     26 C           7.3638    0.9181   17.2140 C.3     1  UNL1        0.0899
     27 C           6.6618    2.2305   17.0281 C.3     1  UNL1        0.0897
     28 N           5.8310    2.8008   18.1393 N.3     1  UNL1       -0.2691
     29 C           5.1290    4.1132   17.9533 C.3     1  UNL1        0.0897
     30 C           5.7024    2.0586   19.4365 C.3     1  UNL1        0.0897
     31 C           6.4044    0.7462   19.6224 C.3     1  UNL1        0.0899
@<TRIPOS>BOND
     1    22    23    1
     2    23     1    1
     3     1     2   ar
     4     2     3   ar
     5     3     4   ar
     6     4     5   ar
     7     5     6   ar
     8     6     7   ar
     9     7    24    1
    10    24    25    1
    11    25    26    1
    12    26    27    1
    13    27    28    1
    14    28    29    1
    15    28    30    1
    16    30    31    1
    17     7     8   ar
    18     8     9   ar
    19     9    10    1
    20    10    11    2
    21    10    12    2
    22    10    13    1
    23    13    14   ar
    24    14    15   ar
    25    15    16   ar
    26    16    19    1
    27    19    20    1
    28    19    21    1
    29    16    17   ar
    30    17    18   ar
    31     6     1   ar
    32    31    25    1
    33    18    13   ar
    34     9     5   ar
@<TRIPOS>MOLECULE
*****
 31 34 0 0 0
SMALL
GASTEIGER

@<TRIPOS>ATOM
      1 C           0.8411    2.5208   28.1620 C.ar    1  UNL1        0.1399
      2 C          -0.5209    2.5489   27.5345 C.ar    1  UNL1        0.0370
      3 C          -0.7537    1.8714   26.2166 C.ar    1  UNL1        0.0046
      4 C           0.3757    1.1659   25.5262 C.ar    1  UNL1        0.0191
      5 C           1.7378    1.1378   26.1538 C.ar    1  UNL1        0.0852
      6 C           1.9705    1.8153   27.4717 C.ar    1  UNL1        0.0503
      7 C           3.4105    1.6217   27.8444 C.ar    1  UNL1        0.0172
      8 C           4.0678    0.8247   26.7569 C.ar    1  UNL1        0.0971
      9 N           3.0340    0.5256   25.7121 N.ar    1  UNL1       -0.2079
     10 S           3.2571   -0.2497   24.4474 S.O2    1  UNL1        0.0860
     11 O           3.6008   -1.4666   25.2541 O.2     1  UNL1       -0.1476
     12 O           2.9135    0.9674   23.6407 O.2     1  UNL1       -0.1476
     13 C           3.4803   -1.0248   23.1828 C.ar    1  UNL1        0.1277
     14 C           2.8230   -0.5857   21.9079 C.ar    1  UNL1        0.0201
     15 C           3.0462   -1.3608   20.6434 C.ar    1  UNL1       -0.0029
     16 C           3.9267   -2.5753   20.6535 C.ar    1  UNL1       -0.0224
     17 C           4.5839   -3.0144   21.9283 C.ar    1  UNL1       -0.0029
     18 C           4.3607   -2.2392   23.1929 C.ar    1  UNL1        0.0201
     19 C           4.1498   -3.3504   19.3889 C.3     1  UNL1        0.0224
     20 C           5.0002   -2.7740   18.2960 C.3     1  UNL1        0.0047
     21 C           3.5224   -4.7021   19.2171 C.3     1  UNL1        0.0047
     22 C           0.6961    2.5064   30.7560 C.3     1  UNL1        0.2525
     23 O           1.0739    3.1983   29.4799 O.3     1  UNL1       -0.4714
     24 C           4.0764    2.1352   29.0866 C.3     1  UNL1        0.1009
     25 N           4.1441    1.2731   30.3123 N.3     1  UNL1       -0.2665
     26 C           4.8781    1.7549   31.5285 C.3     1  UNL1        0.0899
     27 C           4.9458    0.8928   32.7541 C.3     1  UNL1        0.0897
     28 N           4.2796   -0.4511   32.7636 N.3     1  UNL1       -0.2691
     29 C           4.3474   -1.3132   33.9892 C.3     1  UNL1        0.0897
     30 C           3.5456   -0.9329   31.5474 C.3     1  UNL1        0.0897
     31 C           3.4779   -0.0708   30.3218 C.3     1  UNL1        0.0899
@<TRIPOS>BOND
     1    22    23    1
     2    23     1    1
     3     1     2   ar
     4     2     3   ar
     5     3     4   ar
     6     4     5   ar
     7     5     6   ar
     8     6     7   ar
     9     7    24    1
    10    24    25    1
    11    25    26    1
    12    26    27    1
    13    27    28    1
    14    28    29    1
    15    28    30    1
    16    30    31    1
    17     7     8   ar
    18     8     9   ar
    19     9    10    1
    20    10    11    2
    21    10    12    2
    22    10    13    1
    23    13    14   ar
    24    14    15   ar
    25    15    16   ar
    26    16    19    1
    27    19    20    1
    28    19    21    1
    29    16    17   ar
    30    17    18   ar
    31     6     1   ar
    32    31    25    1
    33    18    13   ar
    34     9     5   ar
@<TRIPOS>MOLECULE
*****
 31 34 0 0 0
SMALL
GASTEIGER

@<TRIPOS>ATOM
      1 C           8.6329   -7.1660   25.7419 C.ar    1  UNL1        0.1399
      2 C           9.4496   -7.9102   24.7274 C.ar    1  UNL1        0.0370
      3 C           9.4468   -7.4700   23.2934 C.ar    1  UNL1        0.0046
      4 C           8.6273   -6.2858   22.8740 C.ar    1  UNL1        0.0191
      5 C           7.8106   -5.5417   23.8885 C.ar    1  UNL1        0.0852
      6 C           7.8134   -5.9818   25.3224 C.ar    1  UNL1        0.0503
      7 C           6.9158   -5.0590   26.0923 C.ar    1  UNL1        0.0172
      8 C           6.3583   -4.0485   25.1342 C.ar    1  UNL1        0.0971
      9 N           6.9113   -4.3468   23.7721 N.ar    1  UNL1       -0.2079
     10 S           6.6167   -3.5842   22.5145 S.O2    1  UNL1        0.0860
     11 O           7.8989   -2.8230   22.6757 O.2     1  UNL1       -0.1476
     12 O           5.3343   -4.3455   22.3532 O.2     1  UNL1       -0.1476
     13 C           6.3220   -2.8217   21.2568 C.ar    1  UNL1        0.1277
     14 C           5.4360   -3.4219   20.2058 C.ar    1  UNL1        0.0201
     15 C           5.1414   -2.6594   18.9483 C.ar    1  UNL1       -0.0029
     16 C           5.7328   -1.2964   18.7416 C.ar    1  UNL1       -0.0224
     17 C           6.6188   -0.6961   19.7925 C.ar    1  UNL1       -0.0029
     18 C           6.9134   -1.4588   21.0502 C.ar    1  UNL1        0.0201
     19 C           5.4381   -0.5339   17.4840 C.3     1  UNL1        0.0224
     20 C           4.1132   -0.6981   16.8002 C.3     1  UNL1        0.0047
     21 C           6.4685    0.3930   16.9100 C.3     1  UNL1        0.0047
     22 C           8.2338   -9.0069   27.5313 C.3     1  UNL1        0.2525
     23 O           8.6357   -7.6062   27.1759 O.3     1  UNL1       -0.4714
     24 C           6.6266   -5.1335   27.5623 C.3     1  UNL1        0.1009
     25 N           7.3530   -4.2321   28.5163 N.3     1  UNL1       -0.2665
     26 C           8.6895   -3.6639   28.1410 C.3     1  UNL1        0.0899
     27 C           9.4158   -2.7626   29.0950 C.3     1  UNL1        0.0897
     28 N           8.8056   -2.4295   30.4242 N.3     1  UNL1       -0.2691
     29 C           9.5320   -1.5282   31.3781 C.3     1  UNL1        0.0897
     30 C           7.4691   -2.9977   30.7994 C.3     1  UNL1        0.0897
     31 C           6.7428   -3.8990   29.8454 C.3     1  UNL1        0.0899
@<TRIPOS>BOND
     1    22    23    1
     2    23     1    1
     3     1     2   ar
     4     2     3   ar
     5     3     4   ar
     6     4     5   ar
     7     5     6   ar
     8     6     7   ar
     9     7    24    1
    10    24    25    1
    11    25    26    1
    12    26    27    1
    13    27    28    1
    14    28    29    1
    15    28    30    1
    16    30    31    1
    17     7     8   ar
    18     8     9   ar
    19     9    10    1
    20    10    11    2
    21    10    12    2
    22    10    13    1
    23    13    14   ar
    24    14    15   ar
    25    15    16   ar
    26    16    19    1
    27    19    20    1
    28    19    21    1
    29    16    17   ar
    30    17    18   ar
    31     6     1   ar
    32    31    25    1
    33    18    13   ar
    34     9     5   ar
@<TRIPOS>MOLECULE
*****
 31 34 0 0 0
SMALL
GASTEIGER

@<TRIPOS>ATOM
      1 C           6.6729    0.0331   19.3812 C.ar    1  UNL1        0.1399
      2 C           7.9888    0.6343   19.7771 C.ar    1  UNL1        0.0370
      3 C           8.7788    0.0351   20.9027 C.ar    1  UNL1        0.0046
      4 C           8.2528   -1.1653   21.6323 C.ar    1  UNL1        0.0191
      5 C           6.9369   -1.7664   21.2363 C.ar    1  UNL1        0.0852
      6 C           6.1469   -1.1672   20.1108 C.ar    1  UNL1        0.0503
      7 C           4.8914   -1.9713   19.9462 C.ar    1  UNL1        0.0172
      8 C           4.9053   -3.0675   20.9700 C.ar    1  UNL1        0.0971
      9 N           6.1695   -2.9408   21.7674 N.ar    1  UNL1       -0.2079
     10 S           6.5922   -3.8321   22.8974 S.O2    1  UNL1        0.0860
     11 O           5.8741   -2.9422   23.8680 O.2     1  UNL1       -0.1476
     12 O           7.3104   -4.7222   21.9267 O.2     1  UNL1       -0.1476
     13 C           7.0150   -4.7235   24.0274 C.ar    1  UNL1        0.1277
     14 C           6.5807   -4.4143   25.4294 C.ar    1  UNL1        0.0201
     15 C           7.0035   -5.3057   26.5593 C.ar    1  UNL1       -0.0029
     16 C           7.8606   -6.5063   26.2871 C.ar    1  UNL1       -0.0224
     17 C           8.2948   -6.8155   24.8851 C.ar    1  UNL1       -0.0029
     18 C           7.8720   -5.9241   23.7552 C.ar    1  UNL1        0.0201
     19 C           8.2833   -7.3976   27.4171 C.3     1  UNL1        0.0224
     20 C           8.5199   -8.8584   27.1720 C.3     1  UNL1        0.0047
     21 C           8.4694   -6.8281   28.7923 C.3     1  UNL1        0.0047
     22 C           6.2892    0.3763   16.8346 C.3     1  UNL1        0.2525
     23 O           5.8829    0.6324   18.2556 O.3     1  UNL1       -0.4714
     24 C           3.8114   -1.7228   18.9352 C.3     1  UNL1        0.1009
     25 N           2.7340   -0.7187   19.2201 N.3     1  UNL1       -0.2665
     26 C           1.9444   -0.8065   20.4924 C.3     1  UNL1        0.0899
     27 C           0.8671    0.1976   20.7772 C.3     1  UNL1        0.0897
     28 N           0.5794    1.2895   19.7898 N.3     1  UNL1       -0.2691
     29 C          -0.4980    2.2935   20.0746 C.3     1  UNL1        0.0897
     30 C           1.3690    1.3773   18.5174 C.3     1  UNL1        0.0897
     31 C           2.4463    0.3732   18.2327 C.3     1  UNL1        0.0899
@<TRIPOS>BOND
     1    22    23    1
     2    23     1    1
     3     1     2   ar
     4     2     3   ar
     5     3     4   ar
     6     4     5   ar
     7     5     6   ar
     8     6     7   ar
     9     7    24    1
    10    24    25    1
    11    25    26    1
    12    26    27    1
    13    27    28    1
    14    28    29    1
    15    28    30    1
    16    30    31    1
    17     7     8   ar
    18     8     9   ar
    19     9    10    1
    20    10    11    2
    21    10    12    2
    22    10    13    1
    23    13    14   ar
    24    14    15   ar
    25    15    16   ar
    26    16    19    1
    27    19    20    1
    28    19    21    1
    29    16    17   ar
    30    17    18   ar
    31     6     1   ar
    32    31    25    1
    33    18    13   ar
    34     9     5   ar
@<TRIPOS>MOLECULE
*****
 31 34 0 0 0
SMALL
GASTEIGER

@<TRIPOS>ATOM
      1 C           4.4364    0.7958   18.5051 C.ar    1  UNL1        0.1399
      2 C           4.6265    2.2387   18.1420 C.ar    1  UNL1        0.0370
      3 C           3.8547    3.3021   18.8655 C.ar    1  UNL1        0.0046
      4 C           2.8929    2.9227   19.9522 C.ar    1  UNL1        0.0191
      5 C           2.7029    1.4798   20.3154 C.ar    1  UNL1        0.0852
      6 C           3.4747    0.4164   19.5918 C.ar    1  UNL1        0.0503
      7 C           3.0806   -0.9129   20.1644 C.ar    1  UNL1        0.0172
      8 C           2.0654   -0.6710   21.2418 C.ar    1  UNL1        0.0971
      9 N           1.8319    0.8078   21.3351 N.ar    1  UNL1       -0.2079
     10 S           0.8925    1.4941   22.2818 S.O2    1  UNL1        0.0860
     11 O          -0.2199    1.3440   21.2869 O.2     1  UNL1       -0.1476
     12 O           2.0048    1.6442   23.2769 O.2     1  UNL1       -0.1476
     13 C          -0.0470    2.1804   23.2287 C.ar    1  UNL1        0.1277
     14 C           0.0020    1.8649   24.6943 C.ar    1  UNL1        0.0201
     15 C          -0.9374    2.5512   25.6410 C.ar    1  UNL1       -0.0029
     16 C          -1.9259    3.5531   25.1222 C.ar    1  UNL1       -0.0224
     17 C          -1.9749    3.8686   23.6566 C.ar    1  UNL1       -0.0029
     18 C          -1.0354    3.1823   22.7099 C.ar    1  UNL1        0.0201
     19 C          -2.8652    4.2394   26.0691 C.3     1  UNL1        0.0224
     20 C          -4.3305    3.9203   26.0349 C.3     1  UNL1        0.0047
     21 C          -2.3393    5.2449   27.0501 C.3     1  UNL1        0.0047
     22 C           6.5079    0.0718   17.1142 C.3     1  UNL1        0.2525
     23 O           5.2082   -0.2676   17.7816 O.3     1  UNL1       -0.4714
     24 C           3.6091   -2.2494   19.7350 C.3     1  UNL1        0.1009
     25 N           4.7083   -2.9073   20.5155 N.3     1  UNL1       -0.2665
     26 C           4.5106   -3.2241   21.9683 C.3     1  UNL1        0.0899
     27 C           5.6098   -3.8819   22.7487 C.3     1  UNL1        0.0897
     28 N           6.9065   -4.2231   22.0763 N.3     1  UNL1       -0.2691
     29 C           8.0056   -4.8809   22.8568 C.3     1  UNL1        0.0897
     30 C           7.1042   -3.9063   20.6235 C.3     1  UNL1        0.0897
     31 C           6.0051   -3.2484   19.8432 C.3     1  UNL1        0.0899
@<TRIPOS>BOND
     1    22    23    1
     2    23     1    1
     3     1     2   ar
     4     2     3   ar
     5     3     4   ar
     6     4     5   ar
     7     5     6   ar
     8     6     7   ar
     9     7    24    1
    10    24    25    1
    11    25    26    1
    12    26    27    1
    13    27    28    1
    14    28    29    1
    15    28    30    1
    16    30    31    1
    17     7     8   ar
    18     8     9   ar
    19     9    10    1
    20    10    11    2
    21    10    12    2
    22    10    13    1
    23    13    14   ar
    24    14    15   ar
    25    15    16   ar
    26    16    19    1
    27    19    20    1
    28    19    21    1
    29    16    17   ar
    30    17    18   ar
    31     6     1   ar
    32    31    25    1
    33    18    13   ar
    34     9     5   ar
