@<TRIPOS>MOLECULE
*****
 30 33 0 0 0
SMALL
GASTEIGER

@<TRIPOS>ATOM
      1 C          -7.9108  -18.2695   21.4417 C.ar    1  UNL1        0.0843
      2 N          -9.0408  -18.6327   20.5247 N.ar    1  UNL1       -0.2438
      3 C         -10.2448  -17.8377   20.9351 C.ar    1  UNL1        0.0969
      4 C         -11.6426  -17.7815   20.3940 C.ar    1  UNL1        0.0221
      5 C         -12.6545  -16.8708   21.0238 C.ar    1  UNL1        0.0200
      6 C         -12.2685  -16.0162   22.1946 C.ar    1  UNL1        0.0725
      7 N         -10.8707  -16.0724   22.7356 N.ar    1  UNL1       -0.3507
      8 C          -9.8588  -16.9831   22.1059 C.ar    1  UNL1        0.0774
      9 C          -8.4163  -17.2500   22.4190 C.ar    1  UNL1        0.0523
     10 H         -10.6174  -15.5115   23.5041 H       1  UNL1        0.1660
     11 C          -4.2664  -19.1432   20.1359 C.ar    1  UNL1        0.1342
     12 C          -5.6577  -18.5849   20.1871 C.ar    1  UNL1        0.0360
     13 C          -6.5195  -18.8278   21.3906 C.ar    1  UNL1        0.0221
     14 C          -5.9899  -19.6289   22.5428 C.ar    1  UNL1        0.0223
     15 C          -4.5986  -20.1871   22.4916 C.ar    1  UNL1        0.1004
     16 N          -3.7369  -19.9443   21.2882 N.ar    1  UNL1       -0.2290
     17 C          -1.5944  -17.4955   17.7078 C.3     1  UNL1        0.0950
     18 C          -2.4562  -17.7384   18.9112 C.2     1  UNL1        0.2277
     19 O          -2.3695  -16.8194   20.0936 O.2     1  UNL1       -0.2747
     20 N          -3.4046  -18.9003   18.9324 N.am    1  UNL1       -0.2693
     21 H          -3.4615  -19.5035   18.1564 H       1  UNL1        0.1563
     22 C          -7.6193  -16.6098   23.5167 C.ar    1  UNL1        0.0840
     23 C          -6.2016  -16.1888   23.2667 C.ar    1  UNL1        0.0192
     24 C          -5.4046  -15.5486   24.3644 C.ar    1  UNL1        0.0029
     25 C          -6.0254  -15.3293   25.7122 C.ar    1  UNL1        0.0203
     26 C          -7.4432  -15.7502   25.9622 C.ar    1  UNL1        0.1249
     27 N          -8.2402  -16.3905   24.8645 N.ar    1  UNL1       -0.2440
     28 C          -8.0642  -15.5310   27.3099 C.3     1  UNL1        0.3581
     29 F          -8.8190  -16.6421   27.9775 F       1  UNL1       -0.1915
     30 F          -7.9303  -14.2008   27.9900 F       1  UNL1       -0.1915
@<TRIPOS>BOND
     1    17    18    1
     2    18    19    2
     3    18    20   am
     4    20    11    1
     5    11    12   ar
     6    12    13   ar
     7    13     1    1
     8     1     2   ar
     9     2     3   ar
    10     3     4   ar
    11     4     5   ar
    12     5     6   ar
    13     6     7   ar
    14     7     8   ar
    15     8     9   ar
    16     9    22    1
    17    22    23   ar
    18    23    24   ar
    19    24    25   ar
    20    25    26   ar
    21    26    28    1
    22    28    29    1
    23    28    30    1
    24    26    27   ar
    25    13    14   ar
    26    14    15   ar
    27    15    16   ar
    28    16    11   ar
    29     9     1   ar
    30    27    22   ar
    31     8     3    1
    32    20    21    1
    33     7    10    1
@<TRIPOS>MOLECULE
*****
 30 33 0 0 0
SMALL
GASTEIGER

@<TRIPOS>ATOM
      1 C          -8.0988  -18.6096   20.9565 C.ar    1  UNL1        0.0843
      2 N          -9.4113  -18.8457   20.2697 N.ar    1  UNL1       -0.2438
      3 C         -10.4276  -17.9294   20.8843 C.ar    1  UNL1        0.0969
      4 C         -11.8877  -17.7221   20.6105 C.ar    1  UNL1        0.0221
      5 C         -12.6634  -16.7124   21.4033 C.ar    1  UNL1        0.0200
      6 C         -11.9790  -15.9100   22.4699 C.ar    1  UNL1        0.0725
      7 N         -10.5189  -16.1173   22.7437 N.ar    1  UNL1       -0.3507
      8 C          -9.7432  -17.1270   21.9509 C.ar    1  UNL1        0.0774
      9 C          -8.3040  -17.5474   21.9955 C.ar    1  UNL1        0.0523
     10 H         -10.0697  -15.5906   23.4438 H       1  UNL1        0.1660
     11 C          -4.3347  -19.2340   19.8651 C.ar    1  UNL1        0.1342
     12 C          -5.6256  -18.5313   20.1647 C.ar    1  UNL1        0.0360
     13 C          -6.8079  -19.3122   20.6568 C.ar    1  UNL1        0.0221
     14 C          -6.6994  -20.7958   20.8492 C.ar    1  UNL1        0.0223
     15 C          -5.4084  -21.4985   20.5496 C.ar    1  UNL1        0.1004
     16 N          -4.2261  -20.7176   20.0575 N.ar    1  UNL1       -0.2290
     17 C          -0.6525  -17.7795   19.5899 C.3     1  UNL1        0.0950
     18 C          -1.8348  -18.5604   20.0819 C.2     1  UNL1        0.2277
     19 O          -1.6997  -19.4488   21.2830 O.2     1  UNL1       -0.2747
     20 N          -3.1523  -18.4530   19.3730 N.am    1  UNL1       -0.2693
     21 H          -3.2410  -17.8699   18.5847 H       1  UNL1        0.1563
     22 C          -7.2542  -17.0013   22.9174 C.ar    1  UNL1        0.0840
     23 C          -7.6547  -16.1859   24.1109 C.ar    1  UNL1        0.0192
     24 C          -6.6049  -15.6399   25.0327 C.ar    1  UNL1        0.0029
     25 C          -5.1545  -15.9093   24.7610 C.ar    1  UNL1        0.0203
     26 C          -4.7539  -16.7247   23.5674 C.ar    1  UNL1        0.1249
     27 N          -5.8037  -17.2707   22.6456 N.ar    1  UNL1       -0.2440
     28 C          -3.3036  -16.9941   23.2956 C.3     1  UNL1        0.3581
     29 F          -2.6056  -18.1207   23.9982 F       1  UNL1       -0.1915
     30 F          -2.5512  -16.1369   22.3214 F       1  UNL1       -0.1915
@<TRIPOS>BOND
     1    17    18    1
     2    18    19    2
     3    18    20   am
     4    20    11    1
     5    11    12   ar
     6    12    13   ar
     7    13     1    1
     8     1     2   ar
     9     2     3   ar
    10     3     4   ar
    11     4     5   ar
    12     5     6   ar
    13     6     7   ar
    14     7     8   ar
    15     8     9   ar
    16     9    22    1
    17    22    23   ar
    18    23    24   ar
    19    24    25   ar
    20    25    26   ar
    21    26    28    1
    22    28    29    1
    23    28    30    1
    24    26    27   ar
    25    13    14   ar
    26    14    15   ar
    27    15    16   ar
    28    16    11   ar
    29     9     1   ar
    30    27    22   ar
    31     8     3    1
    32    20    21    1
    33     7    10    1
@<TRIPOS>MOLECULE
*****
 30 33 0 0 0
SMALL
GASTEIGER

@<TRIPOS>ATOM
      1 C          -6.9417  -19.2257   21.2609 C.ar    1  UNL1        0.0843
      2 N          -5.9291  -20.0995   20.5819 N.ar    1  UNL1       -0.2438
      3 C          -4.5666  -19.6767   21.0455 C.ar    1  UNL1        0.0969
      4 C          -3.1928  -20.1787   20.7132 C.ar    1  UNL1        0.0221
      5 C          -1.9895  -19.5455   21.3464 C.ar    1  UNL1        0.0200
      6 C          -2.1600  -18.4103   22.3120 C.ar    1  UNL1        0.0725
      7 N          -3.5339  -17.9083   22.6443 N.ar    1  UNL1       -0.3507
      8 C          -4.7372  -18.5415   22.0111 C.ar    1  UNL1        0.0774
      9 C          -6.2051  -18.2628   22.1442 C.ar    1  UNL1        0.0523
     10 H          -3.6458  -17.1633   23.2780 H       1  UNL1        0.1660
     11 C         -10.8122  -19.4166   22.1168 C.ar    1  UNL1        0.1342
     12 C          -9.3243  -19.3409   22.2905 C.ar    1  UNL1        0.0360
     13 C          -8.4297  -19.3015   21.0871 C.ar    1  UNL1        0.0221
     14 C          -9.0231  -19.3378   19.7100 C.ar    1  UNL1        0.0223
     15 C         -10.5111  -19.4136   19.5363 C.ar    1  UNL1        0.1004
     16 N         -11.4056  -19.4530   20.7396 N.ar    1  UNL1       -0.2290
     17 C         -13.5045  -18.3363   24.8250 C.3     1  UNL1        0.0950
     18 C         -12.6100  -18.2970   23.6216 C.2     1  UNL1        0.2277
     19 O         -12.6185  -17.0985   22.7196 O.2     1  UNL1       -0.2747
     20 N         -11.7068  -19.4560   23.3202 N.am    1  UNL1       -0.2693
     21 H         -11.7012  -20.2426   23.9122 H       1  UNL1        0.1563
     22 C          -6.8270  -17.2066   23.0088 C.ar    1  UNL1        0.0840
     23 C          -8.1820  -16.6607   22.6684 C.ar    1  UNL1        0.0192
     24 C          -8.8040  -15.6045   23.5330 C.ar    1  UNL1        0.0029
     25 C          -8.0710  -15.0942   24.7381 C.ar    1  UNL1        0.0203
     26 C          -6.7159  -15.6400   25.0786 C.ar    1  UNL1        0.1249
     27 N          -6.0939  -16.6963   24.2139 N.ar    1  UNL1       -0.2440
     28 C          -5.9828  -15.1298   26.2836 C.3     1  UNL1        0.3581
     29 F          -6.6268  -15.1957   27.6367 F       1  UNL1       -0.1915
     30 F          -4.6058  -14.5537   26.1356 F       1  UNL1       -0.1915
@<TRIPOS>BOND
     1    17    18    1
     2    18    19    2
     3    18    20   am
     4    20    11    1
     5    11    12   ar
     6    12    13   ar
     7    13     1    1
     8     1     2   ar
     9     2     3   ar
    10     3     4   ar
    11     4     5   ar
    12     5     6   ar
    13     6     7   ar
    14     7     8   ar
    15     8     9   ar
    16     9    22    1
    17    22    23   ar
    18    23    24   ar
    19    24    25   ar
    20    25    26   ar
    21    26    28    1
    22    28    29    1
    23    28    30    1
    24    26    27   ar
    25    13    14   ar
    26    14    15   ar
    27    15    16   ar
    28    16    11   ar
    29     9     1   ar
    30    27    22   ar
    31     8     3    1
    32    20    21    1
    33     7    10    1
@<TRIPOS>MOLECULE
*****
 30 33 0 0 0
SMALL
GASTEIGER

@<TRIPOS>ATOM
      1 C          -6.2656  -17.3839   23.3806 C.ar    1  UNL1        0.0843
      2 N          -5.3827  -16.5886   24.2961 N.ar    1  UNL1       -0.2438
      3 C          -6.2449  -15.9917   25.3686 C.ar    1  UNL1        0.0969
      4 C          -5.9237  -15.1150   26.5426 C.ar    1  UNL1        0.0221
      5 C          -7.0182  -14.6647   27.4640 C.ar    1  UNL1        0.0200
      6 C          -8.4340  -15.0911   27.2115 C.ar    1  UNL1        0.0725
      7 N          -8.7552  -15.9678   26.0375 N.ar    1  UNL1       -0.3507
      8 C          -7.6606  -16.4181   25.1161 C.ar    1  UNL1        0.0774
      9 C          -7.6734  -17.2785   23.8875 C.ar    1  UNL1        0.0523
     10 H          -9.6844  -16.2476   25.8718 H       1  UNL1        0.1660
     11 C          -3.9093  -19.0747   20.6715 C.ar    1  UNL1        0.1342
     12 C          -4.3559  -18.3085   21.8813 C.ar    1  UNL1        0.0360
     13 C          -5.8191  -18.1500   22.1708 C.ar    1  UNL1        0.0221
     14 C          -6.8358  -18.7577   21.2505 C.ar    1  UNL1        0.0223
     15 C          -6.3892  -19.5238   20.0407 C.ar    1  UNL1        0.1004
     16 N          -4.9260  -19.6823   19.7512 N.ar    1  UNL1       -0.2290
     17 C          -0.1487  -18.1889   19.7644 C.3     1  UNL1        0.0950
     18 C          -1.6119  -18.0305   20.0538 C.2     1  UNL1        0.2277
     19 O          -2.2411  -16.6693   20.0150 O.2     1  UNL1       -0.2747
     20 N          -2.4460  -19.2332   20.3821 N.am    1  UNL1       -0.2693
     21 H          -2.0331  -20.1265   20.4076 H       1  UNL1        0.1563
     22 C          -8.8820  -17.9207   23.2734 C.ar    1  UNL1        0.0840
     23 C          -9.2763  -19.3118   23.6723 C.ar    1  UNL1        0.0192
     24 C         -10.4848  -19.9540   23.0583 C.ar    1  UNL1        0.0029
     25 C         -11.2991  -19.2051   22.0453 C.ar    1  UNL1        0.0203
     26 C         -10.9048  -17.8139   21.6464 C.ar    1  UNL1        0.1249
     27 N          -9.6963  -17.1717   22.2604 N.ar    1  UNL1       -0.2440
     28 C         -11.7190  -17.0649   20.6335 C.3     1  UNL1        0.3581
     29 F         -11.3886  -17.1769   19.1746 F       1  UNL1       -0.1915
     30 F         -12.8635  -16.2040   21.0794 F       1  UNL1       -0.1915
@<TRIPOS>BOND
     1    17    18    1
     2    18    19    2
     3    18    20   am
     4    20    11    1
     5    11    12   ar
     6    12    13   ar
     7    13     1    1
     8     1     2   ar
     9     2     3   ar
    10     3     4   ar
    11     4     5   ar
    12     5     6   ar
    13     6     7   ar
    14     7     8   ar
    15     8     9   ar
    16     9    22    1
    17    22    23   ar
    18    23    24   ar
    19    24    25   ar
    20    25    26   ar
    21    26    28    1
    22    28    29    1
    23    28    30    1
    24    26    27   ar
    25    13    14   ar
    26    14    15   ar
    27    15    16   ar
    28    16    11   ar
    29     9     1   ar
    30    27    22   ar
    31     8     3    1
    32    20    21    1
    33     7    10    1
@<TRIPOS>MOLECULE
*****
 30 33 0 0 0
SMALL
GASTEIGER

@<TRIPOS>ATOM
      1 C           3.0579   -0.1011   22.4775 C.ar    1  UNL1        0.0843
      2 N           2.4689    0.6149   23.6566 N.ar    1  UNL1       -0.2438
      3 C           2.9833   -0.0429   24.9027 C.ar    1  UNL1        0.0969
      4 C           2.7430    0.2352   26.3569 C.ar    1  UNL1        0.0221
      5 C           3.4096   -0.6093   27.4021 C.ar    1  UNL1        0.0200
      6 C           4.3165   -1.7319   26.9931 C.ar    1  UNL1        0.0725
      7 N           4.5567   -2.0100   25.5388 N.ar    1  UNL1       -0.3507
      8 C           3.8901   -1.1655   24.4936 C.ar    1  UNL1        0.0774
      9 C           3.9363   -1.2015   22.9948 C.ar    1  UNL1        0.0523
     10 H           5.1520   -2.7468   25.2704 H       1  UNL1        0.1660
     11 C           3.6923    1.0423   18.7304 C.ar    1  UNL1        0.1342
     12 C           3.9384    0.7153   20.1735 C.ar    1  UNL1        0.0360
     13 C           2.8118    0.2259   21.0344 C.ar    1  UNL1        0.0221
     14 C           1.4390    0.0635   20.4521 C.ar    1  UNL1        0.0223
     15 C           1.1929    0.3905   19.0090 C.ar    1  UNL1        0.1004
     16 N           2.3195    0.8799   18.1482 N.ar    1  UNL1       -0.2290
     17 C           6.7632    1.0443   16.2165 C.3     1  UNL1        0.0950
     18 C           5.6365    0.5549   17.0773 C.2     1  UNL1        0.2277
     19 O           5.3272   -0.9113   17.1460 O.2     1  UNL1       -0.2747
     20 N           4.8190    1.5317   17.8696 N.am    1  UNL1       -0.2693
     21 H           5.0220    2.4940   17.8245 H       1  UNL1        0.1563
     22 C           4.7227   -2.1681   22.1598 C.ar    1  UNL1        0.0840
     23 C           6.1967   -2.3285   22.3864 C.ar    1  UNL1        0.0192
     24 C           6.9832   -3.2951   21.5515 C.ar    1  UNL1        0.0029
     25 C           6.2955   -4.1014   20.4899 C.ar    1  UNL1        0.0203
     26 C           4.8215   -3.9411   20.2632 C.ar    1  UNL1        0.1249
     27 N           4.0350   -2.9744   21.0982 N.ar    1  UNL1       -0.2440
     28 C           4.1338   -4.7473   19.2016 C.3     1  UNL1        0.3581
     29 F           2.6624   -4.5761   18.9652 F       1  UNL1       -0.1915
     30 F           4.9173   -5.7247   18.3765 F       1  UNL1       -0.1915
@<TRIPOS>BOND
     1    17    18    1
     2    18    19    2
     3    18    20   am
     4    20    11    1
     5    11    12   ar
     6    12    13   ar
     7    13     1    1
     8     1     2   ar
     9     2     3   ar
    10     3     4   ar
    11     4     5   ar
    12     5     6   ar
    13     6     7   ar
    14     7     8   ar
    15     8     9   ar
    16     9    22    1
    17    22    23   ar
    18    23    24   ar
    19    24    25   ar
    20    25    26   ar
    21    26    28    1
    22    28    29    1
    23    28    30    1
    24    26    27   ar
    25    13    14   ar
    26    14    15   ar
    27    15    16   ar
    28    16    11   ar
    29     9     1   ar
    30    27    22   ar
    31     8     3    1
    32    20    21    1
    33     7    10    1
@<TRIPOS>MOLECULE
*****
 30 33 0 0 0
SMALL
GASTEIGER

@<TRIPOS>ATOM
      1 C          -8.7055  -16.5176   23.4249 C.ar    1  UNL1        0.0843
      2 N         -10.0351  -15.8363   23.5583 N.ar    1  UNL1       -0.2438
      3 C         -11.0501  -16.6504   22.8119 C.ar    1  UNL1        0.0969
      4 C         -12.5231  -16.4662   22.5970 C.ar    1  UNL1        0.0221
      5 C         -13.2937  -17.4664   21.7873 C.ar    1  UNL1        0.0200
      6 C         -12.5913  -18.6509   21.1925 C.ar    1  UNL1        0.0725
      7 N         -11.1183  -18.8351   21.4074 N.ar    1  UNL1       -0.3507
      8 C         -10.3477  -17.8349   22.2171 C.ar    1  UNL1        0.0774
      9 C          -8.8986  -17.7527   22.5960 C.ar    1  UNL1        0.0523
     10 H         -10.6573  -19.6125   21.0171 H       1  UNL1        0.1660
     11 C          -4.9058  -15.4146   23.7347 C.ar    1  UNL1        0.1342
     12 C          -6.2012  -15.8857   23.1431 C.ar    1  UNL1        0.0360
     13 C          -7.4101  -16.0465   24.0165 C.ar    1  UNL1        0.0221
     14 C          -7.3235  -15.7360   25.4814 C.ar    1  UNL1        0.0223
     15 C          -6.0281  -15.2649   26.0730 C.ar    1  UNL1        0.1004
     16 N          -4.8193  -15.1042   25.1997 N.ar    1  UNL1       -0.2290
     17 C          -1.6736  -16.2936   21.6062 C.3     1  UNL1        0.0950
     18 C          -2.8825  -16.4543   22.4796 C.2     1  UNL1        0.2277
     19 O          -3.2769  -17.8154   22.9714 O.2     1  UNL1       -0.2747
     20 N          -3.6969  -15.2539   22.8613 N.am    1  UNL1       -0.2693
     21 H          -3.4380  -14.3605   22.5386 H       1  UNL1        0.1563
     22 C          -7.8303  -18.7336   22.2131 C.ar    1  UNL1        0.0840
     23 C          -7.8534  -20.1246   22.7738 C.ar    1  UNL1        0.0192
     24 C          -6.7851  -21.1055   22.3909 C.ar    1  UNL1        0.0029
     25 C          -5.6936  -20.6954   21.4473 C.ar    1  UNL1        0.0203
     26 C          -5.6704  -19.3043   20.8866 C.ar    1  UNL1        0.1249
     27 N          -6.7388  -18.3234   21.2695 N.ar    1  UNL1       -0.2440
     28 C          -4.5790  -18.8941   19.9430 C.3     1  UNL1        0.3581
     29 F          -3.1528  -19.2449   20.2480 F       1  UNL1       -0.1915
     30 F          -4.9136  -18.1331   18.6945 F       1  UNL1       -0.1915
@<TRIPOS>BOND
     1    17    18    1
     2    18    19    2
     3    18    20   am
     4    20    11    1
     5    11    12   ar
     6    12    13   ar
     7    13     1    1
     8     1     2   ar
     9     2     3   ar
    10     3     4   ar
    11     4     5   ar
    12     5     6   ar
    13     6     7   ar
    14     7     8   ar
    15     8     9   ar
    16     9    22    1
    17    22    23   ar
    18    23    24   ar
    19    24    25   ar
    20    25    26   ar
    21    26    28    1
    22    28    29    1
    23    28    30    1
    24    26    27   ar
    25    13    14   ar
    26    14    15   ar
    27    15    16   ar
    28    16    11   ar
    29     9     1   ar
    30    27    22   ar
    31     8     3    1
    32    20    21    1
    33     7    10    1
@<TRIPOS>MOLECULE
*****
 30 33 0 0 0
SMALL
GASTEIGER

@<TRIPOS>ATOM
      1 C           6.4585   -3.6323   24.7760 C.ar    1  UNL1        0.0843
      2 N           6.8004   -4.4502   25.9860 N.ar    1  UNL1       -0.2438
      3 C           7.6128   -5.6278   25.5352 C.ar    1  UNL1        0.0969
      4 C           8.2273   -6.7705   26.2879 C.ar    1  UNL1        0.0221
      5 C           9.0021   -7.8230   25.5519 C.ar    1  UNL1        0.0200
      6 C           9.1624   -7.7329   24.0632 C.ar    1  UNL1        0.0725
      7 N           8.5479   -6.5902   23.3105 N.ar    1  UNL1       -0.3507
      8 C           7.7731   -5.5377   24.0465 C.ar    1  UNL1        0.0774
      9 C           7.0597   -4.3044   23.5773 C.ar    1  UNL1        0.0523
     10 H           8.6531   -6.5311   22.3334 H       1  UNL1        0.1660
     11 C           3.6966   -0.9496   23.8145 C.ar    1  UNL1        0.1342
     12 C           4.4987   -2.2170   23.8241 C.ar    1  UNL1        0.0360
     13 C           5.6564   -2.3648   24.7664 C.ar    1  UNL1        0.0221
     14 C           6.0119   -1.2451   25.6990 C.ar    1  UNL1        0.0223
     15 C           5.2097    0.0223   25.6894 C.ar    1  UNL1        0.1004
     16 N           4.0521    0.1701   24.7471 N.ar    1  UNL1       -0.2290
     17 C           1.6202   -0.6079   20.4496 C.3     1  UNL1        0.0950
     18 C           2.7778   -0.7556   21.3920 C.2     1  UNL1        0.2277
     19 O           4.1745   -0.8572   20.8542 O.2     1  UNL1       -0.2747
     20 N           2.5389   -0.8018   22.8721 N.am    1  UNL1       -0.2693
     21 H           1.6222   -0.7351   23.2251 H       1  UNL1        0.1563
     22 C           6.9643   -3.8270   22.1585 C.ar    1  UNL1        0.0840
     23 C           8.0091   -2.9035   21.6060 C.ar    1  UNL1        0.0192
     24 C           7.9137   -2.4262   20.1872 C.ar    1  UNL1        0.0029
     25 C           6.7733   -2.8723   19.3208 C.ar    1  UNL1        0.0203
     26 C           5.7284   -3.7959   19.8733 C.ar    1  UNL1        0.1249
     27 N           5.8239   -4.2732   21.2921 N.ar    1  UNL1       -0.2440
     28 C           4.5881   -4.2421   19.0071 C.3     1  UNL1        0.3581
     29 F           3.3298   -3.4279   18.9455 F       1  UNL1       -0.1915
     30 F           4.7059   -5.5024   18.2024 F       1  UNL1       -0.1915
@<TRIPOS>BOND
     1    17    18    1
     2    18    19    2
     3    18    20   am
     4    20    11    1
     5    11    12   ar
     6    12    13   ar
     7    13     1    1
     8     1     2   ar
     9     2     3   ar
    10     3     4   ar
    11     4     5   ar
    12     5     6   ar
    13     6     7   ar
    14     7     8   ar
    15     8     9   ar
    16     9    22    1
    17    22    23   ar
    18    23    24   ar
    19    24    25   ar
    20    25    26   ar
    21    26    28    1
    22    28    29    1
    23    28    30    1
    24    26    27   ar
    25    13    14   ar
    26    14    15   ar
    27    15    16   ar
    28    16    11   ar
    29     9     1   ar
    30    27    22   ar
    31     8     3    1
    32    20    21    1
    33     7    10    1
@<TRIPOS>MOLECULE
*****
 30 33 0 0 0
SMALL
GASTEIGER

@<TRIPOS>ATOM
      1 C          -7.2628  -17.9187   22.1013 C.ar    1  UNL1        0.0843
      2 N          -8.7497  -17.9802   21.9131 N.ar    1  UNL1       -0.2438
      3 C          -9.0313  -18.8593   20.7307 C.ar    1  UNL1        0.0969
      4 C         -10.3135  -19.2833   20.0780 C.ar    1  UNL1        0.0221
      5 C         -10.2829  -20.1890   18.8828 C.ar    1  UNL1        0.0200
      6 C          -8.9701  -20.6708   18.3402 C.ar    1  UNL1        0.0725
      7 N          -7.6878  -20.2468   18.9929 N.ar    1  UNL1       -0.3507
      8 C          -7.7184  -19.3410   20.1881 C.ar    1  UNL1        0.0774
      9 C          -6.6255  -18.7597   21.0352 C.ar    1  UNL1        0.0523
     10 H          -6.8262  -20.5629   18.6368 H       1  UNL1        0.1660
     11 C          -6.5905  -15.5472   25.2115 C.ar    1  UNL1        0.1342
     12 C          -7.3132  -16.3149   24.1446 C.ar    1  UNL1        0.0360
     13 C          -6.5401  -17.1509   23.1682 C.ar    1  UNL1        0.0221
     14 C          -5.0445  -17.2191   23.2587 C.ar    1  UNL1        0.0223
     15 C          -4.3218  -16.4514   24.3256 C.ar    1  UNL1        0.1004
     16 N          -5.0948  -15.6154   25.3020 N.ar    1  UNL1       -0.2290
     17 C          -9.0096  -14.5351   28.1904 C.3     1  UNL1        0.0950
     18 C          -8.2365  -15.3710   27.2140 C.2     1  UNL1        0.2277
     19 O          -8.3363  -16.8669   27.2635 O.2     1  UNL1       -0.2747
     20 N          -7.3636  -14.7111   26.1880 N.am    1  UNL1       -0.2693
     21 H          -7.2981  -13.7294   26.1555 H       1  UNL1        0.1563
     22 C          -5.1536  -18.9806   20.8488 C.ar    1  UNL1        0.0840
     23 C          -4.4282  -19.9690   21.7129 C.ar    1  UNL1        0.0192
     24 C          -2.9563  -20.1899   21.5266 C.ar    1  UNL1        0.0029
     25 C          -2.2098  -19.4224   20.4761 C.ar    1  UNL1        0.0203
     26 C          -2.9351  -18.4339   19.6119 C.ar    1  UNL1        0.1249
     27 N          -4.4070  -18.2130   19.7983 N.ar    1  UNL1       -0.2440
     28 C          -2.1887  -17.6664   18.5614 C.3     1  UNL1        0.3581
     29 F          -0.7087  -17.8538   18.4053 F       1  UNL1       -0.1915
     30 F          -2.9222  -16.7113   17.6671 F       1  UNL1       -0.1915
@<TRIPOS>BOND
     1    17    18    1
     2    18    19    2
     3    18    20   am
     4    20    11    1
     5    11    12   ar
     6    12    13   ar
     7    13     1    1
     8     1     2   ar
     9     2     3   ar
    10     3     4   ar
    11     4     5   ar
    12     5     6   ar
    13     6     7   ar
    14     7     8   ar
    15     8     9   ar
    16     9    22    1
    17    22    23   ar
    18    23    24   ar
    19    24    25   ar
    20    25    26   ar
    21    26    28    1
    22    28    29    1
    23    28    30    1
    24    26    27   ar
    25    13    14   ar
    26    14    15   ar
    27    15    16   ar
    28    16    11   ar
    29     9     1   ar
    30    27    22   ar
    31     8     3    1
    32    20    21    1
    33     7    10    1
@<TRIPOS>MOLECULE
*****
 30 33 0 0 0
SMALL
GASTEIGER

@<TRIPOS>ATOM
      1 C           7.6448   -4.3626   22.3507 C.ar    1  UNL1        0.0843
      2 N           8.1437   -5.7472   22.6405 N.ar    1  UNL1       -0.2438
      3 C           7.7709   -6.0880   24.0529 C.ar    1  UNL1        0.0969
      4 C           8.0014   -7.3157   24.8833 C.ar    1  UNL1        0.0221
      5 C           7.5026   -7.3694   26.2969 C.ar    1  UNL1        0.0200
      6 C           6.7733   -6.1955   26.8800 C.ar    1  UNL1        0.0725
      7 N           6.5428   -4.9678   26.0496 N.ar    1  UNL1       -0.3507
      8 C           7.0417   -4.9141   24.6360 C.ar    1  UNL1        0.0774
      9 C           6.9637   -3.8477   23.5840 C.ar    1  UNL1        0.0523
     10 H           6.0642   -4.1973   26.4323 H       1  UNL1        0.1660
     11 C           6.7612   -2.6504   18.8811 C.ar    1  UNL1        0.1342
     12 C           6.6062   -3.3902   20.1768 C.ar    1  UNL1        0.0360
     13 C           7.7997   -3.6227   21.0550 C.ar    1  UNL1        0.0221
     14 C           9.1482   -3.1154   20.6377 C.ar    1  UNL1        0.0223
     15 C           9.3031   -2.3756   19.3421 C.ar    1  UNL1        0.1004
     16 N           8.1096   -2.1431   18.4638 N.ar    1  UNL1       -0.2290
     17 C           3.7752   -0.8140   17.0206 C.3     1  UNL1        0.0950
     18 C           4.9687   -1.0465   17.8988 C.2     1  UNL1        0.2277
     19 O           5.5635    0.0923   18.6731 O.2     1  UNL1       -0.2747
     20 N           5.5675   -2.4179   18.0029 N.am    1  UNL1       -0.2693
     21 H           5.1772   -3.1653   17.4947 H       1  UNL1        0.1563
     22 C           6.3180   -2.5026   23.7382 C.ar    1  UNL1        0.0840
     23 C           7.0572   -1.3895   24.4196 C.ar    1  UNL1        0.0192
     24 C           6.4115   -0.0444   24.5738 C.ar    1  UNL1        0.0029
     25 C           5.0265    0.1876   24.0467 C.ar    1  UNL1        0.0203
     26 C           4.2872   -0.9256   23.3652 C.ar    1  UNL1        0.1249
     27 N           4.9329   -2.2707   23.2110 N.ar    1  UNL1       -0.2440
     28 C           2.9022   -0.6937   22.8380 C.3     1  UNL1        0.3581
     29 F           1.9252    0.1235   23.6303 F       1  UNL1       -0.1915
     30 F           2.4941   -1.2790   21.5186 F       1  UNL1       -0.1915
@<TRIPOS>BOND
     1    17    18    1
     2    18    19    2
     3    18    20   am
     4    20    11    1
     5    11    12   ar
     6    12    13   ar
     7    13     1    1
     8     1     2   ar
     9     2     3   ar
    10     3     4   ar
    11     4     5   ar
    12     5     6   ar
    13     6     7   ar
    14     7     8   ar
    15     8     9   ar
    16     9    22    1
    17    22    23   ar
    18    23    24   ar
    19    24    25   ar
    20    25    26   ar
    21    26    28    1
    22    28    29    1
    23    28    30    1
    24    26    27   ar
    25    13    14   ar
    26    14    15   ar
    27    15    16   ar
    28    16    11   ar
    29     9     1   ar
    30    27    22   ar
    31     8     3    1
    32    20    21    1
    33     7    10    1
