@<TRIPOS>MOLECULE
*****
 35 39 0 0 0
SMALL
GASTEIGER

@<TRIPOS>ATOM
      1 C          -6.0372    4.8480   21.0156 C.ar    1  UNL1        0.1060
      2 C          -6.5741    4.4195   22.3490 C.ar    1  UNL1        0.0196
      3 C          -5.6508    4.2954   23.5246 C.ar    1  UNL1        0.0160
      4 C          -4.1904    4.5996   23.3667 C.ar    1  UNL1        0.0523
      5 C          -3.6535    5.0280   22.0332 C.ar    1  UNL1        0.0682
      6 C          -4.5769    5.1522   20.8576 C.ar    1  UNL1        0.0241
      7 C          -2.1932    5.3322   21.8753 C.2     1  UNL1        0.2508
      8 O          -1.6667    6.6899   22.2355 O.2     1  UNL1       -0.2698
      9 N          -1.2594    4.2789   21.3573 N.am    1  UNL1       -0.2661
     10 C           0.2176    4.4359   21.1473 C.3     1  UNL1        0.1236
     11 C           0.7512    3.1375   20.6185 C.ar    1  UNL1        0.0338
     12 C           1.9937    2.4321   20.1620 C.ar    1  UNL1        0.0991
     13 N           1.6145    1.0368   19.7630 N.ar    1  UNL1       -0.2265
     14 N           0.1376    0.8797   19.9730 N.ar    1  UNL1       -0.1679
     15 C          -0.3960    2.1781   20.5018 C.ar    1  UNL1        0.0981
     16 C          -1.6385    2.8835   20.9584 C.3     1  UNL1        0.1414
     17 C           2.5483   -0.0166   19.2450 C.ar    1  UNL1        0.1102
     18 C           3.1069    0.0930   17.8572 C.ar    1  UNL1        0.0214
     19 C           4.0407   -0.9604   17.3391 C.ar    1  UNL1        0.0017
     20 C           4.4160   -2.1234   18.2089 C.ar    1  UNL1        0.0024
     21 C           3.8574   -2.2330   19.5967 C.ar    1  UNL1        0.0312
     22 C           2.9236   -1.1796   20.1147 C.ar    1  UNL1        0.1577
     23 F           2.3651   -1.2894   21.5026 F       1  UNL1       -0.2026
     24 N          -3.2671    4.4754   24.5423 N.pl3   1  UNL1       -0.3070
     25 C          -2.4781    3.2162   24.7465 C.3     1  UNL1        0.0964
     26 C          -1.5548    3.0920   25.9221 C.3     1  UNL1        0.0880
     27 C          -1.4204    4.2271   26.8935 C.3     1  UNL1        0.2672
     28 F          -0.9560    5.0205   28.0787 F       1  UNL1       -0.2042
     29 F          -0.4702    3.2433   27.5093 F       1  UNL1       -0.2042
     30 C          -2.2094    5.4863   26.6892 C.3     1  UNL1        0.0880
     31 C          -3.1327    5.6105   25.5136 C.3     1  UNL1        0.0964
     32 C          -7.8838    5.0963   18.6644 C.3     1  UNL1        0.1816
     33 S          -6.9605    4.9721   19.8400 S.O2    1  UNL1        0.0105
     34 O          -7.8774    5.8386   20.6516 O.2     1  UNL1       -0.1686
     35 O          -6.0437    4.1057   19.0283 O.2     1  UNL1       -0.1686
@<TRIPOS>BOND
     1    32    33    1
     2    33    34    2
     3    33    35    2
     4    33     1    1
     5     1     2   ar
     6     2     3   ar
     7     3     4   ar
     8     4    24    1
     9    24    25    1
    10    25    26    1
    11    26    27    1
    12    27    28    1
    13    27    29    1
    14    27    30    1
    15    30    31    1
    16     4     5   ar
    17     5     7    1
    18     7     8    2
    19     7     9   am
    20     9    10    1
    21    10    11    1
    22    11    12   ar
    23    12    13   ar
    24    13    17    1
    25    17    18   ar
    26    18    19   ar
    27    19    20   ar
    28    20    21   ar
    29    21    22   ar
    30    22    23    1
    31    13    14   ar
    32    14    15   ar
    33    15    16    1
    34     5     6   ar
    35     6     1   ar
    36    31    24    1
    37    16     9    1
    38    15    11   ar
    39    22    17   ar
@<TRIPOS>MOLECULE
*****
 35 39 0 0 0
SMALL
GASTEIGER

@<TRIPOS>ATOM
      1 C          -4.4875    3.7220   21.4127 C.ar    1  UNL1        0.1060
      2 C          -5.1148    3.4633   22.7505 C.ar    1  UNL1        0.0196
      3 C          -4.2598    3.4077   23.9817 C.ar    1  UNL1        0.0160
      4 C          -2.7773    3.6108   23.8750 C.ar    1  UNL1        0.0523
      5 C          -2.1500    3.8695   22.5372 C.ar    1  UNL1        0.0682
      6 C          -3.0052    3.9251   21.3061 C.ar    1  UNL1        0.0241
      7 C          -0.6677    4.0725   22.4307 C.2     1  UNL1        0.2508
      8 O          -0.0559    5.3726   22.8616 O.2     1  UNL1       -0.2698
      9 N           0.2029    2.9756   21.8933 N.am    1  UNL1       -0.2661
     10 C           1.6927    3.0328   21.7289 C.3     1  UNL1        0.1236
     11 C           2.1470    1.7213   21.1599 C.ar    1  UNL1        0.0338
     12 C           3.3485    0.9462   20.7066 C.ar    1  UNL1        0.0991
     13 N           2.8820   -0.4006   20.2392 N.ar    1  UNL1       -0.2265
     14 N           1.3921   -0.4579   20.4037 N.ar    1  UNL1       -0.1679
     15 C           0.9378    0.8536   20.9727 C.ar    1  UNL1        0.0981
     16 C          -0.2637    1.6288   21.4259 C.3     1  UNL1        0.1414
     17 C           3.7525   -1.4976   19.7018 C.ar    1  UNL1        0.1102
     18 C           3.9103   -2.7752   20.4718 C.ar    1  UNL1        0.0214
     19 C           4.7809   -3.8721   19.9344 C.ar    1  UNL1        0.0017
     20 C           5.4936   -3.6915   18.6270 C.ar    1  UNL1        0.0024
     21 C           5.3358   -2.4139   17.8570 C.ar    1  UNL1        0.0312
     22 C           4.4653   -1.3170   18.3944 C.ar    1  UNL1        0.1577
     23 F           4.3075   -0.0394   17.6243 F       1  UNL1       -0.2026
     24 N          -1.9223    3.5551   25.1062 N.pl3   1  UNL1       -0.3070
     25 C          -1.8197    4.7532   26.0028 C.3     1  UNL1        0.0964
     26 C          -0.9647    4.6975   27.2340 C.3     1  UNL1        0.0880
     27 C          -0.2122    3.4438   27.5685 C.3     1  UNL1        0.2672
     28 F           0.6840    2.4913   28.3031 F       1  UNL1       -0.2042
     29 F           0.2016    4.3111   28.7203 F       1  UNL1       -0.2042
     30 C          -0.3147    2.2457   26.6718 C.3     1  UNL1        0.0880
     31 C          -1.1698    2.3014   25.4407 C.3     1  UNL1        0.0964
     32 C          -6.1976    3.8334   18.9504 C.3     1  UNL1        0.1816
     33 S          -5.3426    3.7777   20.1816 S.O2    1  UNL1        0.0105
     34 O          -4.1248    3.5854   19.3271 O.2     1  UNL1       -0.1686
     35 O          -6.5603    3.9700   21.0360 O.2     1  UNL1       -0.1686
@<TRIPOS>BOND
     1    32    33    1
     2    33    34    2
     3    33    35    2
     4    33     1    1
     5     1     2   ar
     6     2     3   ar
     7     3     4   ar
     8     4    24    1
     9    24    25    1
    10    25    26    1
    11    26    27    1
    12    27    28    1
    13    27    29    1
    14    27    30    1
    15    30    31    1
    16     4     5   ar
    17     5     7    1
    18     7     8    2
    19     7     9   am
    20     9    10    1
    21    10    11    1
    22    11    12   ar
    23    12    13   ar
    24    13    17    1
    25    17    18   ar
    26    18    19   ar
    27    19    20   ar
    28    20    21   ar
    29    21    22   ar
    30    22    23    1
    31    13    14   ar
    32    14    15   ar
    33    15    16    1
    34     5     6   ar
    35     6     1   ar
    36    31    24    1
    37    16     9    1
    38    15    11   ar
    39    22    17   ar
@<TRIPOS>MOLECULE
*****
 35 39 0 0 0
SMALL
GASTEIGER

@<TRIPOS>ATOM
      1 C           6.9047   -3.4575   20.8249 C.ar    1  UNL1        0.1060
      2 C           5.8172   -4.0156   19.9555 C.ar    1  UNL1        0.0196
      3 C           4.6185   -3.1775   19.6230 C.ar    1  UNL1        0.0160
      4 C           4.5073   -1.7812   20.1600 C.ar    1  UNL1        0.0523
      5 C           5.5948   -1.2232   21.0294 C.ar    1  UNL1        0.0682
      6 C           6.7936   -2.0614   21.3619 C.ar    1  UNL1        0.0241
      7 C           5.4836    0.1730   21.5663 C.2     1  UNL1        0.2508
      8 O           6.0166    1.3273   20.7704 O.2     1  UNL1       -0.2698
      9 N           4.8393    0.4149   22.8991 N.am    1  UNL1       -0.2661
     10 C           4.6576    1.7484   23.5616 C.3     1  UNL1        0.1236
     11 C           3.9696    1.5233   24.8754 C.ar    1  UNL1        0.0338
     12 C           3.4321    2.2083   26.0968 C.ar    1  UNL1        0.0991
     13 N           2.8564    1.1592   27.0011 N.ar    1  UNL1       -0.2265
     14 N           3.0381   -0.1743   26.3387 N.ar    1  UNL1       -0.1679
     15 C           3.7262    0.0508   25.0248 C.ar    1  UNL1        0.0981
     16 C           4.2636   -0.6343   23.8034 C.3     1  UNL1        0.1414
     17 C           2.2122    1.4010   28.3339 C.ar    1  UNL1        0.1102
     18 C           3.0279    1.9295   29.4764 C.ar    1  UNL1        0.0214
     19 C           2.3836    2.1714   30.8092 C.ar    1  UNL1        0.0017
     20 C           0.9236    1.8848   30.9995 C.ar    1  UNL1        0.0024
     21 C           0.1079    1.3563   29.8570 C.ar    1  UNL1        0.0312
     22 C           0.7522    1.1144   28.5242 C.ar    1  UNL1        0.1577
     23 F          -0.0637    0.5859   27.3818 F       1  UNL1       -0.2026
     24 N           3.3086   -0.9431   19.8275 N.pl3   1  UNL1       -0.3070
     25 C           3.2861   -0.1340   18.5646 C.3     1  UNL1        0.0964
     26 C           2.0874    0.7041   18.2321 C.3     1  UNL1        0.0880
     27 C           0.9111    0.7331   19.1624 C.3     1  UNL1        0.2672
     28 F          -0.4354    1.0857   19.7216 F       1  UNL1       -0.2042
     29 F           0.4210    1.6647   18.0937 F       1  UNL1       -0.2042
     30 C           0.9336   -0.0760   20.4253 C.3     1  UNL1        0.0880
     31 C           2.1323   -0.9141   20.7578 C.3     1  UNL1        0.0964
     32 C           9.3022   -5.1338   21.4900 C.3     1  UNL1        0.1816
     33 S           8.1035   -4.2957   21.1574 S.O2    1  UNL1        0.0105
     34 O           8.9076   -3.5523   20.1323 O.2     1  UNL1       -0.1686
     35 O           7.2994   -5.0390   22.1826 O.2     1  UNL1       -0.1686
@<TRIPOS>BOND
     1    32    33    1
     2    33    34    2
     3    33    35    2
     4    33     1    1
     5     1     2   ar
     6     2     3   ar
     7     3     4   ar
     8     4    24    1
     9    24    25    1
    10    25    26    1
    11    26    27    1
    12    27    28    1
    13    27    29    1
    14    27    30    1
    15    30    31    1
    16     4     5   ar
    17     5     7    1
    18     7     8    2
    19     7     9   am
    20     9    10    1
    21    10    11    1
    22    11    12   ar
    23    12    13   ar
    24    13    17    1
    25    17    18   ar
    26    18    19   ar
    27    19    20   ar
    28    20    21   ar
    29    21    22   ar
    30    22    23    1
    31    13    14   ar
    32    14    15   ar
    33    15    16    1
    34     5     6   ar
    35     6     1   ar
    36    31    24    1
    37    16     9    1
    38    15    11   ar
    39    22    17   ar
@<TRIPOS>MOLECULE
*****
 35 39 0 0 0
SMALL
GASTEIGER

@<TRIPOS>ATOM
      1 C           6.8055   -3.2931   31.5079 C.ar    1  UNL1        0.1060
      2 C           5.7698   -3.4253   32.5849 C.ar    1  UNL1        0.0196
      3 C           4.7220   -2.3651   32.7522 C.ar    1  UNL1        0.0160
      4 C           4.7099   -1.1725   31.8423 C.ar    1  UNL1        0.0523
      5 C           5.7456   -1.0402   30.7653 C.ar    1  UNL1        0.0682
      6 C           6.7933   -2.1006   30.5981 C.ar    1  UNL1        0.0241
      7 C           5.7334    0.1523   29.8555 C.2     1  UNL1        0.2508
      8 O           6.2527    1.4726   30.3426 O.2     1  UNL1       -0.2698
      9 N           5.2019    0.0246   28.4587 N.am    1  UNL1       -0.2661
     10 C           5.1263    1.1232   27.4402 C.3     1  UNL1        0.1236
     11 C           4.5304    0.5534   26.1871 C.ar    1  UNL1        0.0338
     12 C           4.1154    0.8802   24.7832 C.ar    1  UNL1        0.0991
     13 N           3.5661   -0.3686   24.1596 N.ar    1  UNL1       -0.2265
     14 N           3.6417   -1.4672   25.1781 N.ar    1  UNL1       -0.1679
     15 C           4.2376   -0.8974   26.4312 C.ar    1  UNL1        0.0981
     16 C           4.6526   -1.2242   27.8351 C.3     1  UNL1        0.1414
     17 C           3.0347   -0.4963   22.7628 C.ar    1  UNL1        0.1102
     18 C           1.9361    0.4103   22.2925 C.ar    1  UNL1        0.0214
     19 C           1.4046    0.2826   20.8956 C.ar    1  UNL1        0.0017
     20 C           1.9717   -0.7518   19.9691 C.ar    1  UNL1        0.0024
     21 C           3.0703   -1.6584   20.4394 C.ar    1  UNL1        0.0312
     22 C           3.6018   -1.5307   21.8362 C.ar    1  UNL1        0.1577
     23 F           4.7004   -2.4373   22.3064 F       1  UNL1       -0.2026
     24 N           3.6621   -0.1123   32.0096 N.pl3   1  UNL1       -0.3070
     25 C           3.6526    0.7453   33.2402 C.3     1  UNL1        0.0964
     26 C           2.6048    1.8055   33.4075 C.3     1  UNL1        0.0880
     27 C           1.5665    2.0082   32.3441 C.3     1  UNL1        0.2672
     28 F           0.3820    2.5774   31.6209 F       1  UNL1       -0.2042
     29 F           1.1457    3.0635   33.3236 F       1  UNL1       -0.2042
     30 C           1.5760    1.1507   31.1134 C.3     1  UNL1        0.0880
     31 C           2.6238    0.0904   30.9462 C.3     1  UNL1        0.0964
     32 C           8.9011   -5.4136   31.1734 C.3     1  UNL1        0.1816
     33 S           7.8533   -4.3533   31.3406 S.O2    1  UNL1        0.0105
     34 O           6.8491   -5.2391   30.6646 O.2     1  UNL1       -0.1686
     35 O           8.8575   -3.4675   32.0167 O.2     1  UNL1       -0.1686
@<TRIPOS>BOND
     1    32    33    1
     2    33    34    2
     3    33    35    2
     4    33     1    1
     5     1     2   ar
     6     2     3   ar
     7     3     4   ar
     8     4    24    1
     9    24    25    1
    10    25    26    1
    11    26    27    1
    12    27    28    1
    13    27    29    1
    14    27    30    1
    15    30    31    1
    16     4     5   ar
    17     5     7    1
    18     7     8    2
    19     7     9   am
    20     9    10    1
    21    10    11    1
    22    11    12   ar
    23    12    13   ar
    24    13    17    1
    25    17    18   ar
    26    18    19   ar
    27    19    20   ar
    28    20    21   ar
    29    21    22   ar
    30    22    23    1
    31    13    14   ar
    32    14    15   ar
    33    15    16    1
    34     5     6   ar
    35     6     1   ar
    36    31    24    1
    37    16     9    1
    38    15    11   ar
    39    22    17   ar
@<TRIPOS>MOLECULE
*****
 35 39 0 0 0
SMALL
GASTEIGER

@<TRIPOS>ATOM
      1 C           5.0419    3.1945   17.6731 C.ar    1  UNL1        0.1060
      2 C           6.1506    2.1883   17.5810 C.ar    1  UNL1        0.0196
      3 C           5.9579    0.8074   18.1340 C.ar    1  UNL1        0.0160
      4 C           4.6565    0.4327   18.7791 C.ar    1  UNL1        0.0523
      5 C           3.5478    1.4389   18.8712 C.ar    1  UNL1        0.0682
      6 C           3.7406    2.8199   18.3181 C.ar    1  UNL1        0.0241
      7 C           2.2465    1.0641   19.5162 C.2     1  UNL1        0.2508
      8 O           1.1129    0.5537   18.6769 O.2     1  UNL1       -0.2698
      9 N           2.0788    1.1998   21.0006 N.am    1  UNL1       -0.2661
     10 C           0.8429    0.8660   21.7824 C.3     1  UNL1        0.1236
     11 C           1.1179    1.1530   23.2289 C.ar    1  UNL1        0.0338
     12 C           0.5240    1.1241   24.6060 C.ar    1  UNL1        0.0991
     13 N           1.5627    1.6173   25.5692 N.ar    1  UNL1       -0.2265
     14 N           2.7986    1.9510   24.7874 N.ar    1  UNL1       -0.1679
     15 C           2.5237    1.6640   23.3409 C.ar    1  UNL1        0.0981
     16 C           3.1175    1.6929   21.9638 C.3     1  UNL1        0.1414
     17 C           1.3950    1.7529   27.0536 C.ar    1  UNL1        0.1102
     18 C           0.6778    2.9415   27.6218 C.ar    1  UNL1        0.0214
     19 C           0.5101    3.0772   29.1062 C.ar    1  UNL1        0.0017
     20 C           1.0595    2.0242   30.0224 C.ar    1  UNL1        0.0024
     21 C           1.7767    0.8356   29.4541 C.ar    1  UNL1        0.0312
     22 C           1.9444    0.6999   27.9697 C.ar    1  UNL1        0.1577
     23 F           2.6616   -0.4887   27.4015 F       1  UNL1       -0.2026
     24 N           4.4638   -0.9483   19.3321 N.pl3   1  UNL1       -0.3070
     25 C           4.8249   -1.2424   20.7579 C.3     1  UNL1        0.0964
     26 C           4.6322   -2.6234   21.3109 C.3     1  UNL1        0.0880
     27 C           4.0784   -3.7103   20.4380 C.3     1  UNL1        0.2672
     28 F           3.5912   -5.0624   20.0086 F       1  UNL1       -0.2042
     29 F           4.2703   -4.4739   21.7148 F       1  UNL1       -0.2042
     30 C           3.7173   -3.4162   19.0122 C.3     1  UNL1        0.0880
     31 C           3.9099   -2.0352   18.4592 C.3     1  UNL1        0.0964
     32 C           5.4273    5.9565   16.5671 C.3     1  UNL1        0.1816
     33 S           5.2346    4.5755   17.1201 S.O2    1  UNL1        0.0105
     34 O           6.7212    4.3758   17.1394 O.2     1  UNL1       -0.1686
     35 O           3.7481    4.7752   17.1008 O.2     1  UNL1       -0.1686
@<TRIPOS>BOND
     1    32    33    1
     2    33    34    2
     3    33    35    2
     4    33     1    1
     5     1     2   ar
     6     2     3   ar
     7     3     4   ar
     8     4    24    1
     9    24    25    1
    10    25    26    1
    11    26    27    1
    12    27    28    1
    13    27    29    1
    14    27    30    1
    15    30    31    1
    16     4     5   ar
    17     5     7    1
    18     7     8    2
    19     7     9   am
    20     9    10    1
    21    10    11    1
    22    11    12   ar
    23    12    13   ar
    24    13    17    1
    25    17    18   ar
    26    18    19   ar
    27    19    20   ar
    28    20    21   ar
    29    21    22   ar
    30    22    23    1
    31    13    14   ar
    32    14    15   ar
    33    15    16    1
    34     5     6   ar
    35     6     1   ar
    36    31    24    1
    37    16     9    1
    38    15    11   ar
    39    22    17   ar
@<TRIPOS>MOLECULE
*****
 35 39 0 0 0
SMALL
GASTEIGER

@<TRIPOS>ATOM
      1 C           7.5207    1.7024   17.6598 C.ar    1  UNL1        0.1060
      2 C           8.3444    0.5948   18.2469 C.ar    1  UNL1        0.0196
      3 C           7.6774   -0.6534   18.7441 C.ar    1  UNL1        0.0160
      4 C           6.1866   -0.7939   18.6541 C.ar    1  UNL1        0.0523
      5 C           5.3629    0.3137   18.0669 C.ar    1  UNL1        0.0682
      6 C           6.0300    1.5619   17.5697 C.ar    1  UNL1        0.0241
      7 C           3.8723    0.1732   17.9769 C.2     1  UNL1        0.2508
      8 O           3.2547   -0.5305   16.8050 O.2     1  UNL1       -0.2698
      9 N           2.9992    0.7362   19.0589 N.am    1  UNL1       -0.2661
     10 C           1.5012    0.6729   19.1054 C.3     1  UNL1        0.1236
     11 C           1.0471    1.3591   20.3597 C.ar    1  UNL1        0.0338
     12 C          -0.1594    1.7440   21.1635 C.ar    1  UNL1        0.0991
     13 N           0.3122    2.4693   22.3889 N.ar    1  UNL1       -0.2265
     14 N           1.8102    2.5327   22.3423 N.ar    1  UNL1       -0.1679
     15 C           2.2644    1.8465   21.0881 C.ar    1  UNL1        0.0981
     16 C           3.4708    1.4615   20.2842 C.3     1  UNL1        0.1414
     17 C          -0.5609    3.0324   23.4708 C.ar    1  UNL1        0.1102
     18 C          -1.3668    4.2715   23.2154 C.ar    1  UNL1        0.0214
     19 C          -2.2399    4.8346   24.2974 C.ar    1  UNL1        0.0017
     20 C          -2.3070    4.1586   25.6348 C.ar    1  UNL1        0.0024
     21 C          -1.5011    2.9195   25.8902 C.ar    1  UNL1        0.0312
     22 C          -0.6280    2.3564   24.8082 C.ar    1  UNL1        0.1577
     23 F           0.1779    1.1173   25.0637 F       1  UNL1       -0.2026
     24 N           5.5196   -2.0420   19.1513 N.pl3   1  UNL1       -0.3070
     25 C           5.0905   -2.1429   20.5850 C.3     1  UNL1        0.0964
     26 C           4.4235   -3.3911   21.0822 C.3     1  UNL1        0.0880
     27 C           4.1856   -4.5384   20.1456 C.3     1  UNL1        0.2672
     28 F           3.7456   -5.8829   19.6469 F       1  UNL1       -0.2042
     29 F           3.6037   -5.1062   21.4062 F       1  UNL1       -0.2042
     30 C           4.6147   -4.4375   18.7119 C.3     1  UNL1        0.0880
     31 C           5.2817   -3.1893   18.2147 C.3     1  UNL1        0.0964
     32 C           8.8547    4.1987   16.6654 C.3     1  UNL1        0.1816
     33 S           8.1877    2.9505   17.1626 S.O2    1  UNL1        0.0105
     34 O           9.3699    2.1416   16.7176 O.2     1  UNL1       -0.1686
     35 O           7.0055    3.7595   17.6076 O.2     1  UNL1       -0.1686
@<TRIPOS>BOND
     1    32    33    1
     2    33    34    2
     3    33    35    2
     4    33     1    1
     5     1     2   ar
     6     2     3   ar
     7     3     4   ar
     8     4    24    1
     9    24    25    1
    10    25    26    1
    11    26    27    1
    12    27    28    1
    13    27    29    1
    14    27    30    1
    15    30    31    1
    16     4     5   ar
    17     5     7    1
    18     7     8    2
    19     7     9   am
    20     9    10    1
    21    10    11    1
    22    11    12   ar
    23    12    13   ar
    24    13    17    1
    25    17    18   ar
    26    18    19   ar
    27    19    20   ar
    28    20    21   ar
    29    21    22   ar
    30    22    23    1
    31    13    14   ar
    32    14    15   ar
    33    15    16    1
    34     5     6   ar
    35     6     1   ar
    36    31    24    1
    37    16     9    1
    38    15    11   ar
    39    22    17   ar
@<TRIPOS>MOLECULE
*****
 35 39 0 0 0
SMALL
GASTEIGER

@<TRIPOS>ATOM
      1 C           3.3463    0.0017   25.1291 C.ar    1  UNL1        0.1060
      2 C           3.8075   -1.2804   24.5018 C.ar    1  UNL1        0.0196
      3 C           4.0419   -1.3494   23.0218 C.ar    1  UNL1        0.0160
      4 C           3.8151   -0.1362   22.1692 C.ar    1  UNL1        0.0523
      5 C           3.3539    1.1459   22.7966 C.ar    1  UNL1        0.0682
      6 C           3.1195    1.2148   24.2766 C.ar    1  UNL1        0.0241
      7 C           3.1272    2.3590   21.9440 C.2     1  UNL1        0.2508
      8 O           4.2721    3.2721   21.6191 O.2     1  UNL1       -0.2698
      9 N           1.7556    2.6590   21.4161 N.am    1  UNL1       -0.2661
     10 C           1.3782    3.8284   20.5559 C.3     1  UNL1        0.1236
     11 C          -0.0902    3.7344   20.2640 C.ar    1  UNL1        0.0338
     12 C          -1.2309    4.3990   19.5520 C.ar    1  UNL1        0.0991
     13 N          -2.4659    3.5822   19.7917 N.ar    1  UNL1       -0.2265
     14 N          -2.0886    2.4127   20.6520 N.ar    1  UNL1       -0.1679
     15 C          -0.6202    2.5068   20.9439 C.ar    1  UNL1        0.0981
     16 C           0.5205    1.8422   21.6559 C.3     1  UNL1        0.1414
     17 C          -3.8376    3.8822   19.2639 C.ar    1  UNL1        0.1102
     18 C          -4.0003    4.5020   17.9077 C.ar    1  UNL1        0.0214
     19 C          -5.3720    4.8021   17.3799 C.ar    1  UNL1        0.0017
     20 C          -6.5808    4.4822   18.2083 C.ar    1  UNL1        0.0024
     21 C          -6.4181    3.8624   19.5645 C.ar    1  UNL1        0.0312
     22 C          -5.0465    3.5624   20.0923 C.ar    1  UNL1        0.1577
     23 F          -4.8838    2.9425   21.4486 F       1  UNL1       -0.2026
     24 N           4.0496   -0.2052   20.6893 N.pl3   1  UNL1       -0.3070
     25 C           5.4058    0.1069   20.1294 C.3     1  UNL1        0.0964
     26 C           5.6402    0.0379   18.6495 C.3     1  UNL1        0.0880
     27 C           4.5185   -0.3431   17.7294 C.3     1  UNL1        0.2672
     28 F           3.7786   -0.6532   16.4619 F       1  UNL1       -0.2042
     29 F           5.6177   -0.1388   16.7293 F       1  UNL1       -0.2042
     30 C           3.1624   -0.6552   18.2892 C.3     1  UNL1        0.0880
     31 C           2.9279   -0.5862   19.7692 C.3     1  UNL1        0.0964
     32 C           2.8773    0.1396   28.0890 C.3     1  UNL1        0.1816
     33 S           3.1118    0.0707   26.6091 S.O2    1  UNL1        0.0105
     34 O           2.6739    1.4989   26.4731 O.2     1  UNL1       -0.1686
     35 O           3.5497   -1.3575   26.7450 O.2     1  UNL1       -0.1686
@<TRIPOS>BOND
     1    32    33    1
     2    33    34    2
     3    33    35    2
     4    33     1    1
     5     1     2   ar
     6     2     3   ar
     7     3     4   ar
     8     4    24    1
     9    24    25    1
    10    25    26    1
    11    26    27    1
    12    27    28    1
    13    27    29    1
    14    27    30    1
    15    30    31    1
    16     4     5   ar
    17     5     7    1
    18     7     8    2
    19     7     9   am
    20     9    10    1
    21    10    11    1
    22    11    12   ar
    23    12    13   ar
    24    13    17    1
    25    17    18   ar
    26    18    19   ar
    27    19    20   ar
    28    20    21   ar
    29    21    22   ar
    30    22    23    1
    31    13    14   ar
    32    14    15   ar
    33    15    16    1
    34     5     6   ar
    35     6     1   ar
    36    31    24    1
    37    16     9    1
    38    15    11   ar
    39    22    17   ar
@<TRIPOS>MOLECULE
*****
 35 39 0 0 0
SMALL
GASTEIGER

@<TRIPOS>ATOM
      1 C           5.2986   -1.2248   31.1393 C.ar    1  UNL1        0.1060
      2 C           3.9231   -1.2561   31.7368 C.ar    1  UNL1        0.0196
      3 C           2.7970   -0.5272   31.0656 C.ar    1  UNL1        0.0160
      4 C           3.0465    0.2331   29.7968 C.ar    1  UNL1        0.0523
      5 C           4.4220    0.2644   29.1992 C.ar    1  UNL1        0.0682
      6 C           5.5480   -0.4646   29.8705 C.ar    1  UNL1        0.0241
      7 C           4.6713    1.0247   27.9305 C.2     1  UNL1        0.2508
      8 O           4.9230    2.5027   27.9789 O.2     1  UNL1       -0.2698
      9 N           4.6690    0.3071   26.6133 N.am    1  UNL1       -0.2661
     10 C           4.9017    0.9307   25.2690 C.3     1  UNL1        0.1236
     11 C           4.8101   -0.1513   24.2341 C.ar    1  UNL1        0.0338
     12 C           4.8973   -0.4345   22.7637 C.ar    1  UNL1        0.0991
     13 N           4.6620   -1.9018   22.5595 N.ar    1  UNL1       -0.2265
     14 N           4.4293   -2.5254   23.9038 N.ar    1  UNL1       -0.1679
     15 C           4.5209   -1.4435   24.9388 C.ar    1  UNL1        0.0981
     16 C           4.4337   -1.1602   26.4092 C.3     1  UNL1        0.1414
     17 C           4.6597   -2.6195   21.2424 C.ar    1  UNL1        0.1102
     18 C           5.7802   -3.5546   20.8958 C.ar    1  UNL1        0.0214
     19 C           5.7779   -4.2723   19.5786 C.ar    1  UNL1        0.0017
     20 C           4.6551   -4.0548   18.6080 C.ar    1  UNL1        0.0024
     21 C           3.5347   -3.1197   18.9546 C.ar    1  UNL1        0.0312
     22 C           3.5369   -2.4020   20.2718 C.ar    1  UNL1        0.1577
     23 F           2.4164   -1.4669   20.6182 F       1  UNL1       -0.2026
     24 N           1.9204    0.9620   29.1256 N.pl3   1  UNL1       -0.3070
     25 C           1.0113    0.2320   28.1819 C.3     1  UNL1        0.0964
     26 C          -0.1148    0.9610   27.5107 C.3     1  UNL1        0.0880
     27 C          -0.3319    2.4199   27.7831 C.3     1  UNL1        0.2672
     28 F          -0.9377    3.7907   27.7203 F       1  UNL1       -0.2042
     29 F          -1.4514    2.1659   26.8176 F       1  UNL1       -0.2042
     30 C           0.5772    3.1500   28.7268 C.3     1  UNL1        0.0880
     31 C           1.7034    2.4210   29.3981 C.3     1  UNL1        0.0964
     32 C           7.5508   -2.6827   32.4817 C.3     1  UNL1        0.1816
     33 S           6.4247   -1.9538   31.8105 S.O2    1  UNL1        0.0105
     34 O           5.4342   -2.7545   32.6027 O.2     1  UNL1       -0.1686
     35 O           7.4153   -1.1530   31.0182 O.2     1  UNL1       -0.1686
@<TRIPOS>BOND
     1    32    33    1
     2    33    34    2
     3    33    35    2
     4    33     1    1
     5     1     2   ar
     6     2     3   ar
     7     3     4   ar
     8     4    24    1
     9    24    25    1
    10    25    26    1
    11    26    27    1
    12    27    28    1
    13    27    29    1
    14    27    30    1
    15    30    31    1
    16     4     5   ar
    17     5     7    1
    18     7     8    2
    19     7     9   am
    20     9    10    1
    21    10    11    1
    22    11    12   ar
    23    12    13   ar
    24    13    17    1
    25    17    18   ar
    26    18    19   ar
    27    19    20   ar
    28    20    21   ar
    29    21    22   ar
    30    22    23    1
    31    13    14   ar
    32    14    15   ar
    33    15    16    1
    34     5     6   ar
    35     6     1   ar
    36    31    24    1
    37    16     9    1
    38    15    11   ar
    39    22    17   ar
@<TRIPOS>MOLECULE
*****
 35 39 0 0 0
SMALL
GASTEIGER

@<TRIPOS>ATOM
      1 C           6.1747   -2.8839   24.9523 C.ar    1  UNL1        0.1060
      2 C           5.8076   -3.8041   23.8260 C.ar    1  UNL1        0.0196
      3 C           5.1485   -3.2567   22.5948 C.ar    1  UNL1        0.0160
      4 C           4.8566   -1.7891   22.4898 C.ar    1  UNL1        0.0523
      5 C           5.2238   -0.8689   23.6161 C.ar    1  UNL1        0.0682
      6 C           5.8829   -1.4164   24.8473 C.ar    1  UNL1        0.0241
      7 C           4.9319    0.5987   23.5110 C.2     1  UNL1        0.2508
      8 O           6.0105    1.5492   23.0830 O.2     1  UNL1       -0.2698
      9 N           3.5614    1.1158   23.8340 N.am    1  UNL1       -0.2661
     10 C           3.1233    2.5491   23.7749 C.3     1  UNL1        0.1236
     11 C           1.6795    2.6095   24.1773 C.ar    1  UNL1        0.0338
     12 C           0.5164    3.5326   24.3894 C.ar    1  UNL1        0.0991
     13 N          -0.6566    2.7071   24.8282 N.ar    1  UNL1       -0.2265
     14 N          -0.2184    1.2737   24.8874 N.ar    1  UNL1       -0.1679
     15 C           1.2254    1.2134   24.4850 C.ar    1  UNL1        0.0981
     16 C           2.3885    0.2902   24.2729 C.3     1  UNL1        0.1414
     17 C          -2.0271    3.2242   25.1512 C.ar    1  UNL1        0.1102
     18 C          -2.4409    3.4098   26.5810 C.ar    1  UNL1        0.0214
     19 C          -3.8114    3.9269   26.9041 C.ar    1  UNL1        0.0017
     20 C          -4.7681    4.2583   25.7973 C.ar    1  UNL1        0.0024
     21 C          -4.3542    4.0726   24.3675 C.ar    1  UNL1        0.0312
     22 C          -2.9837    3.5556   24.0445 C.ar    1  UNL1        0.1577
     23 F          -2.5700    3.3699   22.6146 F       1  UNL1       -0.2026
     24 N           4.1976   -1.2417   21.2586 N.pl3   1  UNL1       -0.3070
     25 C           5.0350   -0.7349   20.1219 C.3     1  UNL1        0.0964
     26 C           4.3759   -0.1875   18.8907 C.3     1  UNL1        0.0880
     27 C           2.8794   -0.1470   18.7960 C.3     1  UNL1        0.2672
     28 F           1.5084    0.0994   18.2395 F       1  UNL1       -0.2042
     29 F           3.2407    0.4454   17.4661 F       1  UNL1       -0.2042
     30 C           2.0421   -0.6537   19.9326 C.3     1  UNL1        0.0880
     31 C           2.7011   -1.2011   21.1639 C.3     1  UNL1        0.0964
     32 C           7.4929   -3.9786   27.4148 C.3     1  UNL1        0.1816
     33 S           6.8338   -3.4313   26.1835 S.O2    1  UNL1        0.0105
     34 O           6.7782   -4.8118   25.5996 O.2     1  UNL1       -0.1686
     35 O           6.8894   -2.0507   26.7675 O.2     1  UNL1       -0.1686
@<TRIPOS>BOND
     1    32    33    1
     2    33    34    2
     3    33    35    2
     4    33     1    1
     5     1     2   ar
     6     2     3   ar
     7     3     4   ar
     8     4    24    1
     9    24    25    1
    10    25    26    1
    11    26    27    1
    12    27    28    1
    13    27    29    1
    14    27    30    1
    15    30    31    1
    16     4     5   ar
    17     5     7    1
    18     7     8    2
    19     7     9   am
    20     9    10    1
    21    10    11    1
    22    11    12   ar
    23    12    13   ar
    24    13    17    1
    25    17    18   ar
    26    18    19   ar
    27    19    20   ar
    28    20    21   ar
    29    21    22   ar
    30    22    23    1
    31    13    14   ar
    32    14    15   ar
    33    15    16    1
    34     5     6   ar
    35     6     1   ar
    36    31    24    1
    37    16     9    1
    38    15    11   ar
    39    22    17   ar
