@<TRIPOS>MOLECULE
*****
 23 26 0 0 0
SMALL
GASTEIGER

@<TRIPOS>ATOM
      1 C          -8.5792  -17.9372   22.7568 C.2     1  UNL1        0.3428
      2 O          -9.1299  -18.6670   23.9459 O.2     1  UNL1       -0.2448
      3 C          -3.3106  -19.2944   21.3297 C.2     1  UNL1        0.1222
      4 C          -3.7457  -18.4784   22.5107 C.2     1  UNL1        0.0328
      5 C          -5.2035  -18.2113   22.7417 C.2     1  UNL1        0.0042
      6 C          -6.2263  -18.7603   21.7918 C.2     1  UNL1        0.0218
      7 C          -7.7228  -18.6630   21.7619 C.2     1  UNL1        0.0958
      8 C          -8.2127  -19.4189   20.5624 C.2     1  UNL1        0.1049
      9 N          -7.0189  -19.9834   19.8510 N.2     1  UNL1       -0.2475
     10 C          -5.7912  -19.5764   20.6108 C.2     1  UNL1        0.0668
     11 C          -4.3334  -19.8434   20.3798 C.3     1  UNL1        0.1095
     12 C          -1.0567  -18.6562   20.2061 C.3     1  UNL1        0.2520
     13 O          -1.8527  -19.5614   21.0987 O.2     1  UNL1       -0.4753
     14 O          -8.8848  -16.4816   22.5627 O.3     1  UNL1       -0.4454
     15 C          -7.9222  -15.4412   23.0536 C.3     1  UNL1        0.2087
     16 C          -7.4730  -15.4507   24.4848 C.3     1  UNL1        0.0445
     17 C          -8.4871  -15.5054   25.5887 C.3     1  UNL1        0.0210
     18 C          -8.0380  -15.5150   27.0199 C.3     1  UNL1        0.0722
     19 N          -6.5748  -15.4699   27.3471 N.3     1  UNL1       -0.2727
     20 C          -5.5608  -15.4152   26.2431 C.3     1  UNL1        0.0722
     21 C          -6.0099  -15.4057   24.8119 C.3     1  UNL1        0.0210
     22 C          -6.7727  -15.4627   26.5479 C.3     1  UNL1        0.0722
     23 C          -7.1789  -15.4540   25.2538 C.3     1  UNL1        0.0210
@<TRIPOS>BOND
     1    12    13    1
     2    13     3    1
     3     3     4    2
     4     4     5    1
     5     5     6    2
     6     6     7    1
     7     7     1    1
     8     1     2    2
     9     1    14    1
    10    14    15    1
    11    15    16    1
    12    16    17    1
    13    17    18    1
    14    18    19    1
    15    19    20    1
    16    20    21    1
    17    19    22    1
    18    22    23    1
    19     7     8    2
    20     8     9    1
    21     9    10    2
    22    10    11    1
    23    11     3    1
    24    10     6    1
    25    21    16    1
    26    23    16    1
@<TRIPOS>MOLECULE
*****
 23 26 0 0 0
SMALL
GASTEIGER

@<TRIPOS>ATOM
      1 C          -7.8629  -18.8860   22.7515 C.2     1  UNL1        0.3428
      2 O          -7.9437  -17.4087   22.9983 O.2     1  UNL1       -0.2448
      3 C          -2.3992  -18.8964   21.4159 C.2     1  UNL1        0.1222
      4 C          -3.0567  -18.1334   22.5274 C.2     1  UNL1        0.0328
      5 C          -4.5368  -18.2480   22.7427 C.2     1  UNL1        0.0042
      6 C          -5.3593  -19.1256   21.8464 C.2     1  UNL1        0.0218
      7 C          -6.8268  -19.4346   21.8159 C.2     1  UNL1        0.0958
      8 C          -7.0762  -20.3886   20.6855 C.2     1  UNL1        0.1049
      9 N          -5.7629  -20.6691   20.0174 N.2     1  UNL1       -0.2475
     10 C          -4.7018  -19.8885   20.7349 C.2     1  UNL1        0.0668
     11 C          -3.2217  -19.7739   20.5196 C.3     1  UNL1        0.1095
     12 C          -0.3871  -17.9335   20.0838 C.3     1  UNL1        0.2520
     13 O          -0.9192  -18.7818   21.2007 O.2     1  UNL1       -0.4753
     14 O          -8.8183  -19.8147   23.4405 O.3     1  UNL1       -0.4454
     15 C         -10.1206  -20.1711   22.7870 C.3     1  UNL1        0.2087
     16 C         -10.9021  -19.1233   22.0513 C.3     1  UNL1        0.0445
     17 C         -11.9516  -18.3280   22.7697 C.3     1  UNL1        0.0210
     18 C         -12.7332  -17.2801   22.0340 C.3     1  UNL1        0.0722
     19 N         -12.4652  -17.0275   20.5800 N.3     1  UNL1       -0.2727
     20 C         -11.4157  -17.8228   19.8616 C.3     1  UNL1        0.0722
     21 C         -10.6341  -18.8707   20.5972 C.3     1  UNL1        0.0210
     22 C         -12.0114  -17.6122   20.9408 C.3     1  UNL1        0.0722
     23 C         -11.3047  -18.5597   21.6060 C.3     1  UNL1        0.0210
@<TRIPOS>BOND
     1    12    13    1
     2    13     3    1
     3     3     4    2
     4     4     5    1
     5     5     6    2
     6     6     7    1
     7     7     1    1
     8     1     2    2
     9     1    14    1
    10    14    15    1
    11    15    16    1
    12    16    17    1
    13    17    18    1
    14    18    19    1
    15    19    20    1
    16    20    21    1
    17    19    22    1
    18    22    23    1
    19     7     8    2
    20     8     9    1
    21     9    10    2
    22    10    11    1
    23    11     3    1
    24    10     6    1
    25    21    16    1
    26    23    16    1
@<TRIPOS>MOLECULE
*****
 23 26 0 0 0
SMALL
GASTEIGER

@<TRIPOS>ATOM
      1 C         -11.0168  -17.4438   20.2354 C.2     1  UNL1        0.3428
      2 O         -10.7746  -15.9987   19.9144 O.2     1  UNL1       -0.2448
      3 C          -5.9610  -19.2315   21.9322 C.2     1  UNL1        0.1222
      4 C          -6.7466  -18.0811   22.4882 C.2     1  UNL1        0.0328
      5 C          -8.0889  -17.7410   21.9114 C.2     1  UNL1        0.0042
      6 C          -8.6455  -18.5513   20.7785 C.2     1  UNL1        0.0218
      7 C          -9.9309  -18.4541   20.0116 C.2     1  UNL1        0.0958
      8 C          -9.9397  -19.5444   18.9815 C.2     1  UNL1        0.1049
      9 N          -8.6598  -20.3156   19.1118 N.2     1  UNL1       -0.2475
     10 C          -7.8599  -19.7018   20.2225 C.2     1  UNL1        0.0668
     11 C          -6.5177  -20.0419   20.7993 C.3     1  UNL1        0.1095
     12 C          -3.3792  -18.9423   21.9459 C.3     1  UNL1        0.2520
     13 O          -4.6188  -19.5716   22.5090 O.2     1  UNL1       -0.4753
     14 O         -12.3450  -17.8786   20.7802 O.3     1  UNL1       -0.4454
     15 C         -12.5702  -17.9206   22.2626 C.3     1  UNL1        0.2087
     16 C         -11.5556  -18.5688   23.1573 C.3     1  UNL1        0.0445
     17 C         -11.1909  -20.0099   22.9570 C.3     1  UNL1        0.0210
     18 C         -10.1763  -20.6582   23.8517 C.3     1  UNL1        0.0722
     19 N          -9.5264  -19.8653   24.9466 N.3     1  UNL1       -0.2727
     20 C          -9.8911  -18.4241   25.1469 C.3     1  UNL1        0.0722
     21 C         -10.9057  -17.7758   24.2522 C.3     1  UNL1        0.0210
     22 C         -10.0767  -19.4667   24.4816 C.3     1  UNL1        0.0722
     23 C         -10.9942  -18.8806   23.6726 C.3     1  UNL1        0.0210
@<TRIPOS>BOND
     1    12    13    1
     2    13     3    1
     3     3     4    2
     4     4     5    1
     5     5     6    2
     6     6     7    1
     7     7     1    1
     8     1     2    2
     9     1    14    1
    10    14    15    1
    11    15    16    1
    12    16    17    1
    13    17    18    1
    14    18    19    1
    15    19    20    1
    16    20    21    1
    17    19    22    1
    18    22    23    1
    19     7     8    2
    20     8     9    1
    21     9    10    2
    22    10    11    1
    23    11     3    1
    24    10     6    1
    25    21    16    1
    26    23    16    1
@<TRIPOS>MOLECULE
*****
 23 26 0 0 0
SMALL
GASTEIGER

@<TRIPOS>ATOM
      1 C          -6.3744  -18.7983   21.4266 C.2     1  UNL1        0.3428
      2 O          -6.3081  -18.6111   19.9398 O.2     1  UNL1       -0.2448
      3 C         -11.8177  -18.0486   22.6286 C.2     1  UNL1        0.1222
      4 C         -11.2321  -19.0422   21.6695 C.2     1  UNL1        0.0328
      5 C          -9.7469  -19.1060   21.4694 C.2     1  UNL1        0.0042
      6 C          -8.8472  -18.1763   22.2284 C.2     1  UNL1        0.0218
      7 C          -7.3567  -18.0078   22.2390 C.2     1  UNL1        0.0958
      8 C          -7.0211  -16.9101   23.2047 C.2     1  UNL1        0.1049
      9 N          -8.3042  -16.4001   23.7909 N.2     1  UNL1       -0.2475
     10 C          -9.4328  -17.1827   23.1875 C.2     1  UNL1        0.0668
     11 C         -10.9180  -17.1189   23.3876 C.3     1  UNL1        0.1095
     12 C         -13.8779  -18.0726   24.2112 C.3     1  UNL1        0.2520
     13 O         -13.3029  -17.9848   22.8286 O.2     1  UNL1       -0.4753
     14 O          -5.4582  -19.7760   22.1009 O.3     1  UNL1       -0.4454
     15 C          -4.2003  -19.2933   22.7601 C.3     1  UNL1        0.2087
     16 C          -3.2127  -18.4745   21.9827 C.3     1  UNL1        0.0445
     17 C          -2.5227  -19.0659   20.7893 C.3     1  UNL1        0.0210
     18 C          -1.5351  -18.2471   20.0118 C.3     1  UNL1        0.0722
     19 N          -1.2376  -16.8370   20.4277 N.3     1  UNL1       -0.2727
     20 C          -1.9277  -16.2456   21.6211 C.3     1  UNL1        0.0722
     21 C          -2.9152  -17.0644   22.3986 C.3     1  UNL1        0.0210
     22 C          -1.7863  -17.2467   20.8849 C.3     1  UNL1        0.0722
     23 C          -2.6793  -17.9871   21.5879 C.3     1  UNL1        0.0210
@<TRIPOS>BOND
     1    12    13    1
     2    13     3    1
     3     3     4    2
     4     4     5    1
     5     5     6    2
     6     6     7    1
     7     7     1    1
     8     1     2    2
     9     1    14    1
    10    14    15    1
    11    15    16    1
    12    16    17    1
    13    17    18    1
    14    18    19    1
    15    19    20    1
    16    20    21    1
    17    19    22    1
    18    22    23    1
    19     7     8    2
    20     8     9    1
    21     9    10    2
    22    10    11    1
    23    11     3    1
    24    10     6    1
    25    21    16    1
    26    23    16    1
@<TRIPOS>MOLECULE
*****
 23 26 0 0 0
SMALL
GASTEIGER

@<TRIPOS>ATOM
      1 C          -7.9663  -19.5920   19.8463 C.2     1  UNL1        0.3428
      2 O          -7.6965  -20.8831   19.1321 O.2     1  UNL1       -0.2448
      3 C          -2.4698  -18.9250   20.8367 C.2     1  UNL1        0.1222
      4 C          -3.0999  -19.6109   19.6608 C.2     1  UNL1        0.0328
      5 C          -4.5937  -19.6982   19.5554 C.2     1  UNL1        0.0042
      6 C          -5.4573  -19.0997   20.6259 C.2     1  UNL1        0.0218
      7 C          -6.9465  -19.0309   20.7924 C.2     1  UNL1        0.0958
      8 C          -7.2367  -18.3025   22.0712 C.2     1  UNL1        0.1049
      9 N          -5.9270  -17.9212   22.6950 N.2     1  UNL1       -0.2475
     10 C          -4.8273  -18.4138   21.8017 C.2     1  UNL1        0.0668
     11 C          -3.3335  -18.3265   21.9071 C.3     1  UNL1        0.1095
     12 C          -0.2219  -17.8470   20.1058 C.3     1  UNL1        0.2520
     13 O          -0.9761  -18.8377   20.9421 O.2     1  UNL1       -0.4753
     14 O          -9.2559  -18.8619   19.6144 O.3     1  UNL1       -0.4454
     15 C         -10.5503  -19.4591   20.0812 C.3     1  UNL1        0.2087
     16 C         -11.0978  -19.1010   21.4310 C.3     1  UNL1        0.0445
     17 C         -12.1670  -18.0561   21.5535 C.3     1  UNL1        0.0210
     18 C         -12.7146  -17.6979   22.9033 C.3     1  UNL1        0.0722
     19 N         -12.1930  -18.3847   24.1306 N.3     1  UNL1       -0.2727
     20 C         -11.1238  -19.4296   24.0081 C.3     1  UNL1        0.0722
     21 C         -10.5762  -19.7878   22.6583 C.3     1  UNL1        0.0210
     22 C         -11.8621  -18.6146   23.4125 C.3     1  UNL1        0.0722
     23 C         -11.3670  -18.9384   22.1920 C.3     1  UNL1        0.0210
@<TRIPOS>BOND
     1    12    13    1
     2    13     3    1
     3     3     4    2
     4     4     5    1
     5     5     6    2
     6     6     7    1
     7     7     1    1
     8     1     2    2
     9     1    14    1
    10    14    15    1
    11    15    16    1
    12    16    17    1
    13    17    18    1
    14    18    19    1
    15    19    20    1
    16    20    21    1
    17    19    22    1
    18    22    23    1
    19     7     8    2
    20     8     9    1
    21     9    10    2
    22    10    11    1
    23    11     3    1
    24    10     6    1
    25    21    16    1
    26    23    16    1
@<TRIPOS>MOLECULE
*****
 23 26 0 0 0
SMALL
GASTEIGER

@<TRIPOS>ATOM
      1 C          -8.0290  -18.0963   21.4373 C.2     1  UNL1        0.3428
      2 O          -7.9455  -18.6225   20.0351 O.2     1  UNL1       -0.2448
      3 C         -13.0320  -18.2030   24.0053 C.2     1  UNL1        0.1222
      4 C         -12.5743  -17.2326   22.9571 C.2     1  UNL1        0.0328
      5 C         -11.1968  -17.3513   22.3753 C.2     1  UNL1        0.0042
      6 C         -10.2770  -18.4404   22.8419 C.2     1  UNL1        0.0218
      7 C          -8.8741  -18.8037   22.4548 C.2     1  UNL1        0.0958
      8 C          -8.4647  -19.9987   23.2638 C.2     1  UNL1        0.1049
      9 N          -9.6145  -20.3739   24.1510 N.2     1  UNL1       -0.2475
     10 C         -10.7346  -19.4107   23.8902 C.2     1  UNL1        0.0668
     11 C         -12.1121  -19.2920   24.4719 C.3     1  UNL1        0.1095
     12 C         -14.6607  -18.4904   26.0089 C.3     1  UNL1        0.2520
     13 O         -14.4095  -18.0843   24.5870 O.2     1  UNL1       -0.4753
     14 O          -7.2674  -16.8626   21.8219 O.3     1  UNL1       -0.4454
     15 C          -7.9136  -15.8214   22.6869 C.3     1  UNL1        0.2087
     16 C          -7.5509  -15.7221   24.1389 C.3     1  UNL1        0.0445
     17 C          -6.1610  -15.3249   24.5393 C.3     1  UNL1        0.0210
     18 C          -5.7981  -15.2255   25.9914 C.3     1  UNL1        0.0722
     19 N          -6.8253  -15.5234   27.0431 N.3     1  UNL1       -0.2727
     20 C          -8.2152  -15.9206   26.6428 C.3     1  UNL1        0.0722
     21 C          -8.5781  -16.0199   25.1907 C.3     1  UNL1        0.0210
     22 C          -7.0711  -15.5913   26.2602 C.3     1  UNL1        0.0722
     23 C          -7.3991  -15.6811   24.9472 C.3     1  UNL1        0.0210
@<TRIPOS>BOND
     1    12    13    1
     2    13     3    1
     3     3     4    2
     4     4     5    1
     5     5     6    2
     6     6     7    1
     7     7     1    1
     8     1     2    2
     9     1    14    1
    10    14    15    1
    11    15    16    1
    12    16    17    1
    13    17    18    1
    14    18    19    1
    15    19    20    1
    16    20    21    1
    17    19    22    1
    18    22    23    1
    19     7     8    2
    20     8     9    1
    21     9    10    2
    22    10    11    1
    23    11     3    1
    24    10     6    1
    25    21    16    1
    26    23    16    1
@<TRIPOS>MOLECULE
*****
 23 26 0 0 0
SMALL
GASTEIGER

@<TRIPOS>ATOM
      1 C          -4.6173  -16.5628   23.4342 C.2     1  UNL1        0.3428
      2 O          -3.7872  -15.5798   22.6631 O.2     1  UNL1       -0.2448
      3 C         -10.0648  -17.6527   22.5551 C.2     1  UNL1        0.1222
      4 C          -8.8928  -18.2987   21.8776 C.2     1  UNL1        0.0328
      5 C          -7.4967  -17.8836   22.2364 C.2     1  UNL1        0.0042
      6 C          -7.2727  -16.8227   23.2728 C.2     1  UNL1        0.0218
      7 C          -6.0210  -16.2118   23.8296 C.2     1  UNL1        0.0958
      8 C          -6.4194  -15.1883   24.8512 C.2     1  UNL1        0.1049
      9 N          -7.9174  -15.1666   24.9259 N.2     1  UNL1       -0.2475
     10 C          -8.4447  -16.1767   23.9503 C.2     1  UNL1        0.0668
     11 C          -9.8408  -16.5918   23.5914 C.3     1  UNL1        0.1095
     12 C         -12.1917  -17.3646   21.0911 C.3     1  UNL1        0.2520
     13 O         -11.4609  -18.0678   22.1962 O.2     1  UNL1       -0.4753
     14 O          -4.0436  -17.8969   23.8098 O.3     1  UNL1       -0.4454
     15 C          -3.9769  -18.9978   22.7931 C.3     1  UNL1        0.2087
     16 C          -3.2072  -18.7984   21.5212 C.3     1  UNL1        0.0445
     17 C          -3.8869  -18.9821   20.1967 C.3     1  UNL1        0.0210
     18 C          -3.1173  -18.7827   18.9246 C.3     1  UNL1        0.0722
     19 N          -1.6680  -18.3996   18.9771 N.3     1  UNL1       -0.2727
     20 C          -0.9884  -18.2159   20.3016 C.3     1  UNL1        0.0722
     21 C          -1.7580  -18.4153   21.5737 C.3     1  UNL1        0.0210
     22 C          -2.0483  -18.4978   19.7008 C.3     1  UNL1        0.0722
     23 C          -2.7443  -18.6781   20.8510 C.3     1  UNL1        0.0210
@<TRIPOS>BOND
     1    12    13    1
     2    13     3    1
     3     3     4    2
     4     4     5    1
     5     5     6    2
     6     6     7    1
     7     7     1    1
     8     1     2    2
     9     1    14    1
    10    14    15    1
    11    15    16    1
    12    16    17    1
    13    17    18    1
    14    18    19    1
    15    19    20    1
    16    20    21    1
    17    19    22    1
    18    22    23    1
    19     7     8    2
    20     8     9    1
    21     9    10    2
    22    10    11    1
    23    11     3    1
    24    10     6    1
    25    21    16    1
    26    23    16    1
@<TRIPOS>MOLECULE
*****
 23 26 0 0 0
SMALL
GASTEIGER

@<TRIPOS>ATOM
      1 C          -8.6549  -19.5981   19.6152 C.2     1  UNL1        0.3428
      2 O          -9.2261  -20.4044   18.4867 O.2     1  UNL1       -0.2448
      3 C          -9.0070  -16.2364   24.1109 C.2     1  UNL1        0.1222
      4 C          -7.8068  -16.4570   23.2387 C.2     1  UNL1        0.0328
      5 C          -7.8899  -17.3960   22.0720 C.2     1  UNL1        0.0042
      6 C          -9.1732  -18.1144   21.7773 C.2     1  UNL1        0.0218
      7 C          -9.5527  -19.0926   20.7054 C.2     1  UNL1        0.0958
      8 C         -10.9875  -19.4766   20.9150 C.2     1  UNL1        0.1049
      9 N         -11.4948  -18.7357   22.1166 N.2     1  UNL1       -0.2475
     10 C         -10.3735  -17.8937   22.6495 C.2     1  UNL1        0.0668
     11 C         -10.2904  -16.9547   23.8162 C.3     1  UNL1        0.1095
     12 C          -8.2226  -15.7221   26.5337 C.3     1  UNL1        0.2520
     13 O          -8.9239  -15.2974   25.2777 O.2     1  UNL1       -0.4753
     14 O          -7.1859  -19.2973   19.6535 O.3     1  UNL1       -0.4454
     15 C          -6.2370  -20.2716   20.2861 C.3     1  UNL1        0.2087
     16 C          -4.9540  -19.7840   20.8912 C.3     1  UNL1        0.0445
     17 C          -4.9597  -19.1471   22.2492 C.3     1  UNL1        0.0210
     18 C          -3.6768  -18.6594   22.8544 C.3     1  UNL1        0.0722
     19 N          -2.3881  -18.8086   22.1014 N.3     1  UNL1       -0.2727
     20 C          -2.3824  -19.4455   20.7434 C.3     1  UNL1        0.0722
     21 C          -3.6653  -19.9332   20.1382 C.3     1  UNL1        0.0210
     22 C          -3.0658  -19.0911   21.7289 C.3     1  UNL1        0.0722
     23 C          -4.2260  -19.5320   21.1817 C.3     1  UNL1        0.0210
@<TRIPOS>BOND
     1    12    13    1
     2    13     3    1
     3     3     4    2
     4     4     5    1
     5     5     6    2
     6     6     7    1
     7     7     1    1
     8     1     2    2
     9     1    14    1
    10    14    15    1
    11    15    16    1
    12    16    17    1
    13    17    18    1
    14    18    19    1
    15    19    20    1
    16    20    21    1
    17    19    22    1
    18    22    23    1
    19     7     8    2
    20     8     9    1
    21     9    10    2
    22    10    11    1
    23    11     3    1
    24    10     6    1
    25    21    16    1
    26    23    16    1
@<TRIPOS>MOLECULE
*****
 23 26 0 0 0
SMALL
GASTEIGER

@<TRIPOS>ATOM
      1 C          -8.2481  -19.6503   19.6548 C.2     1  UNL1        0.3428
      2 O          -8.1757  -20.8156   18.7131 O.2     1  UNL1       -0.2448
      3 C          -6.3749  -16.3027   23.7683 C.2     1  UNL1        0.1222
      4 C          -7.7043  -16.2290   23.0775 C.2     1  UNL1        0.0328
      5 C          -8.0415  -17.2093   21.9934 C.2     1  UNL1        0.0042
      6 C          -7.0494  -18.2633   21.6000 C.2     1  UNL1        0.0218
      7 C          -7.1006  -19.3575   20.5753 C.2     1  UNL1        0.0958
      8 C          -5.8028  -20.1075   20.6328 C.2     1  UNL1        0.1049
      9 N          -4.9495  -19.4768   21.6931 N.2     1  UNL1       -0.2475
     10 C          -5.7200  -18.3369   22.2908 C.2     1  UNL1        0.0668
     11 C          -5.3828  -17.3566   23.3749 C.3     1  UNL1        0.1095
     12 C          -6.5524  -15.5375   26.2447 C.3     1  UNL1        0.2520
     13 O          -6.0377  -15.3224   24.8524 O.2     1  UNL1       -0.4753
     14 O          -9.4681  -18.7779   19.6759 O.3     1  UNL1       -0.4454
     15 C         -10.7662  -19.3163   20.2004 C.3     1  UNL1        0.2087
     16 C         -11.1497  -19.0862   21.6322 C.3     1  UNL1        0.0445
     17 C         -10.4871  -19.8753   22.7223 C.3     1  UNL1        0.0210
     18 C         -10.8706  -19.6453   24.1541 C.3     1  UNL1        0.0722
     19 N         -11.9168  -18.6262   24.4958 N.3     1  UNL1       -0.2727
     20 C         -12.5794  -17.8371   23.4058 C.3     1  UNL1        0.0722
     21 C         -12.1959  -18.0671   21.9739 C.3     1  UNL1        0.0210
     22 C         -11.7399  -18.7171   23.6968 C.3     1  UNL1        0.0722
     23 C         -11.3930  -18.9251   22.4021 C.3     1  UNL1        0.0210
@<TRIPOS>BOND
     1    12    13    1
     2    13     3    1
     3     3     4    2
     4     4     5    1
     5     5     6    2
     6     6     7    1
     7     7     1    1
     8     1     2    2
     9     1    14    1
    10    14    15    1
    11    15    16    1
    12    16    17    1
    13    17    18    1
    14    18    19    1
    15    19    20    1
    16    20    21    1
    17    19    22    1
    18    22    23    1
    19     7     8    2
    20     8     9    1
    21     9    10    2
    22    10    11    1
    23    11     3    1
    24    10     6    1
    25    21    16    1
    26    23    16    1
