@<TRIPOS>MOLECULE
*****
 38 42 0 0 0
SMALL
GASTEIGER

@<TRIPOS>ATOM
      1 C           0.6459    1.4682   20.8982 C.2     1  UNL1        0.3203
      2 N           0.8379    1.5577   22.3832 N.2     1  UNL1       -0.0600
      3 C          -0.1174    2.3601   23.2159 C.3     1  UNL1        0.2689
      4 C          -1.2647    3.0731   22.5637 C.2     1  UNL1        0.1165
      5 C          -1.4567    2.9837   21.0788 C.2     1  UNL1        0.1177
      6 C          -2.6040    3.6967   20.4266 C.3     1  UNL1        0.0754
      7 N          -0.5014    2.1812   20.2460 N.pl3   1  UNL1       -0.2028
      8 H          -0.6274    2.1225   19.2714 H       1  UNL1        0.2982
      9 C           0.0747    2.4496   24.7009 C.ar    1  UNL1        0.0582
     10 C          -0.4142    1.3435   25.5883 C.ar    1  UNL1        0.0033
     11 C          -0.2222    1.4329   27.0733 C.ar    1  UNL1        0.0114
     12 C           0.4587    2.6284   27.6708 C.ar    1  UNL1        0.0599
     13 CL          0.6508    2.7178   29.1558 Cl      1  UNL1       -0.0822
     14 C           0.9477    3.7345   26.7834 C.ar    1  UNL1        0.0408
     15 C           0.7557    3.6451   25.2985 C.ar    1  UNL1        0.1413
     16 F           1.2446    4.7512   24.4110 F       1  UNL1       -0.2043
     17 C           3.0579   -1.4594   19.7314 C.ar    1  UNL1        0.2252
     18 C           2.1027   -0.6570   20.5643 C.ar    1  UNL1        0.0651
     19 C           1.6012    0.6657   20.0654 C.ar    1  UNL1        0.0882
     20 C           2.0549    1.1860   18.7337 C.ar    1  UNL1        0.0283
     21 C           3.0101    0.3836   17.9008 C.ar    1  UNL1        0.1023
     22 N           3.5116   -0.9391   18.3997 N.ar    1  UNL1       -0.2101
     23 C           3.5360   -3.9812   19.3296 C.3     1  UNL1        0.2542
     24 O           3.5594   -2.7821   20.2303 O.3     1  UNL1       -0.4561
     25 C          -2.2199    3.8756   23.3965 C.2     1  UNL1        0.2530
     26 O          -1.9861    5.3430   23.6017 O.2     1  UNL1       -0.2699
     27 N          -3.4090    3.2106   24.0242 N.am    1  UNL1       -0.2787
     28 H          -3.5624    2.2475   23.8895 H       1  UNL1        0.1552
     29 C          -4.3642    4.0130   24.8570 C.2     1  UNL1        0.0779
     30 C          -5.6696    4.4666   24.2735 C.2     1  UNL1        0.0165
     31 C          -6.6249    5.2690   25.1063 C.2     1  UNL1        0.0281
     32 C          -7.9744    5.8508   24.8055 C.2     1  UNL1        0.1197
     33 N          -8.4584    6.5592   26.0358 N.2     1  UNL1       -0.1508
     34 N          -7.4081    6.4152   27.0971 N.2     1  UNL1       -0.1673
     35 C          -6.2750    5.6178   26.5225 C.3     1  UNL1        0.1732
     36 C          -4.9697    5.1642   27.1060 C.2     1  UNL1        0.0350
     37 C          -4.0143    4.3618   26.2733 C.2     1  UNL1        0.1515
     38 F          -2.7090    3.9082   26.8568 F       1  UNL1       -0.2031
@<TRIPOS>BOND
     1    23    24    1
     2    24    17    1
     3    17    18   ar
     4    18    19   ar
     5    19     1    1
     6     1     2    2
     7     2     3    1
     8     3     9    1
     9     9    10   ar
    10    10    11   ar
    11    11    12   ar
    12    12    13    1
    13    12    14   ar
    14    14    15   ar
    15    15    16    1
    16     3     4    1
    17     4    25    1
    18    25    26    2
    19    25    27   am
    20    27    29    1
    21    29    30    2
    22    30    31    1
    23    31    32    2
    24    32    33    1
    25    33    34    2
    26    34    35    1
    27    35    36    1
    28    36    37    2
    29    37    38    1
    30     4     5    2
    31     5     6    1
    32     5     7    1
    33    19    20   ar
    34    20    21   ar
    35    21    22   ar
    36    22    17   ar
    37     7     1    1
    38    15     9   ar
    39    37    29    1
    40    35    31    1
    41    27    28    1
    42     7     8    1
@<TRIPOS>MOLECULE
*****
 38 42 0 0 0
SMALL
GASTEIGER

@<TRIPOS>ATOM
      1 C         -17.7398   -6.1840   19.1026 C.2     1  UNL1        0.3203
      2 N         -16.2796   -6.2873   18.7754 N.2     1  UNL1       -0.0600
      3 C         -15.4429   -5.0461   18.6793 C.3     1  UNL1        0.2689
      4 C         -16.0663   -3.7015   18.9105 C.2     1  UNL1        0.1165
      5 C         -17.5265   -3.5981   19.2378 C.2     1  UNL1        0.1177
      6 C         -18.1499   -2.2535   19.4690 C.3     1  UNL1        0.0754
      7 N         -18.3633   -4.8394   19.3338 N.pl3   1  UNL1       -0.2028
      8 H         -19.3216   -4.7716   19.5486 H       1  UNL1        0.2982
      9 C         -13.9827   -5.1495   18.3520 C.ar    1  UNL1        0.0582
     10 C         -13.5382   -5.2251   16.9214 C.ar    1  UNL1        0.0033
     11 C         -12.0780   -5.3285   16.5940 C.ar    1  UNL1        0.0114
     12 C         -11.0622   -5.3562   17.6974 C.ar    1  UNL1        0.0599
     13 CL         -9.6020   -5.4596   17.3701 Cl      1  UNL1       -0.0822
     14 C         -11.5067   -5.2806   19.1281 C.ar    1  UNL1        0.0408
     15 C         -12.9668   -5.1772   19.4554 C.ar    1  UNL1        0.1413
     16 F         -13.4112   -5.1016   20.8860 F       1  UNL1       -0.2043
     17 C         -19.3902   -9.6743   18.1843 C.ar    1  UNL1        0.2252
     18 C         -18.5534   -8.4332   18.0881 C.ar    1  UNL1        0.0651
     19 C         -18.5766   -7.4252   19.1987 C.ar    1  UNL1        0.0882
     20 C         -19.4366   -7.6583   20.4054 C.ar    1  UNL1        0.0283
     21 C         -20.2734   -8.8995   20.5016 C.ar    1  UNL1        0.1023
     22 N         -20.2502   -9.9075   19.3910 N.ar    1  UNL1       -0.2101
     23 C         -20.4639  -10.6965   16.0507 C.3     1  UNL1        0.2542
     24 O         -19.3670  -10.6823   17.0737 O.3     1  UNL1       -0.4561
     25 C         -15.2295   -2.4603   18.8144 C.2     1  UNL1        0.2530
     26 O         -14.6203   -1.8689   20.0510 O.2     1  UNL1       -0.2699
     27 N         -15.0019   -1.8106   17.4818 N.am    1  UNL1       -0.2787
     28 H         -15.4018   -2.1987   16.6702 H       1  UNL1        0.1552
     29 C         -14.1652   -0.5694   17.3856 C.2     1  UNL1        0.0779
     30 C         -14.8163    0.7806   17.4457 C.2     1  UNL1        0.0165
     31 C         -13.9796    2.0219   17.3495 C.2     1  UNL1        0.0281
     32 C         -14.3374    3.4782   17.3780 C.2     1  UNL1        0.1197
     33 N         -13.0708    4.2696   17.2393 N.2     1  UNL1       -0.1508
     34 N         -11.9301    3.3023   17.1251 N.2     1  UNL1       -0.1673
     35 C         -12.4917    1.9131   17.1932 C.3     1  UNL1        0.1732
     36 C         -11.8406    0.5631   17.1331 C.2     1  UNL1        0.0350
     37 C         -12.6773   -0.6781   17.2293 C.2     1  UNL1        0.1515
     38 F         -12.0262   -2.0281   17.1692 F       1  UNL1       -0.2031
@<TRIPOS>BOND
     1    23    24    1
     2    24    17    1
     3    17    18   ar
     4    18    19   ar
     5    19     1    1
     6     1     2    2
     7     2     3    1
     8     3     9    1
     9     9    10   ar
    10    10    11   ar
    11    11    12   ar
    12    12    13    1
    13    12    14   ar
    14    14    15   ar
    15    15    16    1
    16     3     4    1
    17     4    25    1
    18    25    26    2
    19    25    27   am
    20    27    29    1
    21    29    30    2
    22    30    31    1
    23    31    32    2
    24    32    33    1
    25    33    34    2
    26    34    35    1
    27    35    36    1
    28    36    37    2
    29    37    38    1
    30     4     5    2
    31     5     6    1
    32     5     7    1
    33    19    20   ar
    34    20    21   ar
    35    21    22   ar
    36    22    17   ar
    37     7     1    1
    38    15     9   ar
    39    37    29    1
    40    35    31    1
    41    27    28    1
    42     7     8    1
@<TRIPOS>MOLECULE
*****
 38 42 0 0 0
SMALL
GASTEIGER

@<TRIPOS>ATOM
      1 C           3.1550   -0.7605   23.7245 C.2     1  UNL1        0.3203
      2 N           2.1485    0.2939   24.0785 N.2     1  UNL1       -0.0600
      3 C           2.1016    0.8484   25.4714 C.3     1  UNL1        0.2689
      4 C           3.0612    0.3487   26.5104 C.2     1  UNL1        0.1165
      5 C           4.0678   -0.7057   26.1564 C.2     1  UNL1        0.1177
      6 C           5.0273   -1.2054   27.1954 C.3     1  UNL1        0.0754
      7 N           4.1146   -1.2602   24.7634 N.pl3   1  UNL1       -0.2028
      8 H           4.7752   -1.9522   24.5311 H       1  UNL1        0.2982
      9 C           1.0951    1.9028   25.8254 C.ar    1  UNL1        0.0582
     10 C          -0.2884    1.5069   26.2485 C.ar    1  UNL1        0.0033
     11 C          -1.2950    2.5613   26.6025 C.ar    1  UNL1        0.0114
     12 C          -0.9180    4.0114   26.5333 C.ar    1  UNL1        0.0599
     13 CL         -1.9245    5.0658   26.8873 Cl      1  UNL1       -0.0822
     14 C           0.4656    4.4073   26.1101 C.ar    1  UNL1        0.0408
     15 C           1.4721    3.3531   25.7562 C.ar    1  UNL1        0.1413
     16 F           2.8557    3.7489   25.3331 F       1  UNL1       -0.2043
     17 C           4.0772   -3.0846   20.6427 C.ar    1  UNL1        0.2252
     18 C           4.0304   -2.5300   22.0356 C.ar    1  UNL1        0.0651
     19 C           3.2019   -1.3151   22.3316 C.ar    1  UNL1        0.0882
     20 C           2.4205   -0.6547   21.2347 C.ar    1  UNL1        0.0283
     21 C           2.4673   -1.2093   19.8418 C.ar    1  UNL1        0.1023
     22 N           3.2957   -2.4242   19.5458 N.ar    1  UNL1       -0.2101
     23 C           4.7393   -5.0212   19.0424 C.3     1  UNL1        0.2542
     24 O           4.9057   -4.2995   20.3467 O.3     1  UNL1       -0.4561
     25 C           3.0143    0.9033   27.9033 C.2     1  UNL1        0.2530
     26 O           3.8341    2.1081   28.2589 O.2     1  UNL1       -0.2699
     27 N           2.1476    0.2531   28.9406 N.am    1  UNL1       -0.2787
     28 H           1.6095   -0.5376   28.7072 H       1  UNL1        0.1552
     29 C           2.1006    0.8077   30.3335 C.2     1  UNL1        0.0779
     30 C           3.0933    0.3454   31.3587 C.2     1  UNL1        0.0165
     31 C           3.0463    0.8999   32.7516 C.2     1  UNL1        0.0281
     32 C           3.8869    0.6364   33.9657 C.2     1  UNL1        0.1197
     33 N           3.3668    1.4902   35.0839 N.2     1  UNL1       -0.1508
     34 N           2.2048    2.2815   34.5609 N.2     1  UNL1       -0.1673
     35 C           2.0067    1.9167   33.1195 C.3     1  UNL1        0.1732
     36 C           1.0140    2.3789   32.0943 C.2     1  UNL1        0.0350
     37 C           1.0609    1.8244   30.7014 C.2     1  UNL1        0.1515
     38 F           0.0682    2.2867   29.6763 F       1  UNL1       -0.2031
@<TRIPOS>BOND
     1    23    24    1
     2    24    17    1
     3    17    18   ar
     4    18    19   ar
     5    19     1    1
     6     1     2    2
     7     2     3    1
     8     3     9    1
     9     9    10   ar
    10    10    11   ar
    11    11    12   ar
    12    12    13    1
    13    12    14   ar
    14    14    15   ar
    15    15    16    1
    16     3     4    1
    17     4    25    1
    18    25    26    2
    19    25    27   am
    20    27    29    1
    21    29    30    2
    22    30    31    1
    23    31    32    2
    24    32    33    1
    25    33    34    2
    26    34    35    1
    27    35    36    1
    28    36    37    2
    29    37    38    1
    30     4     5    2
    31     5     6    1
    32     5     7    1
    33    19    20   ar
    34    20    21   ar
    35    21    22   ar
    36    22    17   ar
    37     7     1    1
    38    15     9   ar
    39    37    29    1
    40    35    31    1
    41    27    28    1
    42     7     8    1
@<TRIPOS>MOLECULE
*****
 38 42 0 0 0
SMALL
GASTEIGER

@<TRIPOS>ATOM
      1 C          -1.9504    3.6867   24.5406 C.2     1  UNL1        0.3203
      2 N          -1.8475    4.1332   23.1123 N.2     1  UNL1       -0.0600
      3 C          -0.8255    3.5150   22.2050 C.3     1  UNL1        0.2689
      4 C           0.0937    2.4502   22.7258 C.2     1  UNL1        0.1165
      5 C          -0.0092    2.0036   24.1541 C.2     1  UNL1        0.1177
      6 C           0.9100    0.9387   24.6750 C.3     1  UNL1        0.0754
      7 N          -1.0312    2.6218   25.0615 N.pl3   1  UNL1       -0.2028
      8 H          -1.0988    2.3287   25.9989 H       1  UNL1        0.2982
      9 C          -0.7226    3.9617   20.7767 C.ar    1  UNL1        0.0582
     10 C           0.4461    4.7903   20.3323 C.ar    1  UNL1        0.0033
     11 C           0.5490    5.2370   18.9040 C.ar    1  UNL1        0.0114
     12 C          -0.5169    4.8550   17.9201 C.ar    1  UNL1        0.0599
     13 CL         -0.4140    5.3016   16.4919 Cl      1  UNL1       -0.0822
     14 C          -1.6857    4.0263   18.3645 C.ar    1  UNL1        0.0408
     15 C          -1.7885    3.5797   19.7927 C.ar    1  UNL1        0.1413
     16 F          -2.9572    2.7511   20.2371 F       1  UNL1       -0.2043
     17 C          -3.5545    5.7330   27.5387 C.ar    1  UNL1        0.2252
     18 C          -2.5325    5.1148   26.6314 C.ar    1  UNL1        0.0651
     19 C          -2.9724    4.3048   25.4480 C.ar    1  UNL1        0.0882
     20 C          -4.4342    4.1130   25.1720 C.ar    1  UNL1        0.0283
     21 C          -5.4562    4.7312   26.0793 C.ar    1  UNL1        0.1023
     22 N          -5.0164    5.5412   27.2627 N.ar    1  UNL1       -0.2101
     23 C          -1.7117    7.0688   28.7914 C.3     1  UNL1        0.2542
     24 O          -3.1147    6.5429   28.7221 O.3     1  UNL1       -0.4561
     25 C           1.1156    1.8320   21.8184 C.2     1  UNL1        0.2530
     26 O           2.5246    2.3466   21.8149 O.2     1  UNL1       -0.2699
     27 N           0.7287    0.6992   20.9146 N.am    1  UNL1       -0.2787
     28 H          -0.1961    0.3615   20.9169 H       1  UNL1        0.1552
     29 C           1.7506    0.0810   20.0071 C.2     1  UNL1        0.0779
     30 C           2.4377   -1.1909   20.4077 C.2     1  UNL1        0.0165
     31 C           3.4596   -1.8092   19.5003 C.2     1  UNL1        0.0281
     32 C           4.2945   -3.0489   19.6262 C.2     1  UNL1        0.1197
     33 N           5.1454   -3.1617   18.3960 N.2     1  UNL1       -0.1508
     34 N           4.8363   -1.9916   17.5099 N.2     1  UNL1       -0.1673
     35 C           3.7945   -1.1557   18.1923 C.3     1  UNL1        0.1732
     36 C           3.1074    0.1162   17.7918 C.2     1  UNL1        0.0350
     37 C           2.0854    0.7345   18.6992 C.2     1  UNL1        0.1515
     38 F           1.3984    2.0063   18.2986 F       1  UNL1       -0.2031
@<TRIPOS>BOND
     1    23    24    1
     2    24    17    1
     3    17    18   ar
     4    18    19   ar
     5    19     1    1
     6     1     2    2
     7     2     3    1
     8     3     9    1
     9     9    10   ar
    10    10    11   ar
    11    11    12   ar
    12    12    13    1
    13    12    14   ar
    14    14    15   ar
    15    15    16    1
    16     3     4    1
    17     4    25    1
    18    25    26    2
    19    25    27   am
    20    27    29    1
    21    29    30    2
    22    30    31    1
    23    31    32    2
    24    32    33    1
    25    33    34    2
    26    34    35    1
    27    35    36    1
    28    36    37    2
    29    37    38    1
    30     4     5    2
    31     5     6    1
    32     5     7    1
    33    19    20   ar
    34    20    21   ar
    35    21    22   ar
    36    22    17   ar
    37     7     1    1
    38    15     9   ar
    39    37    29    1
    40    35    31    1
    41    27    28    1
    42     7     8    1
@<TRIPOS>MOLECULE
*****
 38 42 0 0 0
SMALL
GASTEIGER

@<TRIPOS>ATOM
      1 C          -0.1146    1.9525   21.1155 C.2     1  UNL1        0.3203
      2 N          -1.3254    2.5007   20.4200 N.2     1  UNL1       -0.0600
      3 C          -2.3186    3.3267   21.1823 C.3     1  UNL1        0.2689
      4 C          -2.1012    3.6046   22.6402 C.2     1  UNL1        0.1165
      5 C          -0.8905    3.0566   23.3358 C.2     1  UNL1        0.1177
      6 C          -0.6731    3.3345   24.7937 C.3     1  UNL1        0.0754
      7 N           0.1028    2.2305   22.5734 N.pl3   1  UNL1       -0.2028
      8 H           0.8974    1.8708   23.0299 H       1  UNL1        0.2982
      9 C          -3.5292    3.8747   20.4867 C.ar    1  UNL1        0.0582
     10 C          -4.8503    3.1767   20.6186 C.ar    1  UNL1        0.0033
     11 C          -6.0611    3.7247   19.9230 C.ar    1  UNL1        0.0114
     12 C          -5.9507    4.9708   19.0954 C.ar    1  UNL1        0.0599
     13 CL         -7.1614    5.5189   18.3998 Cl      1  UNL1       -0.0822
     14 C          -4.6295    5.6690   18.9635 C.ar    1  UNL1        0.0408
     15 C          -3.4189    5.1209   19.6590 C.ar    1  UNL1        0.1413
     16 F          -2.0978    5.8190   19.5271 F       1  UNL1       -0.2043
     17 C           2.6367   -0.7852   20.2883 C.ar    1  UNL1        0.2252
     18 C           1.6435    0.0408   21.0506 C.ar    1  UNL1        0.0651
     19 C           0.8786    1.1265   20.3533 C.ar    1  UNL1        0.0882
     20 C           1.1071    1.3862   18.8937 C.ar    1  UNL1        0.0283
     21 C           2.1003    0.5602   18.1314 C.ar    1  UNL1        0.1023
     22 N           2.8651   -0.5255   18.8287 N.ar    1  UNL1       -0.2101
     23 C           4.0723   -2.9482   20.1860 C.3     1  UNL1        0.2542
     24 O           3.4015   -1.8709   20.9856 O.3     1  UNL1       -0.4561
     25 C          -3.0944    4.4307   23.4025 C.2     1  UNL1        0.2530
     26 O          -2.9585    5.9241   23.4370 O.2     1  UNL1       -0.2699
     27 N          -4.2236    3.7633   24.1301 N.am    1  UNL1       -0.2787
     28 H          -4.3128    2.7831   24.1074 H       1  UNL1        0.1552
     29 C          -5.2169    4.5892   24.8924 C.2     1  UNL1        0.0779
     30 C          -6.4976    5.0153   24.2378 C.2     1  UNL1        0.0165
     31 C          -7.4910    5.8412   25.0000 C.2     1  UNL1        0.0281
     32 C          -8.8283    6.4051   24.6213 C.2     1  UNL1        0.1197
     33 N          -9.3677    7.1535   25.8040 N.2     1  UNL1       -0.1508
     34 N          -8.3636    7.0522   26.9138 N.2     1  UNL1       -0.1673
     35 C          -7.2037    6.2412   26.4169 C.3     1  UNL1        0.1732
     36 C          -5.9230    5.8151   27.0715 C.2     1  UNL1        0.0350
     37 C          -4.9297    4.9892   26.3093 C.2     1  UNL1        0.1515
     38 F          -3.6490    4.5632   26.9639 F       1  UNL1       -0.2031
@<TRIPOS>BOND
     1    23    24    1
     2    24    17    1
     3    17    18   ar
     4    18    19   ar
     5    19     1    1
     6     1     2    2
     7     2     3    1
     8     3     9    1
     9     9    10   ar
    10    10    11   ar
    11    11    12   ar
    12    12    13    1
    13    12    14   ar
    14    14    15   ar
    15    15    16    1
    16     3     4    1
    17     4    25    1
    18    25    26    2
    19    25    27   am
    20    27    29    1
    21    29    30    2
    22    30    31    1
    23    31    32    2
    24    32    33    1
    25    33    34    2
    26    34    35    1
    27    35    36    1
    28    36    37    2
    29    37    38    1
    30     4     5    2
    31     5     6    1
    32     5     7    1
    33    19    20   ar
    34    20    21   ar
    35    21    22   ar
    36    22    17   ar
    37     7     1    1
    38    15     9   ar
    39    37    29    1
    40    35    31    1
    41    27    28    1
    42     7     8    1
@<TRIPOS>MOLECULE
*****
 38 42 0 0 0
SMALL
GASTEIGER

@<TRIPOS>ATOM
      1 C          -0.2971    2.0110   21.0339 C.2     1  UNL1        0.3203
      2 N          -1.4515    2.5418   20.2366 N.2     1  UNL1       -0.0600
      3 C          -2.5152    3.3581   20.9090 C.3     1  UNL1        0.2689
      4 C          -2.4246    3.6437   22.3788 C.2     1  UNL1        0.1165
      5 C          -1.2703    3.1129   23.1762 C.2     1  UNL1        0.1177
      6 C          -1.1797    3.3985   24.6460 C.3     1  UNL1        0.0754
      7 N          -0.2065    2.2966   22.5037 N.pl3   1  UNL1       -0.2028
      8 H           0.5511    1.9482   23.0270 H       1  UNL1        0.2982
      9 C          -3.6695    3.8889   20.1116 C.ar    1  UNL1        0.0582
     10 C          -4.9667    3.1366   20.0779 C.ar    1  UNL1        0.0033
     11 C          -6.1211    3.6672   19.2805 C.ar    1  UNL1        0.0114
     12 C          -5.9782    4.9503   18.5168 C.ar    1  UNL1        0.0599
     13 CL         -7.1325    5.4811   17.7193 Cl      1  UNL1       -0.0822
     14 C          -4.6809    5.7027   18.5504 C.ar    1  UNL1        0.0408
     15 C          -3.5266    5.1720   19.3478 C.ar    1  UNL1        0.1413
     16 F          -2.2294    5.9243   19.3815 F       1  UNL1       -0.2043
     17 C           2.5841   -0.6587   20.4677 C.ar    1  UNL1        0.2252
     18 C           1.5204    0.1575   21.1401 C.ar    1  UNL1        0.0651
     19 C           0.7666    1.1947   20.3616 C.ar    1  UNL1        0.0882
     20 C           1.0766    1.4156   18.9107 C.ar    1  UNL1        0.0283
     21 C           2.1403    0.5994   18.2383 C.ar    1  UNL1        0.1023
     22 N           2.8941   -0.4378   19.0168 N.ar    1  UNL1       -0.2101
     23 C           3.5859   -1.4998   22.7124 C.3     1  UNL1        0.2542
     24 O           3.3378   -1.6959   21.2462 O.3     1  UNL1       -0.4561
     25 C          -3.4884    4.4600   23.0511 C.2     1  UNL1        0.2530
     26 O          -3.4090    5.9577   23.0315 O.2     1  UNL1       -0.2699
     27 N          -4.6315    3.7785   23.7431 N.am    1  UNL1       -0.2787
     28 H          -4.6836    2.7955   23.7559 H       1  UNL1        0.1552
     29 C          -5.6953    4.5947   24.4154 C.2     1  UNL1        0.0779
     30 C          -5.4909    5.0832   25.8189 C.2     1  UNL1        0.0165
     31 C          -6.5547    5.8994   26.4914 C.2     1  UNL1        0.0281
     32 C          -6.6347    6.5146   27.8571 C.2     1  UNL1        0.1197
     33 N          -7.9522    7.2225   27.9702 N.2     1  UNL1       -0.1508
     34 N          -8.6866    7.0449   26.6743 N.2     1  UNL1       -0.1673
     35 C          -7.8228    6.2272   25.7604 C.3     1  UNL1        0.1732
     36 C          -8.0272    5.7387   24.3569 C.2     1  UNL1        0.0350
     37 C          -6.9634    4.9224   23.6845 C.2     1  UNL1        0.1515
     38 F          -7.1678    4.4340   22.2810 F       1  UNL1       -0.2031
@<TRIPOS>BOND
     1    23    24    1
     2    24    17    1
     3    17    18   ar
     4    18    19   ar
     5    19     1    1
     6     1     2    2
     7     2     3    1
     8     3     9    1
     9     9    10   ar
    10    10    11   ar
    11    11    12   ar
    12    12    13    1
    13    12    14   ar
    14    14    15   ar
    15    15    16    1
    16     3     4    1
    17     4    25    1
    18    25    26    2
    19    25    27   am
    20    27    29    1
    21    29    30    2
    22    30    31    1
    23    31    32    2
    24    32    33    1
    25    33    34    2
    26    34    35    1
    27    35    36    1
    28    36    37    2
    29    37    38    1
    30     4     5    2
    31     5     6    1
    32     5     7    1
    33    19    20   ar
    34    20    21   ar
    35    21    22   ar
    36    22    17   ar
    37     7     1    1
    38    15     9   ar
    39    37    29    1
    40    35    31    1
    41    27    28    1
    42     7     8    1
@<TRIPOS>MOLECULE
*****
 38 42 0 0 0
SMALL
GASTEIGER

@<TRIPOS>ATOM
      1 C          -2.1668    3.7153   24.2413 C.2     1  UNL1        0.3203
      2 N          -2.0221    4.1339   22.8081 N.2     1  UNL1       -0.0600
      3 C          -0.9635    3.5102   21.9478 C.3     1  UNL1        0.2689
      4 C          -0.0495    2.4678   22.5205 C.2     1  UNL1        0.1165
      5 C          -0.1941    2.0491   23.9536 C.2     1  UNL1        0.1177
      6 C           0.7199    1.0067   24.5263 C.3     1  UNL1        0.0754
      7 N          -1.2528    2.6729   24.8140 N.pl3   1  UNL1       -0.2028
      8 H          -1.3477    2.3981   25.7546 H       1  UNL1        0.2982
      9 C          -0.8189    3.9288   20.5147 C.ar    1  UNL1        0.0582
     10 C           0.4091    4.6659   20.0689 C.ar    1  UNL1        0.0033
     11 C           0.5538    5.0846   18.6358 C.ar    1  UNL1        0.0114
     12 C          -0.5296    4.7662   17.6484 C.ar    1  UNL1        0.0599
     13 CL         -0.3850    5.1849   16.2153 Cl      1  UNL1       -0.0822
     14 C          -1.7577    4.0291   18.0942 C.ar    1  UNL1        0.0408
     15 C          -1.9023    3.6105   19.5272 C.ar    1  UNL1        0.1413
     16 F          -3.1303    2.8734   19.9730 F       1  UNL1       -0.2043
     17 C          -5.6946    5.0618   25.4622 C.ar    1  UNL1        0.2252
     18 C          -4.6361    4.4381   24.6017 C.ar    1  UNL1        0.0651
     19 C          -3.2254    4.3390   25.1017 C.ar    1  UNL1        0.0882
     20 C          -2.8732    4.8637   26.4621 C.ar    1  UNL1        0.0283
     21 C          -3.9317    5.4875   27.3225 C.ar    1  UNL1        0.1023
     22 N          -5.3424    5.5865   26.8226 N.ar    1  UNL1       -0.2101
     23 C          -7.4581    4.6340   23.6029 C.3     1  UNL1        0.2542
     24 O          -7.1054    5.1609   24.9622 O.3     1  UNL1       -0.4561
     25 C           1.0091    1.8440   21.6600 C.2     1  UNL1        0.2530
     26 O           2.4089    2.3824   21.6845 O.2     1  UNL1       -0.2699
     27 N           0.6678    0.6819   20.7752 N.am    1  UNL1       -0.2787
     28 H          -0.2510    0.3286   20.7591 H       1  UNL1        0.1552
     29 C           1.7263    0.0581   19.9147 C.2     1  UNL1        0.0779
     30 C           2.4199   -1.1925   20.3672 C.2     1  UNL1        0.0165
     31 C           3.4785   -1.8164   19.5068 C.2     1  UNL1        0.0281
     32 C           4.3278   -3.0393   19.6886 C.2     1  UNL1        0.1197
     33 N           5.2176   -3.1684   18.4880 N.2     1  UNL1       -0.1508
     34 N           4.9183   -2.0252   17.5642 N.2     1  UNL1       -0.1673
     35 C           3.8434   -1.1896   18.1939 C.3     1  UNL1        0.1732
     36 C           3.1498    0.0611   17.7413 C.2     1  UNL1        0.0350
     37 C           2.0913    0.6849   18.6017 C.2     1  UNL1        0.1515
     38 F           1.3977    1.9356   18.1491 F       1  UNL1       -0.2031
@<TRIPOS>BOND
     1    23    24    1
     2    24    17    1
     3    17    18   ar
     4    18    19   ar
     5    19     1    1
     6     1     2    2
     7     2     3    1
     8     3     9    1
     9     9    10   ar
    10    10    11   ar
    11    11    12   ar
    12    12    13    1
    13    12    14   ar
    14    14    15   ar
    15    15    16    1
    16     3     4    1
    17     4    25    1
    18    25    26    2
    19    25    27   am
    20    27    29    1
    21    29    30    2
    22    30    31    1
    23    31    32    2
    24    32    33    1
    25    33    34    2
    26    34    35    1
    27    35    36    1
    28    36    37    2
    29    37    38    1
    30     4     5    2
    31     5     6    1
    32     5     7    1
    33    19    20   ar
    34    20    21   ar
    35    21    22   ar
    36    22    17   ar
    37     7     1    1
    38    15     9   ar
    39    37    29    1
    40    35    31    1
    41    27    28    1
    42     7     8    1
@<TRIPOS>MOLECULE
*****
 38 42 0 0 0
SMALL
GASTEIGER

@<TRIPOS>ATOM
      1 C           3.7347   -1.5657   22.9687 C.2     1  UNL1        0.3203
      2 N           2.7667   -0.4329   23.1413 N.2     1  UNL1       -0.0600
      3 C           2.5951    0.2088   24.4862 C.3     1  UNL1        0.2689
      4 C           3.3916   -0.2823   25.6586 C.2     1  UNL1        0.1165
      5 C           4.3596   -1.4151   25.4861 C.2     1  UNL1        0.1177
      6 C           5.1561   -1.9061   26.6585 C.3     1  UNL1        0.0754
      7 N           4.5312   -2.0567   24.1411 N.pl3   1  UNL1       -0.2028
      8 H           5.1665   -2.8002   24.0278 H       1  UNL1        0.2982
      9 C           1.6271    1.3415   24.6587 C.ar    1  UNL1        0.0582
     10 C           0.2007    1.0596   25.0274 C.ar    1  UNL1        0.0033
     11 C          -0.7674    2.1923   25.1999 C.ar    1  UNL1        0.0114
     12 C          -0.3091    3.6070   25.0037 C.ar    1  UNL1        0.0599
     13 CL         -1.2771    4.7398   25.1762 Cl      1  UNL1       -0.0822
     14 C           1.1174    3.8890   24.6350 C.ar    1  UNL1        0.0408
     15 C           2.0854    2.7563   24.4625 C.ar    1  UNL1        0.1413
     16 F           3.5117    3.0383   24.0938 F       1  UNL1       -0.2043
     17 C           3.8700   -2.0429   19.0313 C.ar    1  UNL1        0.2252
     18 C           3.6984   -1.4011   20.3761 C.ar    1  UNL1        0.0651
     19 C           3.9063   -2.2074   21.6238 C.ar    1  UNL1        0.0882
     20 C           4.2858   -3.6553   21.5266 C.ar    1  UNL1        0.0283
     21 C           4.4574   -4.2971   20.1818 C.ar    1  UNL1        0.1023
     22 N           4.2495   -3.4908   18.9341 N.ar    1  UNL1       -0.2101
     23 C           3.2204    0.1935   17.8796 C.3     1  UNL1        0.2542
     24 O           3.6621   -1.2367   17.7835 O.3     1  UNL1       -0.4561
     25 C           3.2200    0.3594   27.0035 C.2     1  UNL1        0.2530
     26 O           4.0932    1.5123   27.4013 O.2     1  UNL1       -0.2699
     27 N           2.1752   -0.1518   27.9506 N.am    1  UNL1       -0.2787
     28 H           1.6021   -0.9085   27.6894 H       1  UNL1        0.1552
     29 C           2.0035    0.4898   29.2955 C.2     1  UNL1        0.0779
     30 C           2.9281    0.1314   30.4210 C.2     1  UNL1        0.0165
     31 C           2.7565    0.7729   31.7659 C.2     1  UNL1        0.0281
     32 C           3.5087    0.6194   33.0546 C.2     1  UNL1        0.1197
     33 N           2.8774    1.5245   34.0705 N.2     1  UNL1       -0.1508
     34 N           1.7350    2.2375   33.4097 N.2     1  UNL1       -0.1673
     35 C           1.6603    1.7730   31.9854 C.3     1  UNL1        0.1732
     36 C           0.7358    2.1315   30.8599 C.2     1  UNL1        0.0350
     37 C           0.9073    1.4899   29.5150 C.2     1  UNL1        0.1515
     38 F          -0.0173    1.8484   28.3895 F       1  UNL1       -0.2031
@<TRIPOS>BOND
     1    23    24    1
     2    24    17    1
     3    17    18   ar
     4    18    19   ar
     5    19     1    1
     6     1     2    2
     7     2     3    1
     8     3     9    1
     9     9    10   ar
    10    10    11   ar
    11    11    12   ar
    12    12    13    1
    13    12    14   ar
    14    14    15   ar
    15    15    16    1
    16     3     4    1
    17     4    25    1
    18    25    26    2
    19    25    27   am
    20    27    29    1
    21    29    30    2
    22    30    31    1
    23    31    32    2
    24    32    33    1
    25    33    34    2
    26    34    35    1
    27    35    36    1
    28    36    37    2
    29    37    38    1
    30     4     5    2
    31     5     6    1
    32     5     7    1
    33    19    20   ar
    34    20    21   ar
    35    21    22   ar
    36    22    17   ar
    37     7     1    1
    38    15     9   ar
    39    37    29    1
    40    35    31    1
    41    27    28    1
    42     7     8    1
@<TRIPOS>MOLECULE
*****
 38 42 0 0 0
SMALL
GASTEIGER

@<TRIPOS>ATOM
      1 C          -4.8580    4.8860   24.1028 C.2     1  UNL1        0.3203
      2 N          -4.7088    5.1493   22.6336 N.2     1  UNL1       -0.0600
      3 C          -3.5039    4.6407   21.8991 C.3     1  UNL1        0.2689
      4 C          -2.4481    3.8689   22.6337 C.2     1  UNL1        0.1165
      5 C          -2.5972    3.6056   24.1029 C.2     1  UNL1        0.1177
      6 C          -1.5414    2.8338   24.8375 C.3     1  UNL1        0.0754
      7 N          -3.8022    4.1142   24.8374 N.pl3   1  UNL1       -0.2028
      8 H          -3.9001    3.9414   25.8017 H       1  UNL1        0.2982
      9 C          -3.3548    4.9040   20.4299 C.ar    1  UNL1        0.0582
     10 C          -2.4938    6.0366   19.9546 C.ar    1  UNL1        0.0033
     11 C          -2.3447    6.3000   18.4854 C.ar    1  UNL1        0.0114
     12 C          -3.0565    5.4307   17.4916 C.ar    1  UNL1        0.0599
     13 CL         -2.9074    5.6940   16.0224 Cl      1  UNL1       -0.0822
     14 C          -3.9175    4.2980   17.9670 C.ar    1  UNL1        0.0408
     15 C          -4.0666    4.0347   19.4361 C.ar    1  UNL1        0.1413
     16 F          -4.9275    2.9021   19.9115 F       1  UNL1       -0.2043
     17 C          -8.5968    5.9665   24.8796 C.ar    1  UNL1        0.2252
     18 C          -7.3919    5.4580   24.1449 C.ar    1  UNL1        0.0651
     19 C          -6.0629    5.3945   24.8374 C.ar    1  UNL1        0.0882
     20 C          -5.9387    5.8395   26.2645 C.ar    1  UNL1        0.0283
     21 C          -7.1435    6.3480   26.9991 C.ar    1  UNL1        0.1023
     22 N          -8.4726    6.4115   26.3067 N.ar    1  UNL1       -0.2101
     23 C         -10.9053    7.1093   24.5414 C.3     1  UNL1        0.2542
     24 O          -9.9258    6.0300   24.1871 O.3     1  UNL1       -0.4561
     25 C          -1.2432    3.3604   21.8991 C.2     1  UNL1        0.2530
     26 O           0.0812    4.0447   22.0662 O.2     1  UNL1       -0.2699
     27 N          -1.3627    2.1677   20.9974 N.am    1  UNL1       -0.2787
     28 H          -2.2319    1.7186   20.8878 H       1  UNL1        0.1552
     29 C          -0.1578    1.6591   20.2628 C.2     1  UNL1        0.0779
     30 C           0.4972    0.3795   20.6915 C.2     1  UNL1        0.0165
     31 C           1.7020   -0.1291   19.9569 C.2     1  UNL1        0.0281
     32 C           2.5533   -1.3492   20.1485 C.2     1  UNL1        0.1197
     33 N           3.6293   -1.3324   19.1035 N.2     1  UNL1       -0.1508
     34 N           3.4430   -0.1019   18.2662 N.2     1  UNL1       -0.1673
     35 C           2.2519    0.6418   18.7936 C.3     1  UNL1        0.1732
     36 C           1.5969    1.9213   18.3649 C.2     1  UNL1        0.0350
     37 C           0.3920    2.4300   19.0995 C.2     1  UNL1        0.1515
     38 F          -0.2629    3.7095   18.6707 F       1  UNL1       -0.2031
@<TRIPOS>BOND
     1    23    24    1
     2    24    17    1
     3    17    18   ar
     4    18    19   ar
     5    19     1    1
     6     1     2    2
     7     2     3    1
     8     3     9    1
     9     9    10   ar
    10    10    11   ar
    11    11    12   ar
    12    12    13    1
    13    12    14   ar
    14    14    15   ar
    15    15    16    1
    16     3     4    1
    17     4    25    1
    18    25    26    2
    19    25    27   am
    20    27    29    1
    21    29    30    2
    22    30    31    1
    23    31    32    2
    24    32    33    1
    25    33    34    2
    26    34    35    1
    27    35    36    1
    28    36    37    2
    29    37    38    1
    30     4     5    2
    31     5     6    1
    32     5     7    1
    33    19    20   ar
    34    20    21   ar
    35    21    22   ar
    36    22    17   ar
    37     7     1    1
    38    15     9   ar
    39    37    29    1
    40    35    31    1
    41    27    28    1
    42     7     8    1
