@<TRIPOS>MOLECULE
*****
 42 48 0 0 0
SMALL
GASTEIGER

@<TRIPOS>ATOM
      1 C           0.6362    1.7141   19.5214 C.ar    1  UNL1        0.0508
      2 C           0.1981    0.4066   20.1118 C.ar    1  UNL1        0.0147
      3 C           1.1707   -0.7299   20.2222 C.ar    1  UNL1        0.0019
      4 C           2.5816   -0.5590   19.7423 C.ar    1  UNL1        0.0090
      5 C           3.0197    0.7485   19.1519 C.ar    1  UNL1        0.0307
      6 S           4.3355    1.2091   18.5983 S.2     1  UNL1       -0.0869
      7 C           4.1761    2.6303   18.1457 C.ar    1  UNL1        0.0295
      8 C           5.1361    3.5980   17.5196 C.ar    1  UNL1        0.0065
      9 C           4.6817    4.9834   17.1674 C.ar    1  UNL1        0.0005
     10 C           3.2673    5.4011   17.4413 C.ar    1  UNL1        0.0000
     11 C           2.3073    4.4335   18.0674 C.ar    1  UNL1        0.0006
     12 C           2.7617    3.0481   18.4196 C.ar    1  UNL1        0.0077
     13 C           2.0470    1.8851   19.0415 C.ar    1  UNL1        0.0200
     14 C           3.5542   -1.6955   19.8528 C.ar    1  UNL1        0.0352
     15 C           3.9937   -2.4291   18.6203 C.ar    1  UNL1        0.0031
     16 C           4.9663   -3.5656   18.7307 C.ar    1  UNL1        0.0003
     17 C           5.4995   -3.9686   20.0736 C.ar    1  UNL1        0.0062
     18 C           5.0601   -3.2351   21.3060 C.ar    1  UNL1        0.0736
     19 C           5.5933   -3.6381   22.6489 C.ar    1  UNL1        0.2030
     20 O           6.5660   -4.7747   22.7593 O.2     1  UNL1       -0.2863
     21 C           5.1539   -2.9046   23.8813 C.ar    1  UNL1        0.0955
     22 C           4.1812   -1.7680   23.7708 C.ar    1  UNL1        0.2024
     23 O           3.6479   -1.3650   22.4280 O.2     1  UNL1       -0.4398
     24 C           4.0874   -2.0985   21.1956 C.ar    1  UNL1        0.1498
     25 N           3.7417   -1.0345   25.0032 N.pl3   1  UNL1       -0.2742
     26 C           2.9052    0.2044   24.8804 C.3     1  UNL1        0.1257
     27 C           2.4657    0.9379   26.1128 C.3     1  UNL1        0.1637
     28 O           2.8628    0.4325   27.4680 O.3     1  UNL1       -0.3501
     29 C           3.6994   -0.8065   27.5910 C.3     1  UNL1        0.1637
     30 C           4.1388   -1.5400   26.3585 C.3     1  UNL1        0.1257
     31 C          -0.6844    3.6607   20.6246 C.2     1  UNL1        0.2425
     32 O          -0.0597    3.3342   21.9486 O.2     1  UNL1       -0.2733
     33 N          -0.3365    2.8507   19.4109 N.am    1  UNL1       -0.2828
     34 H          -0.7466    3.0650   18.5419 H       1  UNL1        0.1549
     35 C          -1.6571    4.7971   20.5141 C.3     1  UNL1        0.1588
     36 C          -7.1496    4.2851   22.8742 C.3     1  UNL1        0.0897
     37 N          -5.7765    4.4131   22.2842 N.3     1  UNL1       -0.2691
     38 C          -5.1233    5.7601   22.1900 C.3     1  UNL1        0.0897
     39 C          -3.7502    5.8881   21.6000 C.3     1  UNL1        0.0900
     40 N          -3.0302    4.6691   21.1041 N.3     1  UNL1       -0.2626
     41 C          -3.6835    3.3221   21.1983 C.3     1  UNL1        0.0900
     42 C          -5.0566    3.1941   21.7883 C.3     1  UNL1        0.0897
@<TRIPOS>BOND
     1    36    37    1
     2    37    38    1
     3    38    39    1
     4    39    40    1
     5    40    35    1
     6    35    31    1
     7    31    32    2
     8    31    33   am
     9    33     1    1
    10     1     2   ar
    11     2     3   ar
    12     3     4   ar
    13     4    14    1
    14    14    15   ar
    15    15    16   ar
    16    16    17   ar
    17    17    18   ar
    18    18    19   ar
    19    19    20    2
    20    19    21   ar
    21    21    22   ar
    22    22    25    1
    23    25    26    1
    24    26    27    1
    25    27    28    1
    26    28    29    1
    27    29    30    1
    28    22    23   ar
    29    23    24   ar
    30     4     5   ar
    31     5     6   ar
    32     6     7   ar
    33     7     8   ar
    34     8     9   ar
    35     9    10   ar
    36    10    11   ar
    37    11    12   ar
    38    12    13   ar
    39    40    41    1
    40    41    42    1
    41    42    37    1
    42    13     1   ar
    43    24    14   ar
    44    13     5   ar
    45    24    18   ar
    46    12     7   ar
    47    30    25    1
    48    33    34    1
@<TRIPOS>MOLECULE
*****
 42 48 0 0 0
SMALL
GASTEIGER

@<TRIPOS>ATOM
      1 C           4.4127    0.6079   25.9223 C.ar    1  UNL1        0.0508
      2 C           5.8231    0.1182   26.0676 C.ar    1  UNL1        0.0147
      3 C           6.2203   -0.6767   27.2760 C.ar    1  UNL1        0.0019
      4 C           5.2072   -0.9819   28.3392 C.ar    1  UNL1        0.0090
      5 C           3.7968   -0.4922   28.1939 C.ar    1  UNL1        0.0307
      6 S           2.5888   -0.6366   29.0714 S.2     1  UNL1       -0.0869
      7 C           1.4450    0.0691   28.4053 C.ar    1  UNL1        0.0295
      8 C           0.0120    0.2581   28.8060 C.ar    1  UNL1        0.0065
      9 C          -0.9200    1.0277   27.9177 C.ar    1  UNL1        0.0005
     10 C          -0.4189    1.6082   26.6285 C.ar    1  UNL1        0.0000
     11 C           1.0141    1.4192   26.2277 C.ar    1  UNL1        0.0006
     12 C           1.9461    0.6497   27.1161 C.ar    1  UNL1        0.0077
     13 C           3.3996    0.3027   26.9855 C.ar    1  UNL1        0.0200
     14 C           5.6044   -1.7769   29.5476 C.ar    1  UNL1        0.0352
     15 C           5.3618   -1.2252   30.9213 C.ar    1  UNL1        0.0031
     16 C           5.7590   -2.0201   32.1297 C.ar    1  UNL1        0.0003
     17 C           6.3989   -3.3667   31.9645 C.ar    1  UNL1        0.0062
     18 C           6.6415   -3.9183   30.5909 C.ar    1  UNL1        0.0736
     19 C           7.2814   -5.2649   30.4257 C.ar    1  UNL1        0.2030
     20 O           7.6787   -6.0598   31.6341 O.2     1  UNL1       -0.2863
     21 C           7.5241   -5.8165   29.0521 C.ar    1  UNL1        0.0955
     22 C           7.1268   -5.0216   27.8436 C.ar    1  UNL1        0.2024
     23 O           6.4869   -3.6750   28.0088 O.2     1  UNL1       -0.4398
     24 C           6.2443   -3.1234   29.3824 C.ar    1  UNL1        0.1498
     25 N           7.3695   -5.5733   26.4700 N.pl3   1  UNL1       -0.2742
     26 C           7.2716   -4.6749   25.2729 C.3     1  UNL1        0.1257
     27 C           7.5143   -5.2265   23.8993 C.3     1  UNL1        0.1637
     28 O           7.8548   -6.6766   23.7229 O.3     1  UNL1       -0.3501
     29 C           7.9527   -7.5751   24.9200 C.3     1  UNL1        0.1637
     30 C           7.7100   -7.0234   26.2936 C.3     1  UNL1        0.1257
     31 C           3.3370    0.7254   23.5603 C.2     1  UNL1        0.2425
     32 O           3.0556   -0.7469   23.6151 O.2     1  UNL1       -0.2733
     33 N           4.0155    1.4029   24.7138 N.am    1  UNL1       -0.2828
     34 H           4.2001    2.3693   24.6778 H       1  UNL1        0.1549
     35 C           2.9398    1.5204   22.3519 C.3     1  UNL1        0.1588
     36 C           3.7661   -0.7529   16.8610 C.3     1  UNL1        0.0897
     37 N           3.5595   -0.1846   18.2337 N.3     1  UNL1       -0.2691
     38 C           4.7055   -0.1212   19.1995 C.3     1  UNL1        0.0897
     39 C           4.4990    0.4471   20.5722 C.3     1  UNL1        0.0900
     40 N           3.1464    0.9521   20.9792 N.3     1  UNL1       -0.2626
     41 C           2.0004    0.8887   20.0134 C.3     1  UNL1        0.0900
     42 C           2.2069    0.3204   18.6407 C.3     1  UNL1        0.0897
@<TRIPOS>BOND
     1    36    37    1
     2    37    38    1
     3    38    39    1
     4    39    40    1
     5    40    35    1
     6    35    31    1
     7    31    32    2
     8    31    33   am
     9    33     1    1
    10     1     2   ar
    11     2     3   ar
    12     3     4   ar
    13     4    14    1
    14    14    15   ar
    15    15    16   ar
    16    16    17   ar
    17    17    18   ar
    18    18    19   ar
    19    19    20    2
    20    19    21   ar
    21    21    22   ar
    22    22    25    1
    23    25    26    1
    24    26    27    1
    25    27    28    1
    26    28    29    1
    27    29    30    1
    28    22    23   ar
    29    23    24   ar
    30     4     5   ar
    31     5     6   ar
    32     6     7   ar
    33     7     8   ar
    34     8     9   ar
    35     9    10   ar
    36    10    11   ar
    37    11    12   ar
    38    12    13   ar
    39    40    41    1
    40    41    42    1
    41    42    37    1
    42    13     1   ar
    43    24    14   ar
    44    13     5   ar
    45    24    18   ar
    46    12     7   ar
    47    30    25    1
    48    33    34    1
@<TRIPOS>MOLECULE
*****
 42 48 0 0 0
SMALL
GASTEIGER

@<TRIPOS>ATOM
      1 C           7.2870   -2.4353   25.2275 C.ar    1  UNL1        0.0508
      2 C           7.0093   -1.0779   25.8024 C.ar    1  UNL1        0.0147
      3 C           6.7992   -0.9174   27.2789 C.ar    1  UNL1        0.0019
      4 C           6.8668   -2.1143   28.1805 C.ar    1  UNL1        0.0090
      5 C           7.1445   -3.4716   27.6056 C.ar    1  UNL1        0.0307
      6 S           7.2691   -4.8246   28.2413 S.2     1  UNL1       -0.0869
      7 C           7.5563   -5.8212   27.1576 C.ar    1  UNL1        0.0295
      8 C           7.7765   -7.3046   27.1909 C.ar    1  UNL1        0.0065
      9 C           8.0495   -8.0509   25.9188 C.ar    1  UNL1        0.0005
     10 C           8.1022   -7.3140   24.6134 C.ar    1  UNL1        0.0000
     11 C           7.8820   -5.8306   24.5801 C.ar    1  UNL1        0.0006
     12 C           7.6091   -5.0842   25.8522 C.ar    1  UNL1        0.0077
     13 C           7.3545   -3.6322   26.1291 C.ar    1  UNL1        0.0200
     14 C           6.6567   -1.9538   29.6570 C.ar    1  UNL1        0.0352
     15 C           7.7236   -2.3880   30.6180 C.ar    1  UNL1        0.0031
     16 C           7.5136   -2.2276   32.0944 C.ar    1  UNL1        0.0003
     17 C           6.2367   -1.6328   32.6101 C.ar    1  UNL1        0.0062
     18 C           5.1699   -1.1985   31.6492 C.ar    1  UNL1        0.0736
     19 C           3.8930   -0.6038   32.1648 C.ar    1  UNL1        0.2030
     20 O           3.6829   -0.4433   33.6413 O.2     1  UNL1       -0.2863
     21 C           2.8262   -0.1695   31.2039 C.ar    1  UNL1        0.0955
     22 C           3.0362   -0.3300   29.7273 C.ar    1  UNL1        0.2024
     23 O           4.3131   -0.9248   29.2117 O.2     1  UNL1       -0.4398
     24 C           5.3799   -1.3590   30.1726 C.ar    1  UNL1        0.1498
     25 N           1.9694    0.1042   28.7665 N.pl3   1  UNL1       -0.2742
     26 C           2.3471    0.7796   27.4815 C.3     1  UNL1        0.1257
     27 C           1.2803    1.2139   26.5207 C.3     1  UNL1        0.1637
     28 O          -0.1642    0.9728   26.8447 O.3     1  UNL1       -0.3501
     29 C          -0.5420    0.2974   28.1296 C.3     1  UNL1        0.1637
     30 C           0.5248   -0.1369   29.0905 C.3     1  UNL1        0.1257
     31 C           6.3805   -3.0992   22.8849 C.2     1  UNL1        0.2425
     32 O           5.0541   -3.4422   23.4953 O.2     1  UNL1       -0.2733
     33 N           7.4970   -2.5958   23.7509 N.am    1  UNL1       -0.2828
     34 H           8.3677   -2.3706   23.3502 H       1  UNL1        0.1549
     35 C           6.5907   -3.2597   21.4084 C.3     1  UNL1        0.1588
     36 C           3.2392   -0.1247   17.5431 C.3     1  UNL1        0.0897
     37 N           4.0771   -0.9084   18.5094 N.3     1  UNL1       -0.2691
     38 C           4.5085   -2.3039   18.1678 C.3     1  UNL1        0.0897
     39 C           5.3463   -3.0876   19.1341 C.3     1  UNL1        0.0900
     40 N           5.7528   -2.4759   20.4421 N.3     1  UNL1       -0.2626
     41 C           5.3214   -1.0805   20.7837 C.3     1  UNL1        0.0900
     42 C           4.4835   -0.2968   19.8174 C.3     1  UNL1        0.0897
@<TRIPOS>BOND
     1    36    37    1
     2    37    38    1
     3    38    39    1
     4    39    40    1
     5    40    35    1
     6    35    31    1
     7    31    32    2
     8    31    33   am
     9    33     1    1
    10     1     2   ar
    11     2     3   ar
    12     3     4   ar
    13     4    14    1
    14    14    15   ar
    15    15    16   ar
    16    16    17   ar
    17    17    18   ar
    18    18    19   ar
    19    19    20    2
    20    19    21   ar
    21    21    22   ar
    22    22    25    1
    23    25    26    1
    24    26    27    1
    25    27    28    1
    26    28    29    1
    27    29    30    1
    28    22    23   ar
    29    23    24   ar
    30     4     5   ar
    31     5     6   ar
    32     6     7   ar
    33     7     8   ar
    34     8     9   ar
    35     9    10   ar
    36    10    11   ar
    37    11    12   ar
    38    12    13   ar
    39    40    41    1
    40    41    42    1
    41    42    37    1
    42    13     1   ar
    43    24    14   ar
    44    13     5   ar
    45    24    18   ar
    46    12     7   ar
    47    30    25    1
    48    33    34    1
@<TRIPOS>MOLECULE
*****
 42 48 0 0 0
SMALL
GASTEIGER

@<TRIPOS>ATOM
      1 C           1.4937    1.5084   27.5122 C.ar    1  UNL1        0.0508
      2 C           0.1566    1.0298   27.0292 C.ar    1  UNL1        0.0147
      3 C          -0.2372    1.2262   25.5952 C.ar    1  UNL1        0.0019
      4 C           0.7061    1.9012   24.6442 C.ar    1  UNL1        0.0090
      5 C           2.0432    2.3798   25.1271 C.ar    1  UNL1        0.0307
      6 S           3.1737    3.0739   24.4270 S.2     1  UNL1       -0.0869
      7 C           4.2661    3.3064   25.4282 C.ar    1  UNL1        0.0295
      8 C           5.6166    3.9483   25.3093 C.ar    1  UNL1        0.0065
      9 C           6.5118    4.0397   26.5094 C.ar    1  UNL1        0.0005
     10 C           6.0565    3.4893   27.8284 C.ar    1  UNL1        0.0000
     11 C           4.7060    2.8475   27.9473 C.ar    1  UNL1        0.0006
     12 C           3.8108    2.7561   26.7472 C.ar    1  UNL1        0.0077
     13 C           2.4370    2.1834   26.5611 C.ar    1  UNL1        0.0200
     14 C           0.3124    2.0976   23.2102 C.ar    1  UNL1        0.0352
     15 C          -0.6861    3.1558   22.8447 C.ar    1  UNL1        0.0031
     16 C          -1.0799    3.3523   21.4108 C.ar    1  UNL1        0.0003
     17 C          -0.4753    2.4906   20.3422 C.ar    1  UNL1        0.0062
     18 C           0.5231    1.4325   20.7076 C.ar    1  UNL1        0.0736
     19 C           1.1277    0.5708   19.6390 C.ar    1  UNL1        0.2030
     20 O           0.7339    0.7672   18.2050 O.2     1  UNL1       -0.2863
     21 C           2.1261   -0.4874   20.0043 C.ar    1  UNL1        0.0955
     22 C           2.5199   -0.6839   21.4384 C.ar    1  UNL1        0.2024
     23 O           1.9153    0.1778   22.5070 O.2     1  UNL1       -0.4398
     24 C           0.9169    1.2360   22.1416 C.ar    1  UNL1        0.1498
     25 N           3.5183   -1.7420   21.8038 N.pl3   1  UNL1       -0.2742
     26 C           4.0516   -2.6660   20.7495 C.3     1  UNL1        0.1257
     27 C           5.0500   -3.7242   21.1148 C.3     1  UNL1        0.1637
     28 O           5.5151   -3.8583   22.5345 O.3     1  UNL1       -0.3501
     29 C           4.9818   -2.9343   23.5889 C.3     1  UNL1        0.1637
     30 C           3.9834   -1.8761   23.2235 C.3     1  UNL1        0.1257
     31 C           2.3567   -0.0326   29.4177 C.2     1  UNL1        0.2425
     32 O           2.4323   -1.1805   28.4552 O.2     1  UNL1       -0.2733
     33 N           1.8874    1.3119   28.9462 N.am    1  UNL1       -0.2828
     34 H           1.8378    2.0653   29.5780 H       1  UNL1        0.1549
     35 C           2.7504   -0.2290   30.8517 C.3     1  UNL1        0.1588
     36 C           7.9872   -2.8311   32.1954 C.3     1  UNL1        0.0897
     37 N           6.6780   -2.1806   31.8595 N.3     1  UNL1       -0.2691
     38 C           6.5367   -1.3899   30.5927 C.3     1  UNL1        0.0897
     39 C           5.2275   -0.7393   30.2567 C.3     1  UNL1        0.0900
     40 N           4.0596   -0.8795   31.1876 N.3     1  UNL1       -0.2626
     41 C           4.2009   -1.6702   32.4544 C.3     1  UNL1        0.0900
     42 C           5.5101   -2.3208   32.7904 C.3     1  UNL1        0.0897
@<TRIPOS>BOND
     1    36    37    1
     2    37    38    1
     3    38    39    1
     4    39    40    1
     5    40    35    1
     6    35    31    1
     7    31    32    2
     8    31    33   am
     9    33     1    1
    10     1     2   ar
    11     2     3   ar
    12     3     4   ar
    13     4    14    1
    14    14    15   ar
    15    15    16   ar
    16    16    17   ar
    17    17    18   ar
    18    18    19   ar
    19    19    20    2
    20    19    21   ar
    21    21    22   ar
    22    22    25    1
    23    25    26    1
    24    26    27    1
    25    27    28    1
    26    28    29    1
    27    29    30    1
    28    22    23   ar
    29    23    24   ar
    30     4     5   ar
    31     5     6   ar
    32     6     7   ar
    33     7     8   ar
    34     8     9   ar
    35     9    10   ar
    36    10    11   ar
    37    11    12   ar
    38    12    13   ar
    39    40    41    1
    40    41    42    1
    41    42    37    1
    42    13     1   ar
    43    24    14   ar
    44    13     5   ar
    45    24    18   ar
    46    12     7   ar
    47    30    25    1
    48    33    34    1
@<TRIPOS>MOLECULE
*****
 42 48 0 0 0
SMALL
GASTEIGER

@<TRIPOS>ATOM
      1 C           6.7808   -3.0604   25.1794 C.ar    1  UNL1        0.0508
      2 C           7.3734   -3.9663   24.1410 C.ar    1  UNL1        0.0147
      3 C           6.7536   -4.0508   22.7776 C.ar    1  UNL1        0.0019
      4 C           5.5414   -3.2294   22.4527 C.ar    1  UNL1        0.0090
      5 C           4.9489   -2.3234   23.4911 C.ar    1  UNL1        0.0307
      6 S           3.7664   -1.4011   23.4615 S.2     1  UNL1       -0.0869
      7 C           3.6553   -0.7465   24.8066 C.ar    1  UNL1        0.0295
      8 C           2.6838    0.2541   25.3588 C.ar    1  UNL1        0.0065
      9 C           2.8261    0.7369   26.7718 C.ar    1  UNL1        0.0005
     10 C           3.9400    0.2190   27.6326 C.ar    1  UNL1        0.0000
     11 C           4.9115   -0.7817   27.0805 C.ar    1  UNL1        0.0006
     12 C           4.7691   -1.2644   25.6675 C.ar    1  UNL1        0.0077
     13 C           5.5686   -2.2390   24.8544 C.ar    1  UNL1        0.0200
     14 C           4.9217   -3.3138   21.0893 C.ar    1  UNL1        0.0352
     15 C           4.1354   -4.5295   20.6968 C.ar    1  UNL1        0.0031
     16 C           3.5157   -4.6141   19.3335 C.ar    1  UNL1        0.0003
     17 C           3.6821   -3.4829   18.3626 C.ar    1  UNL1        0.0062
     18 C           4.4683   -2.2672   18.7550 C.ar    1  UNL1        0.0736
     19 C           4.6348   -1.1360   17.7841 C.ar    1  UNL1        0.2030
     20 O           4.0151   -1.2205   16.4207 O.2     1  UNL1       -0.2863
     21 C           5.4210    0.0797   18.1765 C.ar    1  UNL1        0.0955
     22 C           6.0408    0.1642   19.5399 C.ar    1  UNL1        0.2024
     23 O           5.8743   -0.9670   20.5109 O.2     1  UNL1       -0.4398
     24 C           5.0881   -2.1827   20.1184 C.ar    1  UNL1        0.1498
     25 N           6.8270    1.3798   19.9323 N.pl3   1  UNL1       -0.2742
     26 C           8.1327    1.2277   20.6547 C.3     1  UNL1        0.1257
     27 C           8.9189    2.4433   21.0471 C.3     1  UNL1        0.1637
     28 O           8.3993    3.8112   20.7172 O.3     1  UNL1       -0.3501
     29 C           7.0936    3.9635   19.9949 C.3     1  UNL1        0.1637
     30 C           6.3074    2.7478   19.6024 C.3     1  UNL1        0.1257
     31 C           7.2188   -4.0993   27.5202 C.2     1  UNL1        0.2425
     32 O           6.4172   -5.3069   27.1343 O.2     1  UNL1       -0.2733
     33 N           7.4006   -2.9760   26.5428 N.am    1  UNL1       -0.2828
     34 H           7.9268   -2.1834   26.7962 H       1  UNL1        0.1549
     35 C           7.8386   -4.0148   28.8835 C.3     1  UNL1        0.1588
     36 C           4.5758   -2.1234   33.5502 C.3     1  UNL1        0.0897
     37 N           5.3915   -2.5962   32.3835 N.3     1  UNL1       -0.2691
     38 C           5.4837   -1.7571   31.1436 C.3     1  UNL1        0.0897
     39 C           6.2993   -2.2300   29.9769 C.3     1  UNL1        0.0900
     40 N           7.0229   -3.5420   30.0502 N.3     1  UNL1       -0.2626
     41 C           6.9307   -4.3811   31.2901 C.3     1  UNL1        0.0900
     42 C           6.1150   -3.9082   32.4568 C.3     1  UNL1        0.0897
@<TRIPOS>BOND
     1    36    37    1
     2    37    38    1
     3    38    39    1
     4    39    40    1
     5    40    35    1
     6    35    31    1
     7    31    32    2
     8    31    33   am
     9    33     1    1
    10     1     2   ar
    11     2     3   ar
    12     3     4   ar
    13     4    14    1
    14    14    15   ar
    15    15    16   ar
    16    16    17   ar
    17    17    18   ar
    18    18    19   ar
    19    19    20    2
    20    19    21   ar
    21    21    22   ar
    22    22    25    1
    23    25    26    1
    24    26    27    1
    25    27    28    1
    26    28    29    1
    27    29    30    1
    28    22    23   ar
    29    23    24   ar
    30     4     5   ar
    31     5     6   ar
    32     6     7   ar
    33     7     8   ar
    34     8     9   ar
    35     9    10   ar
    36    10    11   ar
    37    11    12   ar
    38    12    13   ar
    39    40    41    1
    40    41    42    1
    41    42    37    1
    42    13     1   ar
    43    24    14   ar
    44    13     5   ar
    45    24    18   ar
    46    12     7   ar
    47    30    25    1
    48    33    34    1
@<TRIPOS>MOLECULE
*****
 42 48 0 0 0
SMALL
GASTEIGER

@<TRIPOS>ATOM
      1 C           4.4174    1.8205   27.2836 C.ar    1  UNL1        0.0508
      2 C           5.8652    1.5581   27.5752 C.ar    1  UNL1        0.0147
      3 C           6.2508    0.5071   28.5735 C.ar    1  UNL1        0.0019
      4 C           5.1885   -0.2815   29.2803 C.ar    1  UNL1        0.0090
      5 C           3.7407   -0.0191   28.9888 C.ar    1  UNL1        0.0307
      6 S           2.4815   -0.6328   29.5253 S.2     1  UNL1       -0.0869
      7 C           1.3178    0.0389   28.8586 C.ar    1  UNL1        0.0295
      8 C          -0.1638   -0.1534   28.9927 C.ar    1  UNL1        0.0065
      9 C          -1.1054    0.6831   28.1781 C.ar    1  UNL1        0.0005
     10 C          -0.5654    1.7120   27.2295 C.ar    1  UNL1        0.0000
     11 C           0.9161    1.9043   27.0954 C.ar    1  UNL1        0.0006
     12 C           1.8577    1.0678   27.9099 C.ar    1  UNL1        0.0077
     13 C           3.3551    1.0319   27.9904 C.ar    1  UNL1        0.0200
     14 C           5.5741   -1.3325   30.2787 C.ar    1  UNL1        0.0352
     15 C           5.4349   -1.0592   31.7470 C.ar    1  UNL1        0.0031
     16 C           5.8204   -2.1101   32.7454 C.ar    1  UNL1        0.0003
     17 C           6.3451   -3.4345   32.2755 C.ar    1  UNL1        0.0062
     18 C           6.4843   -3.7078   30.8072 C.ar    1  UNL1        0.0736
     19 C           7.0090   -5.0321   30.3372 C.ar    1  UNL1        0.2030
     20 O           7.3946   -6.0831   31.3356 O.2     1  UNL1       -0.2863
     21 C           7.1482   -5.3055   28.8690 C.ar    1  UNL1        0.0955
     22 C           6.7626   -4.2544   27.8705 C.ar    1  UNL1        0.2024
     23 O           6.2379   -2.9301   28.3405 O.2     1  UNL1       -0.4398
     24 C           6.0987   -2.6568   29.8087 C.ar    1  UNL1        0.1498
     25 N           6.9018   -4.5278   26.4022 N.pl3   1  UNL1       -0.2742
     26 C           7.4831   -5.8285   25.9333 C.3     1  UNL1        0.1257
     27 C           7.6223   -6.1018   24.4650 C.3     1  UNL1        0.1637
     28 O           7.1801   -5.0744   23.4657 O.3     1  UNL1       -0.3501
     29 C           6.5987   -3.7736   23.9346 C.3     1  UNL1        0.1637
     30 C           6.4596   -3.5003   25.4028 C.3     1  UNL1        0.1257
     31 C           3.7333    2.4852   24.8669 C.2     1  UNL1        0.2425
     32 O           3.8202    1.0479   24.4470 O.2     1  UNL1       -0.2733
     33 N           4.0319    2.8716   26.2852 N.am    1  UNL1       -0.2828
     34 H           3.9748    3.8150   26.5608 H       1  UNL1        0.1549
     35 C           3.3478    3.5363   23.8686 C.3     1  UNL1        0.1588
     36 C          -1.6269    2.8702   20.5808 C.3     1  UNL1        0.0897
     37 N          -0.3832    3.0367   21.4028 N.3     1  UNL1       -0.2691
     38 C           0.9622    3.0176   20.7397 C.3     1  UNL1        0.0897
     39 C           2.2058    3.1841   21.5616 C.3     1  UNL1        0.0900
     40 N           2.1041    3.3697   23.0467 N.3     1  UNL1       -0.2626
     41 C           0.7588    3.3888   23.7097 C.3     1  UNL1        0.0900
     42 C          -0.4849    3.2223   22.8878 C.3     1  UNL1        0.0897
@<TRIPOS>BOND
     1    36    37    1
     2    37    38    1
     3    38    39    1
     4    39    40    1
     5    40    35    1
     6    35    31    1
     7    31    32    2
     8    31    33   am
     9    33     1    1
    10     1     2   ar
    11     2     3   ar
    12     3     4   ar
    13     4    14    1
    14    14    15   ar
    15    15    16   ar
    16    16    17   ar
    17    17    18   ar
    18    18    19   ar
    19    19    20    2
    20    19    21   ar
    21    21    22   ar
    22    22    25    1
    23    25    26    1
    24    26    27    1
    25    27    28    1
    26    28    29    1
    27    29    30    1
    28    22    23   ar
    29    23    24   ar
    30     4     5   ar
    31     5     6   ar
    32     6     7   ar
    33     7     8   ar
    34     8     9   ar
    35     9    10   ar
    36    10    11   ar
    37    11    12   ar
    38    12    13   ar
    39    40    41    1
    40    41    42    1
    41    42    37    1
    42    13     1   ar
    43    24    14   ar
    44    13     5   ar
    45    24    18   ar
    46    12     7   ar
    47    30    25    1
    48    33    34    1
@<TRIPOS>MOLECULE
*****
 42 48 0 0 0
SMALL
GASTEIGER

@<TRIPOS>ATOM
      1 C           5.5306   -2.3774   32.0176 C.ar    1  UNL1        0.0508
      2 C           4.6487   -2.5664   33.2161 C.ar    1  UNL1        0.0147
      3 C           4.0421   -1.3751   33.8963 C.ar    1  UNL1        0.0019
      4 C           4.3175    0.0053   33.3780 C.ar    1  UNL1        0.0090
      5 C           5.1994    0.1943   32.1795 C.ar    1  UNL1        0.0307
      6 S           5.6475    1.4242   31.4470 S.2     1  UNL1       -0.0869
      7 C           6.5310    0.9930   30.3141 C.ar    1  UNL1        0.0295
      8 C           7.2589    1.7697   29.2572 C.ar    1  UNL1        0.0065
      9 C           8.0847    1.0498   28.2327 C.ar    1  UNL1        0.0005
     10 C           8.1827   -0.4466   28.2650 C.ar    1  UNL1        0.0000
     11 C           7.4548   -1.2232   29.3218 C.ar    1  UNL1        0.0006
     12 C           6.6289   -0.5034   30.3464 C.ar    1  UNL1        0.0077
     13 C           5.8060   -0.9970   31.4993 C.ar    1  UNL1        0.0200
     14 C           3.7109    1.1966   34.0583 C.ar    1  UNL1        0.0352
     15 C           4.1841    1.6029   35.4225 C.ar    1  UNL1        0.0031
     16 C           3.5775    2.7942   36.1028 C.ar    1  UNL1        0.0003
     17 C           2.4978    3.5793   35.4188 C.ar    1  UNL1        0.0062
     18 C           2.0246    3.1731   34.0547 C.ar    1  UNL1        0.0736
     19 C           0.9449    3.9582   33.3707 C.ar    1  UNL1        0.2030
     20 O           0.3383    5.1496   34.0509 O.2     1  UNL1       -0.2863
     21 C           0.4717    3.5520   32.0065 C.ar    1  UNL1        0.0955
     22 C           1.0783    2.3606   31.3262 C.ar    1  UNL1        0.2024
     23 O           2.1580    1.5754   32.0101 O.2     1  UNL1       -0.4398
     24 C           2.6312    1.9817   33.3743 C.ar    1  UNL1        0.1498
     25 N           0.6051    1.9543   29.9620 N.pl3   1  UNL1       -0.2742
     26 C           0.5048    2.9756   28.8680 C.3     1  UNL1        0.1257
     27 C           0.0316    2.5693   27.5038 C.3     1  UNL1        0.1637
     28 O          -0.3412    1.1418   27.2336 O.3     1  UNL1       -0.3501
     29 C          -0.2409    0.1205   28.3276 C.3     1  UNL1        0.1637
     30 C           0.2323    0.5267   29.6918 C.3     1  UNL1        0.1257
     31 C           7.5807   -3.9078   31.5644 C.2     1  UNL1        0.2425
     32 O           8.4176   -3.0555   32.4716 O.2     1  UNL1       -0.2733
     33 N           6.1372   -3.5689   31.3373 N.am    1  UNL1       -0.2828
     34 H           5.5880   -4.1283   30.7419 H       1  UNL1        0.1549
     35 C           8.1872   -5.0992   30.8842 C.3     1  UNL1        0.1588
     36 C           7.9650   -5.5768   24.9073 C.3     1  UNL1        0.0897
     37 N           8.0206   -5.4574   26.4015 N.3     1  UNL1       -0.2691
     38 C           9.2365   -4.8794   27.0630 C.3     1  UNL1        0.0897
     39 C           9.2920   -4.7600   28.5572 C.3     1  UNL1        0.0900
     40 N           8.1316   -5.2186   29.3900 N.3     1  UNL1       -0.2626
     41 C           6.9158   -5.7966   28.7285 C.3     1  UNL1        0.0900
     42 C           6.8602   -5.9160   27.2343 C.3     1  UNL1        0.0897
@<TRIPOS>BOND
     1    36    37    1
     2    37    38    1
     3    38    39    1
     4    39    40    1
     5    40    35    1
     6    35    31    1
     7    31    32    2
     8    31    33   am
     9    33     1    1
    10     1     2   ar
    11     2     3   ar
    12     3     4   ar
    13     4    14    1
    14    14    15   ar
    15    15    16   ar
    16    16    17   ar
    17    17    18   ar
    18    18    19   ar
    19    19    20    2
    20    19    21   ar
    21    21    22   ar
    22    22    25    1
    23    25    26    1
    24    26    27    1
    25    27    28    1
    26    28    29    1
    27    29    30    1
    28    22    23   ar
    29    23    24   ar
    30     4     5   ar
    31     5     6   ar
    32     6     7   ar
    33     7     8   ar
    34     8     9   ar
    35     9    10   ar
    36    10    11   ar
    37    11    12   ar
    38    12    13   ar
    39    40    41    1
    40    41    42    1
    41    42    37    1
    42    13     1   ar
    43    24    14   ar
    44    13     5   ar
    45    24    18   ar
    46    12     7   ar
    47    30    25    1
    48    33    34    1
@<TRIPOS>MOLECULE
*****
 42 48 0 0 0
SMALL
GASTEIGER

@<TRIPOS>ATOM
      1 C           1.1904    2.5975   23.2440 C.ar    1  UNL1        0.0508
      2 C           0.3431    3.8310   23.1414 C.ar    1  UNL1        0.0147
      3 C          -0.3793    4.1406   21.8638 C.ar    1  UNL1        0.0019
      4 C          -0.2543    3.2166   20.6888 C.ar    1  UNL1        0.0090
      5 C           0.5931    1.9831   20.7914 C.ar    1  UNL1        0.0307
      6 S           0.9037    0.8941   19.8077 S.2     1  UNL1       -0.0869
      7 C           1.8181   -0.0884   20.4774 C.ar    1  UNL1        0.0295
      8 C           2.4519   -1.3595   19.9952 C.ar    1  UNL1        0.0065
      9 C           3.3401   -2.1489   20.9106 C.ar    1  UNL1        0.0005
     10 C           3.5946   -1.6672   22.3081 C.ar    1  UNL1        0.0000
     11 C           2.9608   -0.3961   22.7904 C.ar    1  UNL1        0.0006
     12 C           2.0726    0.3933   21.8750 C.ar    1  UNL1        0.0077
     13 C           1.3154    1.6736   22.0690 C.ar    1  UNL1        0.0200
     14 C          -0.9767    3.5262   19.4111 C.ar    1  UNL1        0.0352
     15 C          -0.2360    3.5057   18.1068 C.ar    1  UNL1        0.0031
     16 C          -0.9583    3.8153   16.8292 C.ar    1  UNL1        0.0003
     17 C          -2.4213    4.1453   16.8558 C.ar    1  UNL1        0.0062
     18 C          -3.1620    4.1657   18.1600 C.ar    1  UNL1        0.0736
     19 C          -4.6250    4.4957   18.1866 C.ar    1  UNL1        0.2030
     20 O          -5.3474    4.8053   16.9089 O.2     1  UNL1       -0.2863
     21 C          -5.3656    4.5162   19.4908 C.ar    1  UNL1        0.0955
     22 C          -4.6433    4.2066   20.7685 C.ar    1  UNL1        0.2024
     23 O          -3.1803    3.8766   20.7419 O.2     1  UNL1       -0.4398
     24 C          -2.4396    3.8562   19.4377 C.ar    1  UNL1        0.1498
     25 N          -5.3839    4.2270   22.0727 N.pl3   1  UNL1       -0.2742
     26 C          -6.8624    4.4793   22.0917 C.3     1  UNL1        0.1257
     27 C          -7.6030    4.4997   23.3959 C.3     1  UNL1        0.1637
     28 O          -6.8653    4.2679   24.6811 O.3     1  UNL1       -0.3501
     29 C          -5.3868    4.0156   24.6622 C.3     1  UNL1        0.1637
     30 C          -4.6461    3.9952   23.3580 C.3     1  UNL1        0.1257
     31 C           1.2075    1.5532   25.6230 C.2     1  UNL1        0.2425
     32 O          -0.2200    1.1280   25.4466 O.2     1  UNL1       -0.2733
     33 N           1.9128    2.2880   24.5217 N.am    1  UNL1       -0.2828
     34 H           2.8498    2.5671   24.6376 H       1  UNL1        0.1549
     35 C           1.9299    1.2437   26.9006 C.3     1  UNL1        0.1588
     36 C           0.2761    3.9249   32.0071 C.3     1  UNL1        0.0897
     37 N           0.6896    3.2547   30.7305 N.3     1  UNL1       -0.2691
     38 C           1.3445    4.0528   29.6423 C.3     1  UNL1        0.0897
     39 C           1.7580    3.3825   28.3657 C.3     1  UNL1        0.0900
     40 N           1.5165    1.9140   28.1772 N.3     1  UNL1       -0.2626
     41 C           0.8615    1.1159   29.2654 C.3     1  UNL1        0.0900
     42 C           0.4481    1.7862   30.5420 C.3     1  UNL1        0.0897
@<TRIPOS>BOND
     1    36    37    1
     2    37    38    1
     3    38    39    1
     4    39    40    1
     5    40    35    1
     6    35    31    1
     7    31    32    2
     8    31    33   am
     9    33     1    1
    10     1     2   ar
    11     2     3   ar
    12     3     4   ar
    13     4    14    1
    14    14    15   ar
    15    15    16   ar
    16    16    17   ar
    17    17    18   ar
    18    18    19   ar
    19    19    20    2
    20    19    21   ar
    21    21    22   ar
    22    22    25    1
    23    25    26    1
    24    26    27    1
    25    27    28    1
    26    28    29    1
    27    29    30    1
    28    22    23   ar
    29    23    24   ar
    30     4     5   ar
    31     5     6   ar
    32     6     7   ar
    33     7     8   ar
    34     8     9   ar
    35     9    10   ar
    36    10    11   ar
    37    11    12   ar
    38    12    13   ar
    39    40    41    1
    40    41    42    1
    41    42    37    1
    42    13     1   ar
    43    24    14   ar
    44    13     5   ar
    45    24    18   ar
    46    12     7   ar
    47    30    25    1
    48    33    34    1
@<TRIPOS>MOLECULE
*****
 42 48 0 0 0
SMALL
GASTEIGER

@<TRIPOS>ATOM
      1 C           3.1221    0.0580   19.1572 C.ar    1  UNL1        0.0508
      2 C           1.7348   -0.3683   19.5360 C.ar    1  UNL1        0.0147
      3 C           0.6077    0.6205   19.4908 C.ar    1  UNL1        0.0019
      4 C           0.8680    2.0355   19.0667 C.ar    1  UNL1        0.0090
      5 C           2.2554    2.4618   18.6878 C.ar    1  UNL1        0.0307
      6 S           2.8119    3.7784   18.2330 S.2     1  UNL1       -0.0869
      7 C           4.2828    3.6033   17.9971 C.ar    1  UNL1        0.0295
      8 C           5.3467    4.5572   17.5408 C.ar    1  UNL1        0.0065
      9 C           6.7632    4.0863   17.3935 C.ar    1  UNL1        0.0005
     10 C           7.1158    2.6615   17.7026 C.ar    1  UNL1        0.0000
     11 C           6.0520    1.7076   18.1589 C.ar    1  UNL1        0.0006
     12 C           4.6355    2.1785   18.3062 C.ar    1  UNL1        0.0077
     13 C           3.3824    1.4730   18.7331 C.ar    1  UNL1        0.0200
     14 C          -0.2591    3.0243   19.0214 C.ar    1  UNL1        0.0352
     15 C          -0.7135    3.5840   17.7060 C.ar    1  UNL1        0.0031
     16 C          -1.8405    4.5727   17.6607 C.ar    1  UNL1        0.0003
     17 C          -2.5132    5.0018   18.9308 C.ar    1  UNL1        0.0062
     18 C          -2.0589    4.4422   20.2462 C.ar    1  UNL1        0.0736
     19 C          -2.7316    4.8713   21.5164 C.ar    1  UNL1        0.2030
     20 O          -3.8586    5.8601   21.4712 O.2     1  UNL1       -0.2863
     21 C          -2.2772    4.3116   22.8318 C.ar    1  UNL1        0.0955
     22 C          -1.1501    3.3228   22.8771 C.ar    1  UNL1        0.2024
     23 O          -0.4774    2.8937   21.6070 O.2     1  UNL1       -0.4398
     24 C          -0.9317    3.4533   20.2915 C.ar    1  UNL1        0.1498
     25 N          -0.6958    2.7632   24.1926 N.pl3   1  UNL1       -0.2742
     26 C          -1.5264    2.9727   25.4238 C.3     1  UNL1        0.1257
     27 C          -1.0721    2.4130   26.7392 C.3     1  UNL1        0.1637
     28 O           0.2129    1.6439   26.8234 O.3     1  UNL1       -0.3501
     29 C           1.0436    1.4344   25.5921 C.3     1  UNL1        0.1637
     30 C           0.5893    1.9940   24.2767 C.3     1  UNL1        0.1257
     31 C           4.7290   -1.5796   17.9379 C.2     1  UNL1        0.2425
     32 O           4.0818   -1.2396   16.6282 O.2     1  UNL1       -0.2733
     33 N           4.2492   -0.9309   19.2024 N.am    1  UNL1       -0.2828
     34 H           4.6740   -1.1541   20.0620 H       1  UNL1        0.1549
     35 C           5.8560   -2.5684   17.9832 C.3     1  UNL1        0.1588
     36 C           9.1662   -3.1183   22.9572 C.3     1  UNL1        0.0897
     37 N           8.3387   -2.9808   21.7137 N.3     1  UNL1       -0.2691
     38 C           8.7137   -1.9696   20.6712 C.3     1  UNL1        0.0897
     39 C           7.8862   -1.8321   19.4277 C.3     1  UNL1        0.0900
     40 N           6.6835   -2.7059   19.2267 N.3     1  UNL1       -0.2626
     41 C           6.3085   -3.7171   20.2692 C.3     1  UNL1        0.0900
     42 C           7.1361   -3.8546   21.5126 C.3     1  UNL1        0.0897
@<TRIPOS>BOND
     1    36    37    1
     2    37    38    1
     3    38    39    1
     4    39    40    1
     5    40    35    1
     6    35    31    1
     7    31    32    2
     8    31    33   am
     9    33     1    1
    10     1     2   ar
    11     2     3   ar
    12     3     4   ar
    13     4    14    1
    14    14    15   ar
    15    15    16   ar
    16    16    17   ar
    17    17    18   ar
    18    18    19   ar
    19    19    20    2
    20    19    21   ar
    21    21    22   ar
    22    22    25    1
    23    25    26    1
    24    26    27    1
    25    27    28    1
    26    28    29    1
    27    29    30    1
    28    22    23   ar
    29    23    24   ar
    30     4     5   ar
    31     5     6   ar
    32     6     7   ar
    33     7     8   ar
    34     8     9   ar
    35     9    10   ar
    36    10    11   ar
    37    11    12   ar
    38    12    13   ar
    39    40    41    1
    40    41    42    1
    41    42    37    1
    42    13     1   ar
    43    24    14   ar
    44    13     5   ar
    45    24    18   ar
    46    12     7   ar
    47    30    25    1
    48    33    34    1
