@<TRIPOS>MOLECULE
*****
 29 33 0 0 0
SMALL
GASTEIGER

@<TRIPOS>ATOM
      1 C         -12.2034   -6.1252   18.6283 C.3     1  UNL1        0.0627
      2 C         -10.9428   -6.8537   18.9893 C.3     1  UNL1        0.0107
      3 C          -9.6476   -6.1045   19.0946 C.3     1  UNL1        0.0060
      4 C          -9.6129   -4.6269   18.8389 C.3     1  UNL1        0.0343
      5 C         -10.8734   -3.8984   18.4779 C.ar    1  UNL1        0.0237
      6 S         -11.1463   -2.4555   18.1719 S.2     1  UNL1       -0.0561
      7 C         -12.6102   -2.3129   17.8774 C.ar    1  UNL1        0.1629
      8 N         -13.2421   -3.6677   18.0015 N.ar    1  UNL1       -0.2284
      9 C         -12.1687   -4.6475   18.3726 C.ar    1  UNL1        0.0666
     10 C         -16.0892   -8.3726   18.3124 C.ar    1  UNL1       -0.0000
     11 C         -15.9530   -7.2440   19.2910 C.ar    1  UNL1       -0.0003
     12 C         -14.6577   -6.4949   19.3963 C.ar    1  UNL1       -0.0039
     13 C         -13.4987   -6.8743   18.5230 C.ar    1  UNL1       -0.0169
     14 C         -13.6349   -8.0029   17.5444 C.ar    1  UNL1       -0.0039
     15 C         -14.9301   -8.7521   17.4390 C.ar    1  UNL1       -0.0003
     16 N         -13.3180   -1.0392   17.5214 N.pl3   1  UNL1       -0.2927
     17 H         -13.0817   -0.5592   16.6949 H       1  UNL1        0.1541
     18 C         -14.3857   -0.4967   18.4246 C.ar    1  UNL1        0.0497
     19 C         -14.5703    0.9855   18.5616 C.ar    1  UNL1        0.0147
     20 C         -15.6380    1.5280   19.4648 C.ar    1  UNL1        0.0013
     21 C         -16.5210    0.5881   20.2310 C.ar    1  UNL1        0.0017
     22 C         -16.3364   -0.8941   20.0940 C.ar    1  UNL1        0.0013
     23 C         -15.2686   -1.4365   19.1907 C.ar    1  UNL1        0.0147
     24 C         -17.5887    1.1306   21.1342 C.ar    1  UNL1        0.0226
     25 C         -17.2129    1.9634   22.3238 C.ar    1  UNL1        0.0241
     26 C         -18.2806    2.5059   23.2270 C.ar    1  UNL1        0.1222
     27 N         -19.7241    2.2155   22.9406 N.ar    1  UNL1       -0.1464
     28 N         -20.0999    1.3827   21.7510 N.ar    1  UNL1       -0.1464
     29 C         -19.0322    0.8402   20.8478 C.ar    1  UNL1        0.1221
@<TRIPOS>BOND
     1    10    11   ar
     2    11    12   ar
     3    12    13   ar
     4    13     1    1
     5     1     2    1
     6     2     3    1
     7     3     4    1
     8     4     5    1
     9     5     6   ar
    10     6     7   ar
    11     7    16    1
    12    16    18    1
    13    18    19   ar
    14    19    20   ar
    15    20    21   ar
    16    21    24    1
    17    24    25   ar
    18    25    26   ar
    19    26    27   ar
    20    27    28   ar
    21    28    29   ar
    22    21    22   ar
    23    22    23   ar
    24     7     8   ar
    25     8     9   ar
    26    13    14   ar
    27    14    15   ar
    28    15    10   ar
    29     9     1    1
    30     9     5   ar
    31    23    18   ar
    32    29    24   ar
    33    16    17    1
@<TRIPOS>MOLECULE
*****
 29 33 0 0 0
SMALL
GASTEIGER

@<TRIPOS>ATOM
      1 C          -3.0568    3.5725   23.9529 C.3     1  UNL1        0.0627
      2 C          -4.5352    3.4850   24.1904 C.3     1  UNL1        0.0107
      3 C          -5.4763    3.3726   23.0278 C.3     1  UNL1        0.0060
      4 C          -4.9388    3.3479   21.6276 C.3     1  UNL1        0.0343
      5 C          -3.4604    3.4354   21.3900 C.ar    1  UNL1        0.0237
      6 S          -2.6442    3.4352   20.1315 S.2     1  UNL1       -0.0561
      7 C          -1.1988    3.5474   20.5164 C.ar    1  UNL1        0.1629
      8 N          -1.1216    3.6170   22.0127 N.ar    1  UNL1       -0.2284
      9 C          -2.5194    3.5478   22.5527 C.ar    1  UNL1        0.0666
     10 C          -0.2335    3.9096   27.4409 C.ar    1  UNL1       -0.0000
     11 C          -0.3011    2.6362   26.6510 C.ar    1  UNL1       -0.0003
     12 C          -1.2422    2.5239   25.4883 C.ar    1  UNL1       -0.0039
     13 C          -2.1157    3.6849   25.1156 C.ar    1  UNL1       -0.0169
     14 C          -2.0481    4.9583   25.9055 C.ar    1  UNL1       -0.0039
     15 C          -1.1071    5.0707   27.0681 C.ar    1  UNL1       -0.0003
     16 N          -0.0349    3.5836   19.5708 N.pl3   1  UNL1       -0.2927
     17 H           0.1638    4.4052   19.0659 H       1  UNL1        0.1541
     18 C           0.8262    2.3682   19.3943 C.ar    1  UNL1        0.0497
     19 C           2.0928    2.4559   18.5955 C.ar    1  UNL1        0.0147
     20 C           2.9539    1.2405   18.4191 C.ar    1  UNL1        0.0013
     21 C           2.5485   -0.0627   19.0415 C.ar    1  UNL1        0.0017
     22 C           1.2819   -0.1504   19.8402 C.ar    1  UNL1        0.0013
     23 C           0.4208    1.0651   20.0167 C.ar    1  UNL1        0.0147
     24 C           3.4096   -1.2782   18.8650 C.ar    1  UNL1        0.0226
     25 C           3.1531   -2.5051   19.6890 C.ar    1  UNL1        0.0241
     26 C           4.0142   -3.7205   19.5125 C.ar    1  UNL1        0.1222
     27 N           5.1319   -3.7091   18.5121 N.ar    1  UNL1       -0.1464
     28 N           5.3884   -2.4821   17.6882 N.ar    1  UNL1       -0.1464
     29 C           4.5272   -1.2667   17.8646 C.ar    1  UNL1        0.1221
@<TRIPOS>BOND
     1    10    11   ar
     2    11    12   ar
     3    12    13   ar
     4    13     1    1
     5     1     2    1
     6     2     3    1
     7     3     4    1
     8     4     5    1
     9     5     6   ar
    10     6     7   ar
    11     7    16    1
    12    16    18    1
    13    18    19   ar
    14    19    20   ar
    15    20    21   ar
    16    21    24    1
    17    24    25   ar
    18    25    26   ar
    19    26    27   ar
    20    27    28   ar
    21    28    29   ar
    22    21    22   ar
    23    22    23   ar
    24     7     8   ar
    25     8     9   ar
    26    13    14   ar
    27    14    15   ar
    28    15    10   ar
    29     9     1    1
    30     9     5   ar
    31    23    18   ar
    32    29    24   ar
    33    16    17    1
@<TRIPOS>MOLECULE
*****
 29 33 0 0 0
SMALL
GASTEIGER

@<TRIPOS>ATOM
      1 C          -1.9872    3.2238   26.0259 C.3     1  UNL1        0.0627
      2 C          -3.3512    3.6025   26.5216 C.3     1  UNL1        0.0107
      3 C          -4.4101    4.0314   25.5496 C.3     1  UNL1        0.0060
      4 C          -4.1048    4.0815   24.0818 C.3     1  UNL1        0.0343
      5 C          -2.7408    3.7027   23.5861 C.ar    1  UNL1        0.0237
      6 S          -2.1513    3.6548   22.2076 S.2     1  UNL1       -0.0561
      7 C          -0.7282    3.1963   22.3276 C.ar    1  UNL1        0.1629
      8 N          -0.4380    2.9609   23.7803 N.ar    1  UNL1       -0.2284
      9 C          -1.6819    3.2739   24.5581 C.ar    1  UNL1        0.0666
     10 C           1.1896    1.9371   28.9419 C.ar    1  UNL1       -0.0000
     11 C           0.9165    3.3962   28.7258 C.ar    1  UNL1       -0.0003
     12 C          -0.1424    3.8250   27.7537 C.ar    1  UNL1       -0.0039
     13 C          -0.9282    2.7949   26.9979 C.ar    1  UNL1       -0.0169
     14 C          -0.6551    1.3359   27.2141 C.ar    1  UNL1       -0.0039
     15 C           0.4037    0.9070   28.1860 C.ar    1  UNL1       -0.0003
     16 N           0.2356    3.0065   21.1940 N.pl3   1  UNL1       -0.2927
     17 H           0.3565    3.7196   20.5260 H       1  UNL1        0.1541
     18 C           1.0152    1.7303   21.0780 C.ar    1  UNL1        0.0497
     19 C           2.3605    1.6112   21.7306 C.ar    1  UNL1        0.0147
     20 C           3.1401    0.3350   21.6146 C.ar    1  UNL1        0.0013
     21 C           2.5743   -0.8223   20.8459 C.ar    1  UNL1        0.0017
     22 C           1.2290   -0.7032   20.1933 C.ar    1  UNL1        0.0013
     23 C           0.4494    0.5731   20.3093 C.ar    1  UNL1        0.0147
     24 C           3.3539   -2.0985   20.7299 C.ar    1  UNL1        0.0226
     25 C           3.3413   -2.8708   19.4441 C.ar    1  UNL1        0.0241
     26 C           4.1208   -4.1470   19.3281 C.ar    1  UNL1        0.1222
     27 N           4.9130   -4.6510   20.4979 N.ar    1  UNL1       -0.1464
     28 N           4.9256   -3.8787   21.7838 N.ar    1  UNL1       -0.1464
     29 C           4.1460   -2.6024   21.8997 C.ar    1  UNL1        0.1221
@<TRIPOS>BOND
     1    10    11   ar
     2    11    12   ar
     3    12    13   ar
     4    13     1    1
     5     1     2    1
     6     2     3    1
     7     3     4    1
     8     4     5    1
     9     5     6   ar
    10     6     7   ar
    11     7    16    1
    12    16    18    1
    13    18    19   ar
    14    19    20   ar
    15    20    21   ar
    16    21    24    1
    17    24    25   ar
    18    25    26   ar
    19    26    27   ar
    20    27    28   ar
    21    28    29   ar
    22    21    22   ar
    23    22    23   ar
    24     7     8   ar
    25     8     9   ar
    26    13    14   ar
    27    14    15   ar
    28    15    10   ar
    29     9     1    1
    30     9     5   ar
    31    23    18   ar
    32    29    24   ar
    33    16    17    1
@<TRIPOS>MOLECULE
*****
 29 33 0 0 0
SMALL
GASTEIGER

@<TRIPOS>ATOM
      1 C           3.6272   -1.6683   21.4961 C.3     1  UNL1        0.0627
      2 C           4.3764   -2.9253   21.1665 C.3     1  UNL1        0.0107
      3 C           5.0801   -3.6852   22.2515 C.3     1  UNL1        0.0060
      4 C           5.0348   -3.1881   23.6660 C.3     1  UNL1        0.0343
      5 C           4.2857   -1.9311   23.9956 C.ar    1  UNL1        0.0237
      6 S           4.0669   -1.2027   25.2884 S.2     1  UNL1       -0.0561
      7 C           3.2279    0.0074   25.0026 C.ar    1  UNL1        0.1629
      8 N           2.9281    0.0269   23.5330 N.ar    1  UNL1       -0.2284
      9 C           3.5819   -1.1712   22.9106 C.ar    1  UNL1        0.0666
     10 C           1.5159    0.6117   18.2412 C.ar    1  UNL1       -0.0000
     11 C           0.7758    0.2250   19.4873 C.ar    1  UNL1       -0.0003
     12 C           1.4796   -0.5350   20.5723 C.ar    1  UNL1       -0.0039
     13 C           2.9234   -0.9083   20.4111 C.ar    1  UNL1       -0.0169
     14 C           3.6635   -0.5216   19.1650 C.ar    1  UNL1       -0.0039
     15 C           2.9598    0.2384   18.0801 C.ar    1  UNL1       -0.0003
     16 N           2.7692    1.0202   26.0095 N.pl3   1  UNL1       -0.2927
     17 H           3.3721    1.3005   26.7356 H       1  UNL1        0.1541
     18 C           1.3918    1.6058   25.9103 C.ar    1  UNL1        0.0497
     19 C           0.3796    1.3278   26.9818 C.ar    1  UNL1        0.0147
     20 C          -0.9977    1.9135   26.8826 C.ar    1  UNL1        0.0013
     21 C          -1.3629    2.7773   25.7118 C.ar    1  UNL1        0.0017
     22 C          -0.3507    3.0553   24.6403 C.ar    1  UNL1        0.0013
     23 C           1.0267    2.4696   24.7396 C.ar    1  UNL1        0.0147
     24 C          -2.7402    3.3629   25.6126 C.ar    1  UNL1        0.0226
     25 C          -3.3749    3.5634   24.2684 C.ar    1  UNL1        0.0241
     26 C          -4.7523    4.1491   24.1692 C.ar    1  UNL1        0.1222
     27 N          -5.4950    4.5343   25.4142 N.ar    1  UNL1       -0.1464
     28 N          -4.8602    4.3339   26.7584 N.ar    1  UNL1       -0.1464
     29 C          -3.4828    3.7482   26.8576 C.ar    1  UNL1        0.1221
@<TRIPOS>BOND
     1    10    11   ar
     2    11    12   ar
     3    12    13   ar
     4    13     1    1
     5     1     2    1
     6     2     3    1
     7     3     4    1
     8     4     5    1
     9     5     6   ar
    10     6     7   ar
    11     7    16    1
    12    16    18    1
    13    18    19   ar
    14    19    20   ar
    15    20    21   ar
    16    21    24    1
    17    24    25   ar
    18    25    26   ar
    19    26    27   ar
    20    27    28   ar
    21    28    29   ar
    22    21    22   ar
    23    22    23   ar
    24     7     8   ar
    25     8     9   ar
    26    13    14   ar
    27    14    15   ar
    28    15    10   ar
    29     9     1    1
    30     9     5   ar
    31    23    18   ar
    32    29    24   ar
    33    16    17    1
@<TRIPOS>MOLECULE
*****
 29 33 0 0 0
SMALL
GASTEIGER

@<TRIPOS>ATOM
      1 C          -5.1541    4.1150   20.7904 C.3     1  UNL1        0.0627
      2 C          -6.4201    3.9622   20.0006 C.3     1  UNL1        0.0107
      3 C          -6.3593    3.7946   18.5113 C.3     1  UNL1        0.0060
      4 C          -5.0325    3.7797   17.8117 C.3     1  UNL1        0.0343
      5 C          -3.7665    3.9324   18.6015 C.ar    1  UNL1        0.0237
      6 S          -2.3240    3.9563   18.1909 S.2     1  UNL1       -0.0561
      7 C          -1.4933    4.1387   19.4264 C.ar    1  UNL1        0.1629
      8 N          -2.4223    4.2276   20.6007 N.ar    1  UNL1       -0.2284
      9 C          -3.8273    4.1001   20.0908 C.ar    1  UNL1        0.0666
     10 C          -5.3362    4.6179   25.2586 C.ar    1  UNL1       -0.0000
     11 C          -5.7705    5.7374   24.3595 C.ar    1  UNL1       -0.0003
     12 C          -5.7098    5.5697   22.8701 C.ar    1  UNL1       -0.0039
     13 C          -5.2148    4.2826   22.2798 C.ar    1  UNL1       -0.0169
     14 C          -4.7806    3.1632   23.1789 C.ar    1  UNL1       -0.0039
     15 C          -4.8413    3.3308   24.6682 C.ar    1  UNL1       -0.0003
     16 N           0.0038    4.2183   19.4785 N.pl3   1  UNL1       -0.2927
     17 H           0.4457    5.0848   19.6306 H       1  UNL1        0.1541
     18 C           0.8275    2.9777   19.2987 C.ar    1  UNL1        0.0497
     19 C           0.3043    1.6546   19.7739 C.ar    1  UNL1        0.0147
     20 C           1.1280    0.4140   19.5942 C.ar    1  UNL1        0.0013
     21 C           2.4750    0.4964   18.9392 C.ar    1  UNL1        0.0017
     22 C           2.9982    1.8195   18.4640 C.ar    1  UNL1        0.0013
     23 C           2.1744    3.0601   18.6438 C.ar    1  UNL1        0.0147
     24 C           3.2987   -0.7442   18.7595 C.ar    1  UNL1        0.0226
     25 C           3.1064   -1.9122   19.6808 C.ar    1  UNL1        0.0241
     26 C           3.9301   -3.1528   19.5011 C.ar    1  UNL1        0.1222
     27 N           4.9461   -3.2255   18.3999 N.ar    1  UNL1       -0.1464
     28 N           5.1384   -2.0575   17.4786 N.ar    1  UNL1       -0.1464
     29 C           4.3146   -0.8168   17.6584 C.ar    1  UNL1        0.1221
@<TRIPOS>BOND
     1    10    11   ar
     2    11    12   ar
     3    12    13   ar
     4    13     1    1
     5     1     2    1
     6     2     3    1
     7     3     4    1
     8     4     5    1
     9     5     6   ar
    10     6     7   ar
    11     7    16    1
    12    16    18    1
    13    18    19   ar
    14    19    20   ar
    15    20    21   ar
    16    21    24    1
    17    24    25   ar
    18    25    26   ar
    19    26    27   ar
    20    27    28   ar
    21    28    29   ar
    22    21    22   ar
    23    22    23   ar
    24     7     8   ar
    25     8     9   ar
    26    13    14   ar
    27    14    15   ar
    28    15    10   ar
    29     9     1    1
    30     9     5   ar
    31    23    18   ar
    32    29    24   ar
    33    16    17    1
@<TRIPOS>MOLECULE
*****
 29 33 0 0 0
SMALL
GASTEIGER

@<TRIPOS>ATOM
      1 C           0.7694    2.8496   19.7330 C.3     1  UNL1        0.0627
      2 C           1.6090    3.8529   18.9993 C.3     1  UNL1        0.0107
      3 C           0.9862    5.1137   18.4773 C.3     1  UNL1        0.0060
      4 C          -0.4763    5.3711   18.6891 C.3     1  UNL1        0.0343
      5 C          -1.3159    4.3679   19.4229 C.ar    1  UNL1        0.0237
      6 S          -2.7724    4.3479   19.7808 S.2     1  UNL1       -0.0561
      7 C          -3.0498    3.0748   20.5240 C.ar    1  UNL1        0.1629
      8 N          -1.7647    2.3079   20.6254 N.ar    1  UNL1       -0.2284
      9 C          -0.6931    3.1071   19.9449 C.ar    1  UNL1        0.0666
     10 C           2.6380   -0.9328   21.2991 C.ar    1  UNL1       -0.0000
     11 C           2.2818   -0.8178   19.8465 C.ar    1  UNL1       -0.0003
     12 C           1.6589    0.4430   19.3245 C.ar    1  UNL1       -0.0039
     13 C           1.3923    1.5888   20.2551 C.ar    1  UNL1       -0.0169
     14 C           1.7484    1.4739   21.7076 C.ar    1  UNL1       -0.0039
     15 C           2.3712    0.2131   22.2297 C.ar    1  UNL1       -0.0003
     16 N          -4.3790    2.6443   21.0700 N.pl3   1  UNL1       -0.2927
     17 H          -4.8317    1.8537   20.6967 H       1  UNL1        0.1541
     18 C          -5.0183    3.4181   22.1845 C.ar    1  UNL1        0.0497
     19 C          -6.0229    4.4881   21.8748 C.ar    1  UNL1        0.0147
     20 C          -6.6622    5.2620   22.9894 C.ar    1  UNL1        0.0013
     21 C          -6.2969    4.9659   24.4138 C.ar    1  UNL1        0.0017
     22 C          -5.2923    3.8960   24.7236 C.ar    1  UNL1        0.0013
     23 C          -4.6530    3.1221   23.6089 C.ar    1  UNL1        0.0147
     24 C          -6.9362    5.7398   25.5284 C.ar    1  UNL1        0.0226
     25 C          -6.2740    5.8043   26.8728 C.ar    1  UNL1        0.0241
     26 C          -6.9133    6.5782   27.9874 C.ar    1  UNL1        0.1222
     27 N          -8.2148    7.2876   27.7576 N.ar    1  UNL1       -0.1464
     28 N          -8.8770    7.2231   26.4132 N.ar    1  UNL1       -0.1464
     29 C          -8.2376    6.4492   25.2986 C.ar    1  UNL1        0.1221
@<TRIPOS>BOND
     1    10    11   ar
     2    11    12   ar
     3    12    13   ar
     4    13     1    1
     5     1     2    1
     6     2     3    1
     7     3     4    1
     8     4     5    1
     9     5     6   ar
    10     6     7   ar
    11     7    16    1
    12    16    18    1
    13    18    19   ar
    14    19    20   ar
    15    20    21   ar
    16    21    24    1
    17    24    25   ar
    18    25    26   ar
    19    26    27   ar
    20    27    28   ar
    21    28    29   ar
    22    21    22   ar
    23    22    23   ar
    24     7     8   ar
    25     8     9   ar
    26    13    14   ar
    27    14    15   ar
    28    15    10   ar
    29     9     1    1
    30     9     5   ar
    31    23    18   ar
    32    29    24   ar
    33    16    17    1
@<TRIPOS>MOLECULE
*****
 29 33 0 0 0
SMALL
GASTEIGER

@<TRIPOS>ATOM
      1 C           3.7072   -2.0971   19.8227 C.3     1  UNL1        0.0627
      2 C           3.7494   -3.2469   18.8603 C.3     1  UNL1        0.0107
      3 C           4.7411   -4.3547   19.0584 C.3     1  UNL1        0.0060
      4 C           5.6906   -4.3128   20.2189 C.3     1  UNL1        0.0343
      5 C           5.6484   -3.1630   21.1813 C.ar    1  UNL1        0.0237
      6 S           6.4530   -2.8509   22.4081 S.2     1  UNL1       -0.0561
      7 C           5.9586   -1.5502   22.9683 C.ar    1  UNL1        0.1629
      8 N           4.8484   -1.0584   22.0876 N.ar    1  UNL1       -0.2284
      9 C           4.6567   -2.0552   20.9831 C.ar    1  UNL1        0.0666
     10 C           0.7322    1.2265   19.2283 C.ar    1  UNL1       -0.0000
     11 C           0.4847    0.1758   20.2698 C.ar    1  UNL1       -0.0003
     12 C           1.4764   -0.9321   20.4679 C.ar    1  UNL1       -0.0039
     13 C           2.7155   -0.9892   19.6246 C.ar    1  UNL1       -0.0169
     14 C           2.9630    0.0615   18.5831 C.ar    1  UNL1       -0.0039
     15 C           1.9714    1.1694   18.3849 C.ar    1  UNL1       -0.0003
     16 N           6.4824   -0.8621   24.1940 N.pl3   1  UNL1       -0.2927
     17 H           6.8008    0.0678   24.1383 H       1  UNL1        0.1541
     18 C           6.5212   -1.5909   25.5044 C.ar    1  UNL1        0.0497
     19 C           5.3253   -1.5704   26.4097 C.ar    1  UNL1        0.0147
     20 C           5.3641   -2.2992   27.7201 C.ar    1  UNL1        0.0013
     21 C           6.5988   -3.0486   28.1254 C.ar    1  UNL1        0.0017
     22 C           7.7946   -3.0691   27.2201 C.ar    1  UNL1        0.0013
     23 C           7.7558   -2.3402   25.9096 C.ar    1  UNL1        0.0147
     24 C           6.6375   -3.7773   29.4358 C.ar    1  UNL1        0.0226
     25 C           6.4923   -3.0177   30.7211 C.ar    1  UNL1        0.0241
     26 C           6.5311   -3.7465   32.0315 C.ar    1  UNL1        0.1222
     27 N           6.7151   -5.2350   32.0567 N.ar    1  UNL1       -0.1464
     28 N           6.8603   -5.9947   30.7715 N.ar    1  UNL1       -0.1464
     29 C           6.8215   -5.2658   29.4610 C.ar    1  UNL1        0.1221
@<TRIPOS>BOND
     1    10    11   ar
     2    11    12   ar
     3    12    13   ar
     4    13     1    1
     5     1     2    1
     6     2     3    1
     7     3     4    1
     8     4     5    1
     9     5     6   ar
    10     6     7   ar
    11     7    16    1
    12    16    18    1
    13    18    19   ar
    14    19    20   ar
    15    20    21   ar
    16    21    24    1
    17    24    25   ar
    18    25    26   ar
    19    26    27   ar
    20    27    28   ar
    21    28    29   ar
    22    21    22   ar
    23    22    23   ar
    24     7     8   ar
    25     8     9   ar
    26    13    14   ar
    27    14    15   ar
    28    15    10   ar
    29     9     1    1
    30     9     5   ar
    31    23    18   ar
    32    29    24   ar
    33    16    17    1
@<TRIPOS>MOLECULE
*****
 29 33 0 0 0
SMALL
GASTEIGER

@<TRIPOS>ATOM
      1 C           3.2126   -1.9364   19.9900 C.3     1  UNL1        0.0627
      2 C           3.2329   -3.1117   19.0583 C.3     1  UNL1        0.0107
      3 C           4.1108   -4.2906   19.3572 C.3     1  UNL1        0.0060
      4 C           4.9684   -4.2941   20.5878 C.3     1  UNL1        0.0343
      5 C           4.9481   -3.1188   21.5195 C.ar    1  UNL1        0.0237
      6 S           5.6792   -2.8397   22.7992 S.2     1  UNL1       -0.0561
      7 C           5.2531   -1.4882   23.2912 C.ar    1  UNL1        0.1629
      8 N           4.2586   -0.9321   22.3156 N.ar    1  UNL1       -0.2284
      9 C           4.0702   -1.9399   21.2206 C.ar    1  UNL1        0.0666
     10 C           0.5787    1.6005   19.0933 C.ar    1  UNL1       -0.0000
     11 C           0.2000    0.6402   20.1816 C.ar    1  UNL1       -0.0003
     12 C           1.0780   -0.5388   20.4805 C.ar    1  UNL1       -0.0039
     13 C           2.3346   -0.7574   19.6911 C.ar    1  UNL1       -0.0169
     14 C           2.7133    0.2030   18.6028 C.ar    1  UNL1       -0.0039
     15 C           1.8354    1.3819   18.3039 C.ar    1  UNL1       -0.0003
     16 N           5.7365   -0.8117   24.5397 N.pl3   1  UNL1       -0.2927
     17 H           6.6954   -0.6221   24.6570 H       1  UNL1        0.1541
     18 C           4.7590   -0.4240   25.6093 C.ar    1  UNL1        0.0497
     19 C           4.2223   -1.4641   26.5475 C.ar    1  UNL1        0.0147
     20 C           3.2447   -1.0764   27.6171 C.ar    1  UNL1        0.0013
     21 C           2.8039    0.3514   27.7485 C.ar    1  UNL1        0.0017
     22 C           3.3406    1.3914   26.8103 C.ar    1  UNL1        0.0013
     23 C           4.3182    1.0037   25.7407 C.ar    1  UNL1        0.0147
     24 C           1.8263    0.7390   28.8181 C.ar    1  UNL1        0.0226
     25 C           2.2476    1.6673   29.9185 C.ar    1  UNL1        0.0241
     26 C           1.2700    2.0550   30.9881 C.ar    1  UNL1        0.1222
     27 N          -0.1289    1.5143   30.9574 N.ar    1  UNL1       -0.1464
     28 N          -0.5501    0.5860   29.8570 N.ar    1  UNL1       -0.1464
     29 C           0.4275    0.1983   28.7874 C.ar    1  UNL1        0.1221
@<TRIPOS>BOND
     1    10    11   ar
     2    11    12   ar
     3    12    13   ar
     4    13     1    1
     5     1     2    1
     6     2     3    1
     7     3     4    1
     8     4     5    1
     9     5     6   ar
    10     6     7   ar
    11     7    16    1
    12    16    18    1
    13    18    19   ar
    14    19    20   ar
    15    20    21   ar
    16    21    24    1
    17    24    25   ar
    18    25    26   ar
    19    26    27   ar
    20    27    28   ar
    21    28    29   ar
    22    21    22   ar
    23    22    23   ar
    24     7     8   ar
    25     8     9   ar
    26    13    14   ar
    27    14    15   ar
    28    15    10   ar
    29     9     1    1
    30     9     5   ar
    31    23    18   ar
    32    29    24   ar
    33    16    17    1
@<TRIPOS>MOLECULE
*****
 29 33 0 0 0
SMALL
GASTEIGER

@<TRIPOS>ATOM
      1 C         -14.8500   -8.1136   18.2844 C.3     1  UNL1        0.0627
      2 C         -15.2161   -9.5620   18.1493 C.3     1  UNL1        0.0107
      3 C         -16.6131  -10.0141   18.4554 C.3     1  UNL1        0.0060
      4 C         -17.6441   -9.0179   18.8966 C.3     1  UNL1        0.0343
      5 C         -17.2780   -7.5696   19.0317 C.ar    1  UNL1        0.0237
      6 S         -18.0748   -6.3670   19.4428 S.2     1  UNL1       -0.0561
      7 C         -17.1702   -5.1716   19.3907 C.ar    1  UNL1        0.1629
      8 N         -15.8143   -5.6354   18.9475 N.ar    1  UNL1       -0.2284
      9 C         -15.8810   -7.1175   18.7256 C.ar    1  UNL1        0.0666
     10 C         -10.6587   -6.7570   17.3660 C.ar    1  UNL1       -0.0000
     11 C         -11.2381   -6.5309   18.7310 C.ar    1  UNL1       -0.0003
     12 C         -12.6352   -6.9831   19.0371 C.ar    1  UNL1       -0.0039
     13 C         -13.4529   -7.6614   17.9783 C.ar    1  UNL1       -0.0169
     14 C         -12.8735   -7.8876   16.6133 C.ar    1  UNL1       -0.0039
     15 C         -11.4765   -7.4354   16.3071 C.ar    1  UNL1       -0.0003
     16 N         -17.5541   -3.7602   19.7235 N.pl3   1  UNL1       -0.2927
     17 H         -18.3697   -3.5819   20.2452 H       1  UNL1        0.1541
     18 C         -16.6953   -2.6206   19.2614 C.ar    1  UNL1        0.0497
     19 C         -15.3379   -2.4117   19.8646 C.ar    1  UNL1        0.0147
     20 C         -14.4791   -1.2720   19.4025 C.ar    1  UNL1        0.0013
     21 C         -14.9777   -0.3412   18.3371 C.ar    1  UNL1        0.0017
     22 C         -16.3351   -0.5500   17.7339 C.ar    1  UNL1        0.0013
     23 C         -17.1939   -1.6898   18.1960 C.ar    1  UNL1        0.0147
     24 C         -14.1189    0.7985   17.8750 C.ar    1  UNL1        0.0226
     25 C         -14.7412    2.1261   17.5582 C.ar    1  UNL1        0.0241
     26 C         -13.8824    3.2657   17.0961 C.ar    1  UNL1        0.1222
     27 N         -12.4012    3.0778   16.9507 N.ar    1  UNL1       -0.1464
     28 N         -11.7790    1.7503   17.2675 N.ar    1  UNL1       -0.1464
     29 C         -12.6379    0.6106   17.7296 C.ar    1  UNL1        0.1221
@<TRIPOS>BOND
     1    10    11   ar
     2    11    12   ar
     3    12    13   ar
     4    13     1    1
     5     1     2    1
     6     2     3    1
     7     3     4    1
     8     4     5    1
     9     5     6   ar
    10     6     7   ar
    11     7    16    1
    12    16    18    1
    13    18    19   ar
    14    19    20   ar
    15    20    21   ar
    16    21    24    1
    17    24    25   ar
    18    25    26   ar
    19    26    27   ar
    20    27    28   ar
    21    28    29   ar
    22    21    22   ar
    23    22    23   ar
    24     7     8   ar
    25     8     9   ar
    26    13    14   ar
    27    14    15   ar
    28    15    10   ar
    29     9     1    1
    30     9     5   ar
    31    23    18   ar
    32    29    24   ar
    33    16    17    1
