@<TRIPOS>MOLECULE
*****
 18 20 0 0 0
SMALL
GASTEIGER

@<TRIPOS>ATOM
      1 C         -10.1394  -17.4195   22.6989 C.ar    1  UNL1        0.1447
      2 C          -9.9800  -18.3544   21.5368 C.ar    1  UNL1        0.0749
      3 C         -10.9794  -19.1115   20.7133 C.ar    1  UNL1        0.0468
      4 C         -10.2284  -19.8937   19.6768 C.ar    1  UNL1        0.1799
      5 O          -8.7650  -19.6200   19.8597 O.2     1  UNL1       -0.4471
      6 C          -8.6114  -18.6686   21.0092 C.ar    1  UNL1        0.1851
      7 C          -7.4023  -18.0479   21.6437 C.ar    1  UNL1        0.2075
      8 C          -7.5617  -17.1130   22.8058 C.ar    1  UNL1        0.1883
      9 O          -6.3524  -16.4923   23.4403 O.2     1  UNL1       -0.4177
     10 C          -6.5118  -15.5573   24.6024 C.ar    1  UNL1        0.3460
     11 O          -5.3027  -14.9366   25.2369 O.2     1  UNL1       -0.2445
     12 C          -7.8804  -15.2431   25.1301 C.ar    1  UNL1        0.0825
     13 C          -9.0895  -15.8638   24.4955 C.ar    1  UNL1        0.0128
     14 C          -8.9302  -16.7988   23.3334 C.ar    1  UNL1        0.0721
     15 C         -12.3774  -16.1131   22.5125 C.3     1  UNL1        0.2525
     16 O         -11.5080  -17.1052   23.2265 O.3     1  UNL1       -0.4712
     17 O          -6.0337  -18.3621   21.1161 O.3     1  UNL1       -0.4654
     18 C          -5.3147  -19.5933   21.5821 C.3     1  UNL1        0.2528
@<TRIPOS>BOND
     1    15    16    1
     2    16     1    1
     3     1     2   ar
     4     2     3   ar
     5     3     4   ar
     6     4     5   ar
     7     5     6   ar
     8     6     7   ar
     9     7    17    1
    10    17    18    1
    11     7     8   ar
    12     8     9   ar
    13     9    10   ar
    14    10    11    2
    15    10    12   ar
    16    12    13   ar
    17    13    14   ar
    18    14     1   ar
    19     6     2   ar
    20    14     8   ar
@<TRIPOS>MOLECULE
*****
 18 20 0 0 0
SMALL
GASTEIGER

@<TRIPOS>ATOM
      1 C          -5.8555  -16.3547   23.7044 C.ar    1  UNL1        0.1447
      2 C          -7.3274  -16.5598   23.5005 C.ar    1  UNL1        0.0749
      3 C          -8.5227  -15.7789   23.9601 C.ar    1  UNL1        0.0468
      4 C          -9.7521  -16.4688   23.4476 C.ar    1  UNL1        0.1799
      5 O          -9.3166  -17.6761   22.6713 O.2     1  UNL1       -0.4471
      6 C          -7.8180  -17.7324   22.7040 C.ar    1  UNL1        0.1851
      7 C          -6.8367  -18.6998   22.1114 C.ar    1  UNL1        0.2075
      8 C          -5.3649  -18.4947   22.3153 C.ar    1  UNL1        0.1883
      9 O          -4.3836  -19.4622   21.7226 O.2     1  UNL1       -0.4177
     10 C          -2.9118  -19.2571   21.9266 C.ar    1  UNL1        0.3460
     11 O          -1.9306  -20.2246   21.3339 O.2     1  UNL1       -0.2445
     12 C          -2.4211  -18.0846   22.7231 C.ar    1  UNL1        0.0825
     13 C          -3.4024  -17.1171   23.3157 C.ar    1  UNL1        0.0128
     14 C          -4.8743  -17.3222   23.1118 C.ar    1  UNL1        0.0721
     15 C          -5.4065  -15.2236   25.9998 C.3     1  UNL1        0.2525
     16 O          -5.3649  -15.1822   24.5010 O.3     1  UNL1       -0.4712
     17 O          -7.3273  -19.8724   21.3148 O.3     1  UNL1       -0.4654
     18 C          -7.7503  -19.6855   19.8879 C.3     1  UNL1        0.2528
@<TRIPOS>BOND
     1    15    16    1
     2    16     1    1
     3     1     2   ar
     4     2     3   ar
     5     3     4   ar
     6     4     5   ar
     7     5     6   ar
     8     6     7   ar
     9     7    17    1
    10    17    18    1
    11     7     8   ar
    12     8     9   ar
    13     9    10   ar
    14    10    11    2
    15    10    12   ar
    16    12    13   ar
    17    13    14   ar
    18    14     1   ar
    19     6     2   ar
    20    14     8   ar
@<TRIPOS>MOLECULE
*****
 18 20 0 0 0
SMALL
GASTEIGER

@<TRIPOS>ATOM
      1 C         -10.0956  -17.2536   22.8028 C.ar    1  UNL1        0.1447
      2 C          -8.9695  -16.6687   23.6027 C.ar    1  UNL1        0.0749
      3 C          -8.9523  -15.7815   24.8120 C.ar    1  UNL1        0.0468
      4 C          -7.5206  -15.5187   25.1738 C.ar    1  UNL1        0.1799
      5 O          -6.6528  -16.2434   24.1880 O.2     1  UNL1       -0.4471
      6 C          -7.5483  -16.9542   23.2170 C.ar    1  UNL1        0.1851
      7 C          -7.2532  -17.8246   22.0315 C.ar    1  UNL1        0.2075
      8 C          -8.3794  -18.4094   21.2317 C.ar    1  UNL1        0.1883
      9 O          -8.0842  -19.2797   20.0461 O.2     1  UNL1       -0.4177
     10 C          -9.2104  -19.8645   19.2462 C.ar    1  UNL1        0.3460
     11 O          -8.9153  -20.7349   18.0607 O.2     1  UNL1       -0.2445
     12 C         -10.6316  -19.5791   19.6318 C.ar    1  UNL1        0.0825
     13 C         -10.9267  -18.7088   20.8174 C.ar    1  UNL1        0.0128
     14 C          -9.8005  -18.1239   21.6173 C.ar    1  UNL1        0.0721
     15 C         -12.2596  -15.8413   22.5339 C.3     1  UNL1        0.2525
     16 O         -11.5169  -16.9681   23.1884 O.3     1  UNL1       -0.4712
     17 O          -5.8321  -18.1101   21.6458 O.3     1  UNL1       -0.4654
     18 C          -5.0648  -19.1873   22.3536 C.3     1  UNL1        0.2528
@<TRIPOS>BOND
     1    15    16    1
     2    16     1    1
     3     1     2   ar
     4     2     3   ar
     5     3     4   ar
     6     4     5   ar
     7     5     6   ar
     8     6     7   ar
     9     7    17    1
    10    17    18    1
    11     7     8   ar
    12     8     9   ar
    13     9    10   ar
    14    10    11    2
    15    10    12   ar
    16    12    13   ar
    17    13    14   ar
    18    14     1   ar
    19     6     2   ar
    20    14     8   ar
@<TRIPOS>MOLECULE
*****
 18 20 0 0 0
SMALL
GASTEIGER

@<TRIPOS>ATOM
      1 C         -10.1436  -17.4905   23.9045 C.ar    1  UNL1        0.1447
      2 C         -10.5863  -17.3781   22.4757 C.ar    1  UNL1        0.0749
      3 C         -11.7086  -18.0244   21.7189 C.ar    1  UNL1        0.0468
      4 C         -11.6610  -17.5268   20.3047 C.ar    1  UNL1        0.1799
      5 O         -10.5093  -16.5730   20.1874 O.2     1  UNL1       -0.4471
      6 C          -9.8451  -16.4810   21.5292 C.ar    1  UNL1        0.1851
      7 C          -8.6611  -15.6964   22.0114 C.ar    1  UNL1        0.2075
      8 C          -8.2184  -15.8088   23.4402 C.ar    1  UNL1        0.1883
      9 O          -7.0344  -15.0241   23.9224 O.2     1  UNL1       -0.4177
     10 C          -6.5917  -15.1365   25.3511 C.ar    1  UNL1        0.3460
     11 O          -5.4078  -14.3518   25.8334 O.2     1  UNL1       -0.2445
     12 C          -7.3329  -16.0335   26.2977 C.ar    1  UNL1        0.0825
     13 C          -8.5169  -16.8181   25.8155 C.ar    1  UNL1        0.0128
     14 C          -8.9596  -16.7058   24.3867 C.ar    1  UNL1        0.0721
     15 C         -10.5520  -19.8487   24.9153 C.3     1  UNL1        0.2525
     16 O         -10.8848  -18.3875   24.8511 O.3     1  UNL1       -0.4712
     17 O          -7.9199  -14.7993   21.0649 O.3     1  UNL1       -0.4654
     18 C          -8.6703  -13.7981   20.2376 C.3     1  UNL1        0.2528
@<TRIPOS>BOND
     1    15    16    1
     2    16     1    1
     3     1     2   ar
     4     2     3   ar
     5     3     4   ar
     6     4     5   ar
     7     5     6   ar
     8     6     7   ar
     9     7    17    1
    10    17    18    1
    11     7     8   ar
    12     8     9   ar
    13     9    10   ar
    14    10    11    2
    15    10    12   ar
    16    12    13   ar
    17    13    14   ar
    18    14     1   ar
    19     6     2   ar
    20    14     8   ar
@<TRIPOS>MOLECULE
*****
 18 20 0 0 0
SMALL
GASTEIGER

@<TRIPOS>ATOM
      1 C          -9.2516  -19.0194   20.6726 C.ar    1  UNL1        0.1447
      2 C         -10.2716  -17.9606   20.9700 C.ar    1  UNL1        0.0749
      3 C         -11.7026  -17.7993   20.5502 C.ar    1  UNL1        0.0468
      4 C         -12.2247  -16.5326   21.1606 C.ar    1  UNL1        0.1799
      5 O         -11.1165  -15.9110   21.9578 O.2     1  UNL1       -0.4471
      6 C          -9.9094  -16.7936   21.8400 C.ar    1  UNL1        0.1851
      7 C          -8.5272  -16.6853   22.4125 C.ar    1  UNL1        0.2075
      8 C          -7.5072  -17.7441   22.1150 C.ar    1  UNL1        0.1883
      9 O          -6.1249  -17.6358   22.6875 O.2     1  UNL1       -0.4177
     10 C          -5.1049  -18.6946   22.3901 C.ar    1  UNL1        0.3460
     11 O          -3.7227  -18.5864   22.9625 O.2     1  UNL1       -0.2445
     12 C          -5.4670  -19.8617   21.5201 C.ar    1  UNL1        0.0825
     13 C          -6.8493  -19.9700   20.9476 C.ar    1  UNL1        0.0128
     14 C          -7.8693  -18.9111   21.2451 C.ar    1  UNL1        0.0721
     15 C          -9.1151  -20.2517   18.3894 C.3     1  UNL1        0.2525
     16 O          -9.6137  -20.1865   19.8026 O.3     1  UNL1       -0.4712
     17 O          -8.1649  -15.5183   23.2824 O.3     1  UNL1       -0.4654
     18 C          -8.5243  -15.5283   24.7387 C.3     1  UNL1        0.2528
@<TRIPOS>BOND
     1    15    16    1
     2    16     1    1
     3     1     2   ar
     4     2     3   ar
     5     3     4   ar
     6     4     5   ar
     7     5     6   ar
     8     6     7   ar
     9     7    17    1
    10    17    18    1
    11     7     8   ar
    12     8     9   ar
    13     9    10   ar
    14    10    11    2
    15    10    12   ar
    16    12    13   ar
    17    13    14   ar
    18    14     1   ar
    19     6     2   ar
    20    14     8   ar
@<TRIPOS>MOLECULE
*****
 18 20 0 0 0
SMALL
GASTEIGER

@<TRIPOS>ATOM
      1 C          -6.5600  -19.3671   21.3126 C.ar    1  UNL1        0.1447
      2 C          -5.6693  -18.6148   22.2564 C.ar    1  UNL1        0.0749
      3 C          -4.2579  -18.8497   22.7067 C.ar    1  UNL1        0.0468
      4 C          -3.8905  -17.7584   23.6680 C.ar    1  UNL1        0.1799
      5 O          -5.0747  -16.8491   23.8117 O.2     1  UNL1       -0.4471
      6 C          -6.1741  -17.3784   22.9393 C.ar    1  UNL1        0.1851
      7 C          -7.5697  -16.8943   22.6785 C.ar    1  UNL1        0.2075
      8 C          -8.4604  -17.6466   21.7348 C.ar    1  UNL1        0.1883
      9 O          -9.8560  -17.1624   21.4740 O.2     1  UNL1       -0.4177
     10 C         -10.7467  -17.9147   20.5302 C.ar    1  UNL1        0.3460
     11 O         -12.1423  -17.4305   20.2694 O.2     1  UNL1       -0.2445
     12 C         -10.2419  -19.1511   19.8472 C.ar    1  UNL1        0.0825
     13 C          -8.8464  -19.6352   20.1080 C.ar    1  UNL1        0.0128
     14 C          -7.9556  -18.8829   21.0518 C.ar    1  UNL1        0.0721
     15 C          -4.7021  -20.6033   19.9822 C.3     1  UNL1        0.2525
     16 O          -6.0552  -20.6036   20.6296 O.3     1  UNL1       -0.4712
     17 O          -8.0745  -15.6578   23.3614 O.3     1  UNL1       -0.4654
     18 C          -8.6845  -15.7521   24.7285 C.3     1  UNL1        0.2528
@<TRIPOS>BOND
     1    15    16    1
     2    16     1    1
     3     1     2   ar
     4     2     3   ar
     5     3     4   ar
     6     4     5   ar
     7     5     6   ar
     8     6     7   ar
     9     7    17    1
    10    17    18    1
    11     7     8   ar
    12     8     9   ar
    13     9    10   ar
    14    10    11    2
    15    10    12   ar
    16    12    13   ar
    17    13    14   ar
    18    14     1   ar
    19     6     2   ar
    20    14     8   ar
@<TRIPOS>MOLECULE
*****
 18 20 0 0 0
SMALL
GASTEIGER

@<TRIPOS>ATOM
      1 C          -7.9826  -19.0824   21.3644 C.ar    1  UNL1        0.1447
      2 C          -8.5208  -18.0234   22.2803 C.ar    1  UNL1        0.0749
      3 C          -9.9163  -17.5439   22.5496 C.ar    1  UNL1        0.0468
      4 C          -9.8412  -16.4511   23.5744 C.ar    1  UNL1        0.1799
      5 O          -8.3993  -16.2553   23.9385 O.2     1  UNL1       -0.4471
      6 C          -7.5832  -17.2271   23.1387 C.ar    1  UNL1        0.1851
      7 C          -6.1075  -17.4897   23.0812 C.ar    1  UNL1        0.2075
      8 C          -5.5694  -18.5486   22.1653 C.ar    1  UNL1        0.1883
      9 O          -4.0936  -18.8112   22.1078 O.2     1  UNL1       -0.4177
     10 C          -3.5554  -19.8702   21.1919 C.ar    1  UNL1        0.3460
     11 O          -2.0797  -20.1328   21.1343 O.2     1  UNL1       -0.2445
     12 C          -4.4929  -20.6666   20.3334 C.ar    1  UNL1        0.0825
     13 C          -5.9686  -20.4040   20.3910 C.ar    1  UNL1        0.0128
     14 C          -6.5068  -19.3450   21.3069 C.ar    1  UNL1        0.0721
     15 C          -9.5658  -19.2429   19.3107 C.3     1  UNL1        0.2525
     16 O          -8.9201  -19.8788   20.5060 O.3     1  UNL1       -0.4712
     17 O          -5.1700  -16.6933   23.9396 O.3     1  UNL1       -0.4654
     18 C          -5.1132  -15.2006   23.8033 C.3     1  UNL1        0.2528
@<TRIPOS>BOND
     1    15    16    1
     2    16     1    1
     3     1     2   ar
     4     2     3   ar
     5     3     4   ar
     6     4     5   ar
     7     5     6   ar
     8     6     7   ar
     9     7    17    1
    10    17    18    1
    11     7     8   ar
    12     8     9   ar
    13     9    10   ar
    14    10    11    2
    15    10    12   ar
    16    12    13   ar
    17    13    14   ar
    18    14     1   ar
    19     6     2   ar
    20    14     8   ar
@<TRIPOS>MOLECULE
*****
 18 20 0 0 0
SMALL
GASTEIGER

@<TRIPOS>ATOM
      1 C          -5.8623  -16.3786   23.7176 C.ar    1  UNL1        0.1447
      2 C          -4.8073  -17.2655   23.1256 C.ar    1  UNL1        0.0749
      3 C          -3.3089  -17.2078   23.1665 C.ar    1  UNL1        0.0468
      4 C          -2.7788  -18.3743   22.3866 C.ar    1  UNL1        0.1799
      5 O          -3.9495  -19.1529   21.8638 O.2     1  UNL1       -0.4471
      6 C          -5.2032  -18.4676   22.3205 C.ar    1  UNL1        0.1851
      7 C          -6.6541  -18.7829   22.1074 C.ar    1  UNL1        0.2075
      8 C          -7.7091  -17.8960   22.6993 C.ar    1  UNL1        0.1883
      9 O          -9.1600  -18.2113   22.4861 O.2     1  UNL1       -0.4177
     10 C         -10.2151  -17.3245   23.0781 C.ar    1  UNL1        0.3460
     11 O         -11.6660  -17.6398   22.8649 O.2     1  UNL1       -0.2445
     12 C          -9.8192  -16.1223   23.8832 C.ar    1  UNL1        0.0825
     13 C          -8.3683  -15.8071   24.0963 C.ar    1  UNL1        0.0128
     14 C          -7.3132  -16.6940   23.5044 C.ar    1  UNL1        0.0721
     15 C          -5.3351  -15.2822   26.0132 C.3     1  UNL1        0.2525
     16 O          -5.4665  -15.1765   24.5227 O.3     1  UNL1       -0.4712
     17 O          -7.0500  -19.9850   21.3023 O.3     1  UNL1       -0.4654
     18 C          -7.4698  -19.8242   19.8712 C.3     1  UNL1        0.2528
@<TRIPOS>BOND
     1    15    16    1
     2    16     1    1
     3     1     2   ar
     4     2     3   ar
     5     3     4   ar
     6     4     5   ar
     7     5     6   ar
     8     6     7   ar
     9     7    17    1
    10    17    18    1
    11     7     8   ar
    12     8     9   ar
    13     9    10   ar
    14    10    11    2
    15    10    12   ar
    16    12    13   ar
    17    13    14   ar
    18    14     1   ar
    19     6     2   ar
    20    14     8   ar
@<TRIPOS>MOLECULE
*****
 18 20 0 0 0
SMALL
GASTEIGER

@<TRIPOS>ATOM
      1 C         -12.8328   -3.5218   19.4177 C.ar    1  UNL1        0.1447
      2 C         -14.3149   -3.7096   19.5521 C.ar    1  UNL1        0.0749
      3 C         -15.4297   -2.7407   19.8134 C.ar    1  UNL1        0.0468
      4 C         -16.7163   -3.5113   19.8424 C.ar    1  UNL1        0.1799
      5 O         -16.3966   -4.9565   19.5991 O.2     1  UNL1       -0.4471
      6 C         -14.9124   -5.0791   19.4197 C.ar    1  UNL1        0.1851
      7 C         -14.0279   -6.2608   19.1529 C.ar    1  UNL1        0.2075
      8 C         -12.5458   -6.0730   19.0184 C.ar    1  UNL1        0.1883
      9 O         -11.6612   -7.2547   18.7516 O.2     1  UNL1       -0.4177
     10 C         -10.1791   -7.0669   18.6172 C.ar    1  UNL1        0.3460
     11 O          -9.2946   -8.2486   18.3503 O.2     1  UNL1       -0.2445
     12 C          -9.5815   -5.6975   18.7496 C.ar    1  UNL1        0.0825
     13 C         -10.4660   -4.5158   19.0164 C.ar    1  UNL1        0.0128
     14 C         -11.9482   -4.7036   19.1508 C.ar    1  UNL1        0.0721
     15 C         -12.1638   -1.2467   18.3566 C.3     1  UNL1        0.2525
     16 O         -12.2351   -2.1524   19.5501 O.3     1  UNL1       -0.4712
     17 O         -14.6254   -7.6302   19.0204 O.3     1  UNL1       -0.4654
     18 C         -14.9166   -8.1932   17.6609 C.3     1  UNL1        0.2528
@<TRIPOS>BOND
     1    15    16    1
     2    16     1    1
     3     1     2   ar
     4     2     3   ar
     5     3     4   ar
     6     4     5   ar
     7     5     6   ar
     8     6     7   ar
     9     7    17    1
    10    17    18    1
    11     7     8   ar
    12     8     9   ar
    13     9    10   ar
    14    10    11    2
    15    10    12   ar
    16    12    13   ar
    17    13    14   ar
    18    14     1   ar
    19     6     2   ar
    20    14     8   ar
