@<TRIPOS>MOLECULE
*****
 31 34 0 0 0
SMALL
GASTEIGER

@<TRIPOS>ATOM
      1 C         -10.8539  -19.2808   23.0240 C.3     1  UNL1        0.1325
      2 O         -11.3838  -18.9801   20.4984 O.2     1  UNL1       -0.2747
      3 C         -10.4022  -19.2746   21.5937 C.2     1  UNL1        0.2294
      4 N          -8.9688  -19.5628   21.2587 N.am    1  UNL1       -0.2794
      5 C          -8.5169  -19.5567   19.8284 C.3     1  UNL1        0.0934
      6 C          -7.0835  -19.8449   19.4934 C.3     1  UNL1        0.0219
      7 C          -6.1019  -20.1394   20.5887 C.3     1  UNL1        0.0093
      8 C          -6.5537  -20.1456   22.0190 C.3     1  UNL1        0.0219
      9 C          -7.9872  -19.8573   22.3540 C.3     1  UNL1        0.0934
     10 C          -4.6685  -20.4276   20.2537 C.3     1  UNL1        0.0453
     11 C          -3.8152  -19.3630   19.6303 C.ar    1  UNL1        0.0541
     12 C          -2.3377  -19.4480   19.3860 C.ar    1  UNL1        0.1131
     13 N          -1.8990  -18.1640   18.7465 N.ar    1  UNL1       -0.2229
     14 C          -3.1055  -17.2854   18.5956 C.ar    1  UNL1        0.1748
     15 N          -4.2897  -18.0265   19.1418 N.ar    1  UNL1       -0.3382
     16 H          -5.2158  -17.6940   19.1741 H       1  UNL1        0.1672
     17 C         -11.6796  -18.1464   23.5547 C.3     1  UNL1        0.2150
     18 O         -11.2562  -16.7294   23.3043 O.3     1  UNL1       -0.4749
     19 C          -9.8156  -16.3393   23.4549 C.ar    1  UNL1        0.1386
     20 C          -9.1971  -16.2660   24.8194 C.ar    1  UNL1        0.0366
     21 C          -7.7566  -15.8759   24.9698 C.ar    1  UNL1        0.0002
     22 C          -6.9346  -15.5591   23.7558 C.ar    1  UNL1       -0.0059
     23 C          -7.5531  -15.6324   22.3912 C.ar    1  UNL1        0.0002
     24 C          -8.9936  -16.0224   22.2408 C.ar    1  UNL1        0.0366
     25 C          -5.4940  -15.1690   23.9063 C.3     1  UNL1        0.0991
     26 N          -4.4142  -16.0743   23.3923 N.3     1  UNL1       -0.2690
     27 C          -4.4139  -17.5276   23.7639 C.3     1  UNL1        0.0724
     28 C          -3.3340  -18.4329   23.2498 C.3     1  UNL1        0.0174
     29 C          -2.2545  -17.8851   22.3642 C.3     1  UNL1        0.0029
     30 C          -2.2547  -16.4318   21.9926 C.3     1  UNL1        0.0174
     31 C          -3.3346  -15.5265   22.5066 C.3     1  UNL1        0.0724
@<TRIPOS>BOND
     1     2     3    2
     2     3     1    1
     3     1    17    1
     4    17    18    1
     5    18    19    1
     6    19    20   ar
     7    20    21   ar
     8    21    22   ar
     9    22    25    1
    10    25    26    1
    11    26    27    1
    12    27    28    1
    13    28    29    1
    14    29    30    1
    15    30    31    1
    16    22    23   ar
    17    23    24   ar
    18     3     4   am
    19     4     5    1
    20     5     6    1
    21     6     7    1
    22     7    10    1
    23    10    11    1
    24    11    12   ar
    25    12    13   ar
    26    13    14   ar
    27    14    15   ar
    28     7     8    1
    29     8     9    1
    30    24    19   ar
    31     9     4    1
    32    31    26    1
    33    15    11   ar
    34    15    16    1
@<TRIPOS>MOLECULE
*****
 31 34 0 0 0
SMALL
GASTEIGER

@<TRIPOS>ATOM
      1 C         -11.7676  -16.4837   20.7840 C.3     1  UNL1        0.1325
      2 O         -12.5781  -17.1805   23.1520 O.2     1  UNL1       -0.2747
      3 C         -11.4922  -16.6823   22.2450 C.2     1  UNL1        0.2294
      4 N         -10.1309  -16.3828   22.7991 N.am    1  UNL1       -0.2794
      5 C          -9.8554  -16.5814   24.2602 C.3     1  UNL1        0.0934
      6 C          -8.4941  -16.2819   24.8142 C.3     1  UNL1        0.0219
      7 C          -7.4081  -15.7837   23.9073 C.3     1  UNL1        0.0093
      8 C          -7.6835  -15.5851   22.4463 C.3     1  UNL1        0.0219
      9 C          -9.0449  -15.8846   21.8921 C.3     1  UNL1        0.0934
     10 C          -6.0468  -15.4842   24.4613 C.3     1  UNL1        0.0453
     11 C          -4.8266  -16.0572   23.8034 C.ar    1  UNL1        0.0541
     12 C          -4.2775  -17.4372   24.0133 C.ar    1  UNL1        0.1131
     13 N          -3.0528  -17.5836   23.1597 N.ar    1  UNL1       -0.2229
     14 C          -2.8449  -16.2939   22.4223 C.ar    1  UNL1        0.1748
     15 N          -3.9411  -15.3506   22.8202 N.ar    1  UNL1       -0.3382
     16 H          -4.0588  -14.4294   22.4933 H       1  UNL1        0.1672
     17 C         -11.2675  -17.4835   19.7838 C.3     1  UNL1        0.2150
     18 O         -10.9473  -18.8831   20.2181 O.3     1  UNL1       -0.4749
     19 C          -9.5214  -19.2909   20.4430 C.ar    1  UNL1        0.1386
     20 C          -8.6489  -19.6429   19.2748 C.ar    1  UNL1        0.0366
     21 C          -7.2230  -20.0507   19.4997 C.ar    1  UNL1        0.0002
     22 C          -6.6697  -20.1065   20.8929 C.ar    1  UNL1       -0.0059
     23 C          -7.5423  -19.7545   22.0610 C.ar    1  UNL1        0.0002
     24 C          -8.9681  -19.3467   21.8361 C.ar    1  UNL1        0.0366
     25 C          -5.2438  -20.5143   21.1178 C.3     1  UNL1        0.0991
     26 N          -4.1296  -19.7044   20.5241 N.3     1  UNL1       -0.2690
     27 C          -2.7103  -19.9704   20.9302 C.3     1  UNL1        0.0724
     28 C          -1.5960  -19.1604   20.3365 C.3     1  UNL1        0.0174
     29 C          -1.9010  -18.0846   19.3368 C.3     1  UNL1        0.0029
     30 C          -3.3203  -17.8186   18.9307 C.3     1  UNL1        0.0174
     31 C          -4.4346  -18.6285   19.5244 C.3     1  UNL1        0.0724
@<TRIPOS>BOND
     1     2     3    2
     2     3     1    1
     3     1    17    1
     4    17    18    1
     5    18    19    1
     6    19    20   ar
     7    20    21   ar
     8    21    22   ar
     9    22    25    1
    10    25    26    1
    11    26    27    1
    12    27    28    1
    13    28    29    1
    14    29    30    1
    15    30    31    1
    16    22    23   ar
    17    23    24   ar
    18     3     4   am
    19     4     5    1
    20     5     6    1
    21     6     7    1
    22     7    10    1
    23    10    11    1
    24    11    12   ar
    25    12    13   ar
    26    13    14   ar
    27    14    15   ar
    28     7     8    1
    29     8     9    1
    30    24    19   ar
    31     9     4    1
    32    31    26    1
    33    15    11   ar
    34    15    16    1
@<TRIPOS>MOLECULE
*****
 31 34 0 0 0
SMALL
GASTEIGER

@<TRIPOS>ATOM
      1 C         -11.2897  -19.1673   20.3464 C.3     1  UNL1        0.1325
      2 O         -11.2922  -21.0583   22.1279 O.2     1  UNL1       -0.2747
      3 C         -11.0085  -19.6366   21.7430 C.2     1  UNL1        0.2294
      4 N         -10.4436  -18.6841   22.7548 N.am    1  UNL1       -0.2794
      5 C         -10.1623  -19.1534   24.1515 C.3     1  UNL1        0.0934
      6 C          -9.5974  -18.2009   25.1632 C.3     1  UNL1        0.0219
      7 C          -9.3138  -16.7791   24.7783 C.3     1  UNL1        0.0093
      8 C          -9.5949  -16.3099   23.3817 C.3     1  UNL1        0.0219
      9 C         -10.1599  -17.2624   22.3698 C.3     1  UNL1        0.0934
     10 C          -8.7489  -15.8267   25.7900 C.3     1  UNL1        0.0453
     11 C          -7.3080  -15.4168   25.7117 C.ar    1  UNL1        0.0541
     12 C          -6.4644  -15.3927   24.4717 C.ar    1  UNL1        0.1131
     13 N          -5.0929  -14.9201   24.8532 N.ar    1  UNL1       -0.2229
     14 C          -5.0889  -14.6521   26.3291 C.ar    1  UNL1        0.1748
     15 N          -6.4579  -14.9591   26.8596 N.ar    1  UNL1       -0.3382
     16 H          -6.7476  -14.8749   27.7968 H       1  UNL1        0.1672
     17 C         -10.1592  -18.9641   19.3815 C.3     1  UNL1        0.2150
     18 O          -9.1173  -20.0297   19.2118 O.3     1  UNL1       -0.4749
     19 C          -7.7978  -19.9072   19.9147 C.ar    1  UNL1        0.1386
     20 C          -7.5403  -18.7469   20.8298 C.ar    1  UNL1        0.0366
     21 C          -6.2209  -18.6245   21.5326 C.ar    1  UNL1        0.0002
     22 C          -5.1589  -19.6624   21.3204 C.ar    1  UNL1       -0.0059
     23 C          -5.4164  -20.8227   20.4054 C.ar    1  UNL1        0.0002
     24 C          -6.7358  -20.9451   19.7025 C.ar    1  UNL1        0.0366
     25 C          -3.8394  -19.5399   22.0233 C.3     1  UNL1        0.0991
     26 N          -2.7911  -18.6069   21.4935 N.3     1  UNL1       -0.2690
     27 C          -2.6903  -17.2097   22.0300 C.3     1  UNL1        0.0724
     28 C          -1.6420  -16.2768   21.5001 C.3     1  UNL1        0.0174
     29 C          -0.6946  -16.7410   20.4339 C.3     1  UNL1        0.0029
     30 C          -0.7954  -18.1381   19.8975 C.3     1  UNL1        0.0174
     31 C          -1.8436  -19.0711   20.4273 C.3     1  UNL1        0.0724
@<TRIPOS>BOND
     1     2     3    2
     2     3     1    1
     3     1    17    1
     4    17    18    1
     5    18    19    1
     6    19    20   ar
     7    20    21   ar
     8    21    22   ar
     9    22    25    1
    10    25    26    1
    11    26    27    1
    12    27    28    1
    13    28    29    1
    14    29    30    1
    15    30    31    1
    16    22    23   ar
    17    23    24   ar
    18     3     4   am
    19     4     5    1
    20     5     6    1
    21     6     7    1
    22     7    10    1
    23    10    11    1
    24    11    12   ar
    25    12    13   ar
    26    13    14   ar
    27    14    15   ar
    28     7     8    1
    29     8     9    1
    30    24    19   ar
    31     9     4    1
    32    31    26    1
    33    15    11   ar
    34    15    16    1
@<TRIPOS>MOLECULE
*****
 31 34 0 0 0
SMALL
GASTEIGER

@<TRIPOS>ATOM
      1 C         -12.6373  -17.2702   21.1909 C.3     1  UNL1        0.1325
      2 O         -11.8811  -15.6881   19.2739 O.2     1  UNL1       -0.2747
      3 C         -11.6332  -16.3177   20.6127 C.2     1  UNL1        0.2294
      4 N         -10.3813  -15.9947   21.3731 N.am    1  UNL1       -0.2794
      5 C          -9.3772  -15.0420   20.7949 C.3     1  UNL1        0.0934
      6 C          -8.1253  -14.7191   21.5553 C.3     1  UNL1        0.0219
      7 C          -7.8774  -15.3486   22.8941 C.3     1  UNL1        0.0093
      8 C          -8.8814  -16.3012   23.4723 C.3     1  UNL1        0.0219
      9 C         -10.1334  -16.6243   22.7119 C.3     1  UNL1        0.0934
     10 C          -6.6255  -15.0257   23.6545 C.3     1  UNL1        0.0453
     11 C          -6.5748  -15.2344   25.1391 C.ar    1  UNL1        0.0541
     12 C          -5.3908  -15.7208   25.9212 C.ar    1  UNL1        0.1131
     13 N          -5.7835  -15.7804   27.3676 N.ar    1  UNL1       -0.2229
     14 C          -7.2102  -15.3308   27.4796 C.ar    1  UNL1        0.1748
     15 N          -7.6992  -14.9933   26.1023 N.ar    1  UNL1       -0.3382
     16 H          -8.6000  -14.6703   25.8710 H       1  UNL1        0.1672
     17 C         -12.4108  -18.7498   21.0924 C.3     1  UNL1        0.2150
     18 O         -11.4505  -19.4254   22.0259 O.3     1  UNL1       -0.4749
     19 C         -10.0046  -19.5567   21.6486 C.ar    1  UNL1        0.1386
     20 C          -8.9899  -19.9339   22.6868 C.ar    1  UNL1        0.0366
     21 C          -7.5441  -20.0652   22.3096 C.ar    1  UNL1        0.0002
     22 C          -7.1130  -19.8192   20.8941 C.ar    1  UNL1       -0.0059
     23 C          -8.1277  -19.4419   19.8558 C.ar    1  UNL1        0.0002
     24 C          -9.5735  -19.3107   20.2331 C.ar    1  UNL1        0.0366
     25 C          -5.6671  -19.9505   20.5168 C.3     1  UNL1        0.0991
     26 N          -4.6420  -19.0598   21.1537 N.3     1  UNL1       -0.2690
     27 C          -3.3645  -18.7503   20.4310 C.3     1  UNL1        0.0724
     28 C          -2.3393  -17.8595   21.0680 C.3     1  UNL1        0.0174
     29 C          -2.5917  -17.2782   22.4275 C.3     1  UNL1        0.0029
     30 C          -3.8692  -17.5877   23.1501 C.3     1  UNL1        0.0174
     31 C          -4.8943  -18.4784   22.5133 C.3     1  UNL1        0.0724
@<TRIPOS>BOND
     1     2     3    2
     2     3     1    1
     3     1    17    1
     4    17    18    1
     5    18    19    1
     6    19    20   ar
     7    20    21   ar
     8    21    22   ar
     9    22    25    1
    10    25    26    1
    11    26    27    1
    12    27    28    1
    13    28    29    1
    14    29    30    1
    15    30    31    1
    16    22    23   ar
    17    23    24   ar
    18     3     4   am
    19     4     5    1
    20     5     6    1
    21     6     7    1
    22     7    10    1
    23    10    11    1
    24    11    12   ar
    25    12    13   ar
    26    13    14   ar
    27    14    15   ar
    28     7     8    1
    29     8     9    1
    30    24    19   ar
    31     9     4    1
    32    31    26    1
    33    15    11   ar
    34    15    16    1
@<TRIPOS>MOLECULE
*****
 31 34 0 0 0
SMALL
GASTEIGER

@<TRIPOS>ATOM
      1 C           6.5530   -3.6926   24.9482 C.3     1  UNL1        0.1325
      2 O           7.3398   -6.1590   25.1665 O.2     1  UNL1       -0.2747
      3 C           6.9378   -4.8624   25.8046 C.2     1  UNL1        0.2294
      4 N           6.9205   -4.7356   27.2991 N.am    1  UNL1       -0.2794
      5 C           7.3054   -5.9054   28.1556 C.3     1  UNL1        0.0934
      6 C           7.2881   -5.7786   29.6501 C.3     1  UNL1        0.0219
      7 C           6.8861   -4.4820   30.2882 C.3     1  UNL1        0.0093
      8 C           6.5013   -3.3122   29.4318 C.3     1  UNL1        0.0219
      9 C           6.5185   -3.4390   27.9372 C.3     1  UNL1        0.0934
     10 C           6.8689   -4.3552   31.7827 C.3     1  UNL1        0.0453
     11 C           6.1605   -3.2019   32.4294 C.ar    1  UNL1        0.0541
     12 C           6.7513   -1.8536   32.7172 C.ar    1  UNL1        0.1131
     13 N           5.6929   -1.0129   33.3676 N.ar    1  UNL1       -0.2229
     14 C           4.4478   -1.8418   33.4818 C.ar    1  UNL1        0.1748
     15 N           4.7369   -3.1946   32.9020 N.ar    1  UNL1       -0.3382
     16 H           4.1034   -3.9459   32.8421 H       1  UNL1        0.1672
     17 C           6.8953   -3.6874   23.4877 C.3     1  UNL1        0.2150
     18 O           5.9847   -4.3569   22.5016 O.3     1  UNL1       -0.4749
     19 C           5.4120   -3.5735   21.3577 C.ar    1  UNL1        0.1386
     20 C           4.2453   -2.6585   21.5849 C.ar    1  UNL1        0.0366
     21 C           3.6727   -1.8752   20.4410 C.ar    1  UNL1        0.0002
     22 C           4.2668   -2.0068   19.0700 C.ar    1  UNL1       -0.0059
     23 C           5.4335   -2.9218   18.8428 C.ar    1  UNL1        0.0002
     24 C           6.0061   -3.7051   19.9867 C.ar    1  UNL1        0.0366
     25 C           3.6941   -1.2234   17.9261 C.3     1  UNL1        0.0991
     26 N           3.1527    0.1560   18.1583 N.3     1  UNL1       -0.2690
     27 C           4.0904    1.3223   18.2611 C.3     1  UNL1        0.0724
     28 C           3.5489    2.7018   18.4934 C.3     1  UNL1        0.0174
     29 C           2.0698    2.9149   18.6228 C.3     1  UNL1        0.0029
     30 C           1.1322    1.7487   18.5200 C.3     1  UNL1        0.0174
     31 C           1.6736    0.3692   18.2878 C.3     1  UNL1        0.0724
@<TRIPOS>BOND
     1     2     3    2
     2     3     1    1
     3     1    17    1
     4    17    18    1
     5    18    19    1
     6    19    20   ar
     7    20    21   ar
     8    21    22   ar
     9    22    25    1
    10    25    26    1
    11    26    27    1
    12    27    28    1
    13    28    29    1
    14    29    30    1
    15    30    31    1
    16    22    23   ar
    17    23    24   ar
    18     3     4   am
    19     4     5    1
    20     5     6    1
    21     6     7    1
    22     7    10    1
    23    10    11    1
    24    11    12   ar
    25    12    13   ar
    26    13    14   ar
    27    14    15   ar
    28     7     8    1
    29     8     9    1
    30    24    19   ar
    31     9     4    1
    32    31    26    1
    33    15    11   ar
    34    15    16    1
@<TRIPOS>MOLECULE
*****
 31 34 0 0 0
SMALL
GASTEIGER

@<TRIPOS>ATOM
      1 C          -0.3635    3.6601   19.0387 C.3     1  UNL1        0.1325
      2 O          -1.2797    2.1307   20.9285 O.2     1  UNL1       -0.2747
      3 C          -0.2853    2.3923   19.8364 C.2     1  UNL1        0.2294
      4 N           0.7875    1.3861   19.5420 N.am    1  UNL1       -0.2794
      5 C           0.8658    0.1181   20.3398 C.3     1  UNL1        0.0934
      6 C           1.9385   -0.8881   20.0454 C.3     1  UNL1        0.0219
      7 C           2.9329   -0.6265   18.9533 C.3     1  UNL1        0.0093
      8 C           2.8546    0.6413   18.1556 C.3     1  UNL1        0.0219
      9 C           1.7819    1.6477   18.4499 C.3     1  UNL1        0.0934
     10 C           4.0057   -1.6328   18.6589 C.3     1  UNL1        0.0453
     11 C           3.9732   -2.9788   19.3201 C.ar    1  UNL1        0.0541
     12 C           4.5801   -3.3239   20.6477 C.ar    1  UNL1        0.1131
     13 N           4.3102   -4.7744   20.9178 N.ar    1  UNL1       -0.2229
     14 C           3.5363   -5.3259   19.7572 C.ar    1  UNL1        0.1748
     15 N           3.3281   -4.2162   18.7697 N.ar    1  UNL1       -0.3382
     16 H           2.8517   -4.2873   17.9111 H       1  UNL1        0.1672
     17 C          -1.6425    4.0356   18.3506 C.3     1  UNL1        0.2150
     18 O          -2.4579    5.1871   18.8595 O.3     1  UNL1       -0.4749
     19 C          -3.4956    4.9611   19.9188 C.ar    1  UNL1        0.1386
     20 C          -4.0956    3.5986   20.1025 C.ar    1  UNL1        0.0366
     21 C          -5.1332    3.3727   21.1618 C.ar    1  UNL1        0.0002
     22 C          -5.5709    4.5092   22.0375 C.ar    1  UNL1       -0.0059
     23 C          -4.9709    5.8716   21.8539 C.ar    1  UNL1        0.0002
     24 C          -3.9333    6.0976   20.7945 C.ar    1  UNL1        0.0366
     25 C          -6.6086    4.2832   23.0969 C.3     1  UNL1        0.0991
     26 N          -6.3874    4.8030   24.4864 N.3     1  UNL1       -0.2690
     27 C          -5.2144    4.3233   25.2888 C.3     1  UNL1        0.0724
     28 C          -4.9932    4.8431   26.6784 C.3     1  UNL1        0.0174
     29 C          -5.9451    5.8427   27.2655 C.3     1  UNL1        0.0029
     30 C          -7.1181    6.3224   26.4631 C.3     1  UNL1        0.0174
     31 C          -7.3393    5.8026   25.0736 C.3     1  UNL1        0.0724
@<TRIPOS>BOND
     1     2     3    2
     2     3     1    1
     3     1    17    1
     4    17    18    1
     5    18    19    1
     6    19    20   ar
     7    20    21   ar
     8    21    22   ar
     9    22    25    1
    10    25    26    1
    11    26    27    1
    12    27    28    1
    13    28    29    1
    14    29    30    1
    15    30    31    1
    16    22    23   ar
    17    23    24   ar
    18     3     4   am
    19     4     5    1
    20     5     6    1
    21     6     7    1
    22     7    10    1
    23    10    11    1
    24    11    12   ar
    25    12    13   ar
    26    13    14   ar
    27    14    15   ar
    28     7     8    1
    29     8     9    1
    30    24    19   ar
    31     9     4    1
    32    31    26    1
    33    15    11   ar
    34    15    16    1
@<TRIPOS>MOLECULE
*****
 31 34 0 0 0
SMALL
GASTEIGER

@<TRIPOS>ATOM
      1 C           0.3697    2.2108   18.4934 C.3     1  UNL1        0.1325
      2 O          -0.2733    0.8583   20.6164 O.2     1  UNL1       -0.2747
      3 C           0.6083    1.0547   19.4188 C.2     1  UNL1        0.2294
      4 N           1.7285    0.0950   19.1466 N.am    1  UNL1       -0.2794
      5 C           1.9672   -1.0611   20.0721 C.3     1  UNL1        0.0934
      6 C           3.0873   -2.0208   19.7999 C.3     1  UNL1        0.0219
      7 C           3.9689   -1.8244   18.6023 C.3     1  UNL1        0.0093
      8 C           3.7303   -0.6683   17.6769 C.3     1  UNL1        0.0219
      9 C           2.6101    0.2915   17.9491 C.3     1  UNL1        0.0934
     10 C           5.0891   -2.7841   18.3302 C.3     1  UNL1        0.0453
     11 C           6.1243   -3.0468   19.3835 C.ar    1  UNL1        0.0541
     12 C           7.5044   -2.4610   19.4289 C.ar    1  UNL1        0.1131
     13 N           8.1941   -2.9936   20.6498 N.ar    1  UNL1       -0.2229
     14 C           7.2402   -3.9087   21.3590 C.ar    1  UNL1        0.1748
     15 N           5.9610   -3.9415   20.5764 N.ar    1  UNL1       -0.3382
     16 H           5.1556   -4.4594   20.8054 H       1  UNL1        0.1672
     17 C           0.3692    3.6122   19.0285 C.3     1  UNL1        0.2150
     18 O          -0.9112    4.3912   19.0895 O.3     1  UNL1       -0.4749
     19 C          -1.9468    4.0525   20.1206 C.ar    1  UNL1        0.1386
     20 C          -1.5989    4.1058   21.5787 C.ar    1  UNL1        0.0366
     21 C          -2.6345    3.7672   22.6096 C.ar    1  UNL1        0.0002
     22 C          -4.0179    3.3752   22.1824 C.ar    1  UNL1       -0.0059
     23 C          -4.3658    3.3219   20.7243 C.ar    1  UNL1        0.0002
     24 C          -3.3302    3.6606   19.6934 C.ar    1  UNL1        0.0366
     25 C          -5.0535    3.0366   23.2135 C.3     1  UNL1        0.0991
     26 N          -5.1984    3.8890   24.4391 N.3     1  UNL1       -0.2690
     27 C          -6.2065    4.9995   24.4655 C.3     1  UNL1        0.0724
     28 C          -6.3514    5.8520   25.6912 C.3     1  UNL1        0.0174
     29 C          -5.4882    5.5940   26.8905 C.3     1  UNL1        0.0029
     30 C          -4.4801    4.4836   26.8641 C.3     1  UNL1        0.0174
     31 C          -4.3352    3.6311   25.6385 C.3     1  UNL1        0.0724
@<TRIPOS>BOND
     1     2     3    2
     2     3     1    1
     3     1    17    1
     4    17    18    1
     5    18    19    1
     6    19    20   ar
     7    20    21   ar
     8    21    22   ar
     9    22    25    1
    10    25    26    1
    11    26    27    1
    12    27    28    1
    13    28    29    1
    14    29    30    1
    15    30    31    1
    16    22    23   ar
    17    23    24   ar
    18     3     4   am
    19     4     5    1
    20     5     6    1
    21     6     7    1
    22     7    10    1
    23    10    11    1
    24    11    12   ar
    25    12    13   ar
    26    13    14   ar
    27    14    15   ar
    28     7     8    1
    29     8     9    1
    30    24    19   ar
    31     9     4    1
    32    31    26    1
    33    15    11   ar
    34    15    16    1
@<TRIPOS>MOLECULE
*****
 31 34 0 0 0
SMALL
GASTEIGER

@<TRIPOS>ATOM
      1 C          -0.1227    4.0593   21.9428 C.3     1  UNL1        0.1325
      2 O          -1.3916    5.8823   23.2906 O.2     1  UNL1       -0.2747
      3 C          -0.7716    4.5185   23.2148 C.2     1  UNL1        0.2294
      4 N          -0.8006    3.6139   24.4109 N.am    1  UNL1       -0.2794
      5 C          -1.4496    4.0731   25.6830 C.3     1  UNL1        0.0934
      6 C          -1.4786    3.1685   26.8792 C.3     1  UNL1        0.0219
      7 C          -0.8586    1.8047   26.8033 C.3     1  UNL1        0.0093
      8 C          -0.2097    1.3455   25.5314 C.3     1  UNL1        0.0219
      9 C          -0.1806    2.2501   24.3351 C.3     1  UNL1        0.0934
     10 C          -0.8876    0.9001   27.9995 C.3     1  UNL1        0.0453
     11 C           0.3781    0.6076   28.7495 C.ar    1  UNL1        0.0541
     12 C           0.9026    1.3746   29.9271 C.ar    1  UNL1        0.1131
     13 N           2.1902    0.7377   30.3589 N.ar    1  UNL1       -0.2229
     14 C           2.4616   -0.4229   29.4481 C.ar    1  UNL1        0.1748
     15 N           1.3416   -0.5033   28.4535 N.ar    1  UNL1       -0.3382
     16 H           1.2543   -1.1684   27.7329 H       1  UNL1        0.1672
     17 C          -0.9431    3.3860   20.8828 C.3     1  UNL1        0.2150
     18 O          -0.9222    1.8917   20.7544 O.3     1  UNL1       -0.4749
     19 C           0.2453    1.2111   20.1035 C.ar    1  UNL1        0.1386
     20 C           0.6863   -0.1411   20.5799 C.ar    1  UNL1        0.0366
     21 C           1.8538   -0.8217   19.9290 C.ar    1  UNL1        0.0002
     22 C           2.5803   -0.1500   18.8016 C.ar    1  UNL1       -0.0059
     23 C           2.1394    1.2022   18.3252 C.ar    1  UNL1        0.0002
     24 C           0.9719    1.8828   18.9761 C.ar    1  UNL1        0.0366
     25 C           3.7479   -0.8306   18.1507 C.3     1  UNL1        0.0991
     26 N           4.5568   -1.8321   18.9204 N.3     1  UNL1       -0.2690
     27 C           5.6262   -1.3667   19.8637 C.3     1  UNL1        0.0724
     28 C           6.4351   -2.3684   20.6335 C.3     1  UNL1        0.0174
     29 C           6.1746   -3.8353   20.4600 C.3     1  UNL1        0.0029
     30 C           5.1052   -4.3007   19.5167 C.3     1  UNL1        0.0174
     31 C           4.2963   -3.2992   18.7469 C.3     1  UNL1        0.0724
@<TRIPOS>BOND
     1     2     3    2
     2     3     1    1
     3     1    17    1
     4    17    18    1
     5    18    19    1
     6    19    20   ar
     7    20    21   ar
     8    21    22   ar
     9    22    25    1
    10    25    26    1
    11    26    27    1
    12    27    28    1
    13    28    29    1
    14    29    30    1
    15    30    31    1
    16    22    23   ar
    17    23    24   ar
    18     3     4   am
    19     4     5    1
    20     5     6    1
    21     6     7    1
    22     7    10    1
    23    10    11    1
    24    11    12   ar
    25    12    13   ar
    26    13    14   ar
    27    14    15   ar
    28     7     8    1
    29     8     9    1
    30    24    19   ar
    31     9     4    1
    32    31    26    1
    33    15    11   ar
    34    15    16    1
@<TRIPOS>MOLECULE
*****
 31 34 0 0 0
SMALL
GASTEIGER

@<TRIPOS>ATOM
      1 C           3.7262   -0.3352   30.8951 C.3     1  UNL1        0.1325
      2 O           4.8982   -2.3420   32.0567 O.2     1  UNL1       -0.2747
      3 C           4.2675   -0.9832   32.1348 C.2     1  UNL1        0.2294
      4 N           4.1780   -0.2726   33.4527 N.am    1  UNL1       -0.2794
      5 C           4.7193   -0.9206   34.6926 C.3     1  UNL1        0.0934
      6 C           4.6299   -0.2100   36.0105 C.3     1  UNL1        0.0219
      7 C           3.9992    1.1488   36.0886 C.3     1  UNL1        0.0093
      8 C           3.4579    1.7968   34.8489 C.3     1  UNL1        0.0219
      9 C           3.5473    1.0861   33.5309 C.3     1  UNL1        0.0934
     10 C           3.9098    1.8594   37.4065 C.3     1  UNL1        0.0453
     11 C           2.7998    1.5325   38.3612 C.ar    1  UNL1        0.0541
     12 C           1.9554    2.5246   39.1045 C.ar    1  UNL1        0.1131
     13 N           0.9732    1.7613   39.9428 N.ar    1  UNL1       -0.2229
     14 C           1.2106    0.2974   39.7175 C.ar    1  UNL1        0.1748
     15 N           2.3396    0.1560   38.7400 N.ar    1  UNL1       -0.3382
     16 H           2.7129   -0.6914   38.4058 H       1  UNL1        0.1672
     17 C           2.2480   -0.3209   30.6405 C.3     1  UNL1        0.2150
     18 O           1.7287   -0.3683   29.2341 O.3     1  UNL1       -0.4749
     19 C           0.9670    0.7973   28.6761 C.ar    1  UNL1        0.1386
     20 C          -0.1977    0.5631   27.7604 C.ar    1  UNL1        0.0366
     21 C          -0.9593    1.7287   27.2024 C.ar    1  UNL1        0.0002
     22 C          -0.5561    3.1285   27.5602 C.ar    1  UNL1       -0.0059
     23 C           0.6085    3.3627   28.4759 C.ar    1  UNL1        0.0002
     24 C           1.3701    2.1971   29.0339 C.ar    1  UNL1        0.0366
     25 C          -1.3178    4.2941   27.0022 C.3     1  UNL1        0.0991
     26 N          -2.4225    4.0643   26.0139 N.3     1  UNL1       -0.2690
     27 C          -3.8470    4.0098   26.4805 C.3     1  UNL1        0.0724
     28 C          -4.9517    3.7800   25.4921 C.3     1  UNL1        0.0174
     29 C          -4.6319    3.6047   24.0371 C.3     1  UNL1        0.0029
     30 C          -3.2073    3.6592   23.5705 C.3     1  UNL1        0.0174
     31 C          -2.1027    3.8890   24.5588 C.3     1  UNL1        0.0724
@<TRIPOS>BOND
     1     2     3    2
     2     3     1    1
     3     1    17    1
     4    17    18    1
     5    18    19    1
     6    19    20   ar
     7    20    21   ar
     8    21    22   ar
     9    22    25    1
    10    25    26    1
    11    26    27    1
    12    27    28    1
    13    28    29    1
    14    29    30    1
    15    30    31    1
    16    22    23   ar
    17    23    24   ar
    18     3     4   am
    19     4     5    1
    20     5     6    1
    21     6     7    1
    22     7    10    1
    23    10    11    1
    24    11    12   ar
    25    12    13   ar
    26    13    14   ar
    27    14    15   ar
    28     7     8    1
    29     8     9    1
    30    24    19   ar
    31     9     4    1
    32    31    26    1
    33    15    11   ar
    34    15    16    1
