@<TRIPOS>MOLECULE
*****
 28 31 0 0 0
SMALL
GASTEIGER

@<TRIPOS>ATOM
      1 N          -6.1540  -18.7407   21.9483 N.pl3   1  UNL1       -0.2905
      2 C          -7.0066  -19.9748   21.9346 C.3     1  UNL1        0.0926
      3 C          -8.4505  -19.8934   22.3329 C.3     1  UNL1        0.0273
      4 C          -9.0418  -18.5778   22.7449 C.3     1  UNL1        0.0422
      5 C          -8.1891  -17.3437   22.7587 C.3     1  UNL1        0.0750
      6 N          -8.7804  -16.0282   23.1707 N.3     1  UNL1       -0.3206
      7 C          -6.7453  -17.4252   22.3603 C.3     1  UNL1        0.1079
      8 H          -9.7644  -16.1567   23.4065 H       1  UNL1        0.1189
      9 H          -8.6990  -15.3631   22.4017 H       1  UNL1        0.1189
     10 C          -2.6572  -16.9801   17.5365 C.3     1  UNL1        0.0757
     11 C          -2.0626  -17.7538   18.6757 C.ar    1  UNL1        0.1642
     12 N          -0.6211  -18.1429   18.8200 N.ar    1  UNL1       -0.1315
     13 N          -0.4727  -18.9039   20.1041 N.ar    1  UNL1       -0.1273
     14 C          -1.8225  -18.9851   20.7534 C.ar    1  UNL1        0.1864
     15 C          -2.2837  -19.6144   22.0345 C.ar    1  UNL1        0.0436
     16 C          -3.7275  -19.5329   22.4327 C.ar    1  UNL1        0.0393
     17 C          -4.7101  -18.8222   21.5500 C.ar    1  UNL1        0.1521
     18 N          -4.2489  -18.1928   20.2689 N.ar    1  UNL1       -0.1475
     19 N          -2.8051  -18.2743   19.8706 N.ar    1  UNL1       -0.1940
     20 C         -10.4856  -18.4964   23.1433 C.ar    1  UNL1        0.0087
     21 C         -11.5271  -18.1492   22.1212 C.ar    1  UNL1        0.0300
     22 C         -12.9710  -18.0677   22.5195 C.ar    1  UNL1        0.1672
     23 F         -14.0125  -17.7206   21.4974 F       1  UNL1       -0.2018
     24 C         -13.3733  -18.3334   23.9399 C.ar    1  UNL1        0.1696
     25 F         -14.8171  -18.2519   24.3382 F       1  UNL1       -0.2017
     26 C         -12.3317  -18.6806   24.9620 C.ar    1  UNL1        0.0612
     27 C         -10.8879  -18.7620   24.5637 C.ar    1  UNL1        0.1386
     28 F          -9.8464  -19.1092   25.5858 F       1  UNL1       -0.2044
@<TRIPOS>BOND
     1    10    11    1
     2    11    12   ar
     3    12    13   ar
     4    13    14   ar
     5    14    15   ar
     6    15    16   ar
     7    16    17   ar
     8    17     1    1
     9     1     2    1
    10     2     3    1
    11     3     4    1
    12     4    20    1
    13    20    21   ar
    14    21    22   ar
    15    22    23    1
    16    22    24   ar
    17    24    25    1
    18    24    26   ar
    19    26    27   ar
    20    27    28    1
    21     4     5    1
    22     5     6    1
    23     5     7    1
    24    17    18   ar
    25    18    19   ar
    26    19    11   ar
    27    19    14   ar
    28     7     1    1
    29    27    20   ar
    30     6     8    1
    31     6     9    1
@<TRIPOS>MOLECULE
*****
 28 31 0 0 0
SMALL
GASTEIGER

@<TRIPOS>ATOM
      1 N          -6.2175  -18.6061   21.7143 N.pl3   1  UNL1       -0.2905
      2 C          -6.6468  -17.6865   22.8187 C.3     1  UNL1        0.0926
      3 C          -8.1004  -17.5600   23.1670 C.3     1  UNL1        0.0273
      4 C          -9.1245  -18.3531   22.4106 C.3     1  UNL1        0.0422
      5 C          -8.6952  -19.2727   21.3061 C.3     1  UNL1        0.0750
      6 N          -9.7193  -20.0659   20.5498 N.3     1  UNL1       -0.3206
      7 C          -7.2416  -19.3993   20.9579 C.3     1  UNL1        0.1079
      8 H         -10.6484  -19.8584   20.9161 H       1  UNL1        0.1189
      9 H          -9.5259  -21.0615   20.6576 H       1  UNL1        0.1189
     10 C          -2.5255  -16.9953   17.4054 C.3     1  UNL1        0.0757
     11 C          -1.9918  -17.7723   18.5722 C.ar    1  UNL1        0.1642
     12 N          -0.5677  -18.2001   18.7694 N.ar    1  UNL1       -0.1315
     13 N          -0.4843  -18.9501   20.0657 N.ar    1  UNL1       -0.1273
     14 C          -1.8569  -18.9858   20.6697 C.ar    1  UNL1        0.1864
     15 C          -2.3787  -19.5872   21.9410 C.ar    1  UNL1        0.0436
     16 C          -3.8322  -19.4606   22.2891 C.ar    1  UNL1        0.0393
     17 C          -4.7639  -18.7327   21.3660 C.ar    1  UNL1        0.1521
     18 N          -4.2421  -18.1313   20.0948 N.ar    1  UNL1       -0.1475
     19 N          -2.7886  -18.2579   19.7467 N.ar    1  UNL1       -0.1940
     20 C         -10.5780  -18.2266   22.7588 C.ar    1  UNL1        0.0087
     21 C         -11.0711  -18.6869   24.0985 C.ar    1  UNL1        0.0300
     22 C         -12.5247  -18.5604   24.4468 C.ar    1  UNL1        0.1672
     23 F         -13.0178  -19.0208   25.7865 F       1  UNL1       -0.2018
     24 C         -13.4851  -17.9735   23.4552 C.ar    1  UNL1        0.1696
     25 F         -14.9386  -17.8470   23.8034 F       1  UNL1       -0.2017
     26 C         -12.9920  -17.5132   22.1154 C.ar    1  UNL1        0.0612
     27 C         -11.5385  -17.6397   21.7673 C.ar    1  UNL1        0.1386
     28 F         -11.0454  -17.1793   20.4275 F       1  UNL1       -0.2044
@<TRIPOS>BOND
     1    10    11    1
     2    11    12   ar
     3    12    13   ar
     4    13    14   ar
     5    14    15   ar
     6    15    16   ar
     7    16    17   ar
     8    17     1    1
     9     1     2    1
    10     2     3    1
    11     3     4    1
    12     4    20    1
    13    20    21   ar
    14    21    22   ar
    15    22    23    1
    16    22    24   ar
    17    24    25    1
    18    24    26   ar
    19    26    27   ar
    20    27    28    1
    21     4     5    1
    22     5     6    1
    23     5     7    1
    24    17    18   ar
    25    18    19   ar
    26    19    11   ar
    27    19    14   ar
    28     7     1    1
    29    27    20   ar
    30     6     8    1
    31     6     9    1
@<TRIPOS>MOLECULE
*****
 28 31 0 0 0
SMALL
GASTEIGER

@<TRIPOS>ATOM
      1 N           5.2367   -0.0067   35.0909 N.pl3   1  UNL1       -0.2905
      2 C           6.5348    0.1693   34.3603 C.3     1  UNL1        0.0926
      3 C           6.9065   -0.7730   33.2540 C.3     1  UNL1        0.0273
      4 C           5.9801   -1.8913   32.8783 C.3     1  UNL1        0.0422
      5 C           4.6819   -2.0673   33.6090 C.3     1  UNL1        0.0750
      6 N           3.7555   -3.1856   33.2334 N.3     1  UNL1       -0.3206
      7 C           4.3102   -1.1250   34.7153 C.3     1  UNL1        0.1079
      8 H           4.1636   -3.7228   32.4683 H       1  UNL1        0.1189
      9 H           2.8590   -2.7996   32.9374 H       1  UNL1        0.1189
     10 C           0.9876    0.6463   39.1296 C.3     1  UNL1        0.0757
     11 C           2.1006    1.6503   39.0713 C.ar    1  UNL1        0.1642
     12 N           2.2559    2.8472   39.9620 N.ar    1  UNL1       -0.1315
     13 N           3.5049    3.5702   39.5532 N.ar    1  UNL1       -0.1273
     14 C           4.1215    2.8203   38.4097 C.ar    1  UNL1        0.1864
     15 C           5.3611    3.0646   37.6013 C.ar    1  UNL1        0.0436
     16 C           5.7328    2.1222   36.4951 C.ar    1  UNL1        0.0393
     17 C           4.8649    0.9357   36.1972 C.ar    1  UNL1        0.1521
     18 N           3.6253    0.6914   37.0057 N.ar    1  UNL1       -0.1475
     19 N           3.2536    1.6337   38.1119 N.ar    1  UNL1       -0.1940
     20 C           6.3518   -2.8336   31.7721 C.ar    1  UNL1        0.0087
     21 C           6.8775   -4.2006   32.0962 C.ar    1  UNL1        0.0300
     22 C           7.2492   -5.1430   30.9899 C.ar    1  UNL1        0.1672
     23 F           7.7748   -6.5099   31.3140 F       1  UNL1       -0.2018
     24 C           7.0952   -4.7183   29.5595 C.ar    1  UNL1        0.1696
     25 F           7.4669   -5.6606   28.4533 F       1  UNL1       -0.2017
     26 C           6.5695   -3.3513   29.2354 C.ar    1  UNL1        0.0612
     27 C           6.1978   -2.4090   30.3417 C.ar    1  UNL1        0.1386
     28 F           5.6722   -1.0421   30.0176 F       1  UNL1       -0.2044
@<TRIPOS>BOND
     1    10    11    1
     2    11    12   ar
     3    12    13   ar
     4    13    14   ar
     5    14    15   ar
     6    15    16   ar
     7    16    17   ar
     8    17     1    1
     9     1     2    1
    10     2     3    1
    11     3     4    1
    12     4    20    1
    13    20    21   ar
    14    21    22   ar
    15    22    23    1
    16    22    24   ar
    17    24    25    1
    18    24    26   ar
    19    26    27   ar
    20    27    28    1
    21     4     5    1
    22     5     6    1
    23     5     7    1
    24    17    18   ar
    25    18    19   ar
    26    19    11   ar
    27    19    14   ar
    28     7     1    1
    29    27    20   ar
    30     6     8    1
    31     6     9    1
@<TRIPOS>MOLECULE
*****
 28 31 0 0 0
SMALL
GASTEIGER

@<TRIPOS>ATOM
      1 N           0.3343    1.5301   19.7912 N.pl3   1  UNL1       -0.2905
      2 C           0.5572    0.7867   21.0747 C.3     1  UNL1        0.0926
      3 C           1.6427   -0.2446   21.1654 C.3     1  UNL1        0.0273
      4 C           2.5053   -0.5324   19.9724 C.3     1  UNL1        0.0422
      5 C           2.2823    0.2112   18.6888 C.3     1  UNL1        0.0750
      6 N           3.1449   -0.0766   17.4959 N.3     1  UNL1       -0.3206
      7 C           1.1969    1.2424   18.5982 C.3     1  UNL1        0.1079
      8 H           3.8248   -0.7987   17.7341 H       1  UNL1        0.1189
      9 H           3.6352    0.7735   17.2178 H       1  UNL1        0.1189
     10 C          -4.6157    3.0298   22.6267 C.3     1  UNL1        0.0757
     11 C          -4.1853    3.8318   21.4343 C.ar    1  UNL1        0.1642
     12 N          -4.9041    5.0182   20.8636 N.ar    1  UNL1       -0.1315
     13 N          -4.1234    5.5077   19.6800 N.ar    1  UNL1       -0.1273
     14 C          -2.9222    4.6239   19.5192 C.ar    1  UNL1        0.1864
     15 C          -1.7985    4.6285   18.5256 C.ar    1  UNL1        0.0436
     16 C          -0.7131    3.5972   18.6163 C.ar    1  UNL1        0.0393
     17 C          -0.7513    2.5614   19.7006 C.ar    1  UNL1        0.1521
     18 N          -1.8749    2.5569   20.6942 N.ar    1  UNL1       -0.1475
     19 N          -2.9604    3.5881   20.6035 N.ar    1  UNL1       -0.1940
     20 C           3.5908   -1.5636   20.0630 C.ar    1  UNL1        0.0087
     21 C           3.3692   -2.9370   19.5021 C.ar    1  UNL1        0.0300
     22 C           4.4547   -3.9683   19.5927 C.ar    1  UNL1        0.1672
     23 F           4.2331   -5.3417   19.0319 F       1  UNL1       -0.2018
     24 C           5.7618   -3.6261   20.2441 C.ar    1  UNL1        0.1696
     25 F           6.8473   -4.6573   20.3347 F       1  UNL1       -0.2017
     26 C           5.9834   -2.2526   20.8050 C.ar    1  UNL1        0.0612
     27 C           4.8979   -1.2214   20.7144 C.ar    1  UNL1        0.1386
     28 F           5.1195    0.1520   21.2753 F       1  UNL1       -0.2044
@<TRIPOS>BOND
     1    10    11    1
     2    11    12   ar
     3    12    13   ar
     4    13    14   ar
     5    14    15   ar
     6    15    16   ar
     7    16    17   ar
     8    17     1    1
     9     1     2    1
    10     2     3    1
    11     3     4    1
    12     4    20    1
    13    20    21   ar
    14    21    22   ar
    15    22    23    1
    16    22    24   ar
    17    24    25    1
    18    24    26   ar
    19    26    27   ar
    20    27    28    1
    21     4     5    1
    22     5     6    1
    23     5     7    1
    24    17    18   ar
    25    18    19   ar
    26    19    11   ar
    27    19    14   ar
    28     7     1    1
    29    27    20   ar
    30     6     8    1
    31     6     9    1
