@<TRIPOS>MOLECULE
*****
 33 37 0 0 0
SMALL
GASTEIGER

@<TRIPOS>ATOM
      1 C          -7.1059  -20.4684   20.1637 C.ar    1  UNL1        0.0436
      2 C          -6.9714  -21.4584   19.0449 C.ar    1  UNL1        0.0142
      3 C          -8.0673  -21.5967   18.0301 C.ar    1  UNL1        0.0010
      4 C          -9.2977  -20.7449   18.1340 C.ar    1  UNL1       -0.0032
      5 C          -9.4321  -19.7549   19.2528 C.ar    1  UNL1       -0.0091
      6 C          -8.3363  -19.6166   20.2676 C.ar    1  UNL1       -0.0101
      7 C          -8.4707  -18.6266   21.3865 C.3     1  UNL1        0.0444
      8 C          -9.7011  -17.7748   21.4905 C.3     1  UNL1        0.0749
      9 N         -10.7970  -17.9132   20.4756 N.3     1  UNL1       -0.2934
     10 C         -10.6625  -18.9032   19.3568 C.3     1  UNL1        0.0954
     11 H         -10.9167  -16.9964   20.0447 H       1  UNL1        0.1236
     12 N          -6.0100  -20.3300   21.1786 N.pl3   1  UNL1       -0.3076
     13 C          -6.2298  -20.7947   22.5878 C.3     1  UNL1        0.1121
     14 C          -0.7475  -17.9180   19.6015 C.3     1  UNL1        0.0896
     15 N          -2.0631  -18.5210   19.9958 N.3     1  UNL1       -0.2714
     16 C          -3.2850  -18.2641   19.1646 C.3     1  UNL1        0.0738
     17 C          -4.6007  -18.8671   19.5588 C.3     1  UNL1        0.0371
     18 C          -4.6944  -19.7270   20.7843 C.3     1  UNL1        0.0756
     19 C          -3.4724  -19.9839   21.6155 C.3     1  UNL1        0.0371
     20 C          -2.1568  -19.3809   21.2212 C.3     1  UNL1        0.0738
     21 C          -9.8356  -16.7848   22.6093 C.3     1  UNL1        0.0886
     22 N          -8.7318  -15.8063   22.8816 N.3     1  UNL1       -0.2667
     23 C          -8.2611  -14.8852   21.7952 C.3     1  UNL1        0.0899
     24 C          -8.0987  -15.7488   24.2402 C.3     1  UNL1        0.0978
     25 C          -8.8976  -15.2816   25.4207 C.3     1  UNL1        0.0224
     26 C          -8.2645  -15.2241   26.7793 C.3     1  UNL1        0.0065
     27 C          -6.8325  -15.6337   26.9575 C.3     1  UNL1        0.0277
     28 C          -6.0337  -16.1008   25.7770 C.ar    1  UNL1       -0.0073
     29 C          -4.6017  -16.5104   25.9551 C.ar    1  UNL1       -0.0015
     30 C          -3.8028  -16.9775   24.7745 C.ar    1  UNL1        0.0203
     31 C          -4.4359  -17.0350   23.4159 C.ar    1  UNL1        0.0985
     32 N          -5.8679  -16.6254   23.2378 N.ar    1  UNL1       -0.2471
     33 C          -6.6668  -16.1583   24.4183 C.ar    1  UNL1        0.0695
@<TRIPOS>BOND
     1    14    15    1
     2    15    16    1
     3    16    17    1
     4    17    18    1
     5    18    12    1
     6    12    13    1
     7    12     1    1
     8     1     2   ar
     9     2     3   ar
    10     3     4   ar
    11     4     5   ar
    12     5     6   ar
    13     6     7    1
    14     7     8    1
    15     8    21    1
    16    21    22    1
    17    22    23    1
    18    24    22    1
    19    24    25    1
    20    25    26    1
    21    26    27    1
    22    27    28    1
    23    28    29   ar
    24    29    30   ar
    25    30    31   ar
    26    31    32   ar
    27    32    33   ar
    28     8     9    1
    29     9    10    1
    30    18    19    1
    31    19    20    1
    32    20    15    1
    33     6     1   ar
    34    33    24    1
    35    10     5    1
    36    33    28   ar
    37     9    11    1
@<TRIPOS>MOLECULE
*****
 33 37 0 0 0
SMALL
GASTEIGER

@<TRIPOS>ATOM
      1 C          -5.1527  -17.3040   23.6348 C.ar    1  UNL1        0.0436
      2 C          -4.2766  -17.2206   24.8495 C.ar    1  UNL1        0.0142
      3 C          -4.6822  -16.3598   26.0090 C.ar    1  UNL1        0.0010
      4 C          -5.9638  -15.5824   25.9537 C.ar    1  UNL1       -0.0032
      5 C          -6.8399  -15.6658   24.7390 C.ar    1  UNL1       -0.0091
      6 C          -6.4343  -16.5266   23.5796 C.ar    1  UNL1       -0.0101
      7 C          -7.3104  -16.6101   22.3648 C.3     1  UNL1        0.0444
      8 C          -8.5920  -15.8327   22.3095 C.3     1  UNL1        0.0749
      9 N          -8.9976  -14.9718   23.4691 N.3     1  UNL1       -0.2934
     10 C          -8.1215  -14.8884   24.6838 C.3     1  UNL1        0.0954
     11 H          -9.9063  -15.3113   23.7842 H       1  UNL1        0.1236
     12 N          -4.7471  -18.1649   22.4752 N.pl3   1  UNL1       -0.3076
     13 C          -5.6641  -19.2474   21.9880 C.3     1  UNL1        0.1121
     14 C           0.5429  -17.2784   19.7864 C.3     1  UNL1        0.0896
     15 N          -0.7796  -17.5000   20.4586 N.3     1  UNL1       -0.2714
     16 C          -1.4856  -18.8151   20.3096 C.3     1  UNL1        0.0738
     17 C          -2.8081  -19.0367   20.9819 C.3     1  UNL1        0.0371
     18 C          -3.4246  -17.9433   21.8030 C.3     1  UNL1        0.0756
     19 C          -2.7186  -16.6282   21.9520 C.3     1  UNL1        0.0371
     20 C          -1.3961  -16.4066   21.2797 C.3     1  UNL1        0.0738
     21 C          -9.4680  -15.9161   21.0949 C.3     1  UNL1        0.0886
     22 N         -10.4438  -17.0461   20.9501 N.3     1  UNL1       -0.2667
     23 C         -10.6886  -17.6576   19.6024 C.3     1  UNL1        0.0899
     24 C         -11.1748  -17.5645   22.1529 C.3     1  UNL1        0.0978
     25 C         -12.4844  -16.9537   22.5556 C.3     1  UNL1        0.0224
     26 C         -13.2154  -17.4722   23.7584 C.3     1  UNL1        0.0065
     27 C         -12.6369  -18.6014   24.5585 C.3     1  UNL1        0.0277
     28 C         -11.3274  -19.2122   24.1559 C.ar    1  UNL1       -0.0073
     29 C         -10.7490  -20.3415   24.9560 C.ar    1  UNL1       -0.0015
     30 C          -9.4394  -20.9522   24.5532 C.ar    1  UNL1        0.0203
     31 C          -8.7084  -20.4338   23.3504 C.ar    1  UNL1        0.0985
     32 N          -9.2869  -19.3045   22.5503 N.ar    1  UNL1       -0.2471
     33 C         -10.5964  -18.6938   22.9530 C.ar    1  UNL1        0.0695
@<TRIPOS>BOND
     1    14    15    1
     2    15    16    1
     3    16    17    1
     4    17    18    1
     5    18    12    1
     6    12    13    1
     7    12     1    1
     8     1     2   ar
     9     2     3   ar
    10     3     4   ar
    11     4     5   ar
    12     5     6   ar
    13     6     7    1
    14     7     8    1
    15     8    21    1
    16    21    22    1
    17    22    23    1
    18    24    22    1
    19    24    25    1
    20    25    26    1
    21    26    27    1
    22    27    28    1
    23    28    29   ar
    24    29    30   ar
    25    30    31   ar
    26    31    32   ar
    27    32    33   ar
    28     8     9    1
    29     9    10    1
    30    18    19    1
    31    19    20    1
    32    20    15    1
    33     6     1   ar
    34    33    24    1
    35    10     5    1
    36    33    28   ar
    37     9    11    1
@<TRIPOS>MOLECULE
*****
 33 37 0 0 0
SMALL
GASTEIGER

@<TRIPOS>ATOM
      1 C          -4.8406  -17.3296   23.7855 C.ar    1  UNL1        0.0436
      2 C          -3.9886  -17.0432   24.9863 C.ar    1  UNL1        0.0142
      3 C          -4.4536  -16.0588   26.0182 C.ar    1  UNL1        0.0010
      4 C          -5.7705  -15.3608   25.8493 C.ar    1  UNL1       -0.0032
      5 C          -6.6225  -15.6472   24.6484 C.ar    1  UNL1       -0.0091
      6 C          -6.1576  -16.6316   23.6166 C.ar    1  UNL1       -0.0101
      7 C          -7.0096  -16.9181   22.4157 C.3     1  UNL1        0.0444
      8 C          -8.3265  -16.2201   22.2467 C.3     1  UNL1        0.0749
      9 N          -8.7914  -15.2357   23.2787 N.3     1  UNL1       -0.2934
     10 C          -7.9394  -14.9493   24.4795 C.3     1  UNL1        0.0954
     11 H          -9.6874  -15.5761   23.6278 H       1  UNL1        0.1236
     12 N          -4.3757  -18.3140   22.7535 N.pl3   1  UNL1       -0.3076
     13 C          -5.1636  -19.5654   22.5022 C.3     1  UNL1        0.1121
     14 C           0.6354  -17.2460   19.6314 C.3     1  UNL1        0.0896
     15 N          -0.6174  -17.5130   20.4120 N.3     1  UNL1       -0.2714
     16 C          -1.3009  -16.3932   21.1391 C.3     1  UNL1        0.0738
     17 C          -2.5538  -16.6602   21.9197 C.3     1  UNL1        0.0371
     18 C          -3.1230  -18.0470   21.9730 C.3     1  UNL1        0.0756
     19 C          -2.4393  -19.1668   21.2458 C.3     1  UNL1        0.0371
     20 C          -1.1866  -18.8998   20.4653 C.3     1  UNL1        0.0738
     21 C          -9.1785  -16.5065   21.0459 C.3     1  UNL1        0.0886
     22 N          -9.9734  -17.7767   20.9760 N.3     1  UNL1       -0.2667
     23 C         -10.5686  -18.2181   19.6717 C.3     1  UNL1        0.0899
     24 C         -10.1730  -18.6054   22.2102 C.3     1  UNL1        0.0978
     25 C          -9.1327  -19.6062   22.6180 C.3     1  UNL1        0.0224
     26 C          -9.3323  -20.4349   23.8522 C.3     1  UNL1        0.0065
     27 C         -10.5723  -20.2630   24.6786 C.3     1  UNL1        0.0277
     28 C         -11.6126  -19.2623   24.2708 C.ar    1  UNL1       -0.0073
     29 C         -12.8526  -19.0904   25.0972 C.ar    1  UNL1       -0.0015
     30 C         -13.8929  -18.0896   24.6894 C.ar    1  UNL1        0.0203
     31 C         -13.6933  -17.2609   23.4552 C.ar    1  UNL1        0.0985
     32 N         -12.4533  -17.4328   22.6288 N.ar    1  UNL1       -0.2471
     33 C         -11.4130  -18.4335   23.0366 C.ar    1  UNL1        0.0695
@<TRIPOS>BOND
     1    14    15    1
     2    15    16    1
     3    16    17    1
     4    17    18    1
     5    18    12    1
     6    12    13    1
     7    12     1    1
     8     1     2   ar
     9     2     3   ar
    10     3     4   ar
    11     4     5   ar
    12     5     6   ar
    13     6     7    1
    14     7     8    1
    15     8    21    1
    16    21    22    1
    17    22    23    1
    18    24    22    1
    19    24    25    1
    20    25    26    1
    21    26    27    1
    22    27    28    1
    23    28    29   ar
    24    29    30   ar
    25    30    31   ar
    26    31    32   ar
    27    32    33   ar
    28     8     9    1
    29     9    10    1
    30    18    19    1
    31    19    20    1
    32    20    15    1
    33     6     1   ar
    34    33    24    1
    35    10     5    1
    36    33    28   ar
    37     9    11    1
@<TRIPOS>MOLECULE
*****
 33 37 0 0 0
SMALL
GASTEIGER

@<TRIPOS>ATOM
      1 C           4.9708   -3.0601   21.3327 C.ar    1  UNL1        0.0436
      2 C           6.0314   -3.9851   21.8517 C.ar    1  UNL1        0.0142
      3 C           6.3933   -3.9695   23.3073 C.ar    1  UNL1        0.0010
      4 C           5.6947   -3.0288   24.2438 C.ar    1  UNL1       -0.0032
      5 C           4.6341   -2.1038   23.7248 C.ar    1  UNL1       -0.0091
      6 C           4.2721   -2.1194   22.2692 C.ar    1  UNL1       -0.0101
      7 C           3.2115   -1.1944   21.7501 C.3     1  UNL1        0.0444
      8 C           2.5129   -0.2537   22.6867 C.3     1  UNL1        0.0749
      9 N           2.8748   -0.2382   24.1423 N.3     1  UNL1       -0.2934
     10 C           3.9354   -1.1632   24.6613 C.3     1  UNL1        0.0954
     11 H           2.0216   -0.4484   24.6602 H       1  UNL1        0.1236
     12 N           4.6088   -3.0756   19.8771 N.pl3   1  UNL1       -0.3076
     13 C           3.7010   -4.1428   19.3414 C.3     1  UNL1        0.1121
     14 C           6.7921    1.1308   16.1975 C.3     1  UNL1        0.0896
     15 N           6.2463    0.0792   17.1174 N.3     1  UNL1       -0.2714
     16 C           7.1423   -0.5695   18.1304 C.3     1  UNL1        0.0738
     17 C           6.5965   -1.6212   19.0503 C.3     1  UNL1        0.0371
     18 C           5.1546   -2.0240   18.9572 C.3     1  UNL1        0.0756
     19 C           4.2586   -1.3752   17.9442 C.3     1  UNL1        0.0371
     20 C           4.8044   -0.3236   17.0243 C.3     1  UNL1        0.0738
     21 C           1.4523    0.6713   22.1676 C.3     1  UNL1        0.0886
     22 N           1.3577    2.0734   22.6922 N.3     1  UNL1       -0.2667
     23 C           2.4995    3.0262   22.4960 C.3     1  UNL1        0.0899
     24 C           0.1214    2.5227   23.4130 C.3     1  UNL1        0.0978
     25 C          -0.9603    3.2467   22.6673 C.3     1  UNL1        0.0224
     26 C          -2.1966    3.6959   23.3881 C.3     1  UNL1        0.0065
     27 C          -2.3514    3.4213   24.8546 C.3     1  UNL1        0.0277
     28 C          -1.2698    2.6973   25.6003 C.ar    1  UNL1       -0.0073
     29 C          -1.4246    2.4227   27.0668 C.ar    1  UNL1       -0.0015
     30 C          -0.3430    1.6987   27.8125 C.ar    1  UNL1        0.0203
     31 C           0.8933    1.2494   27.0917 C.ar    1  UNL1        0.0985
     32 N           1.0481    1.5241   25.6252 N.ar    1  UNL1       -0.2471
     33 C          -0.0334    2.2480   24.8795 C.ar    1  UNL1        0.0695
@<TRIPOS>BOND
     1    14    15    1
     2    15    16    1
     3    16    17    1
     4    17    18    1
     5    18    12    1
     6    12    13    1
     7    12     1    1
     8     1     2   ar
     9     2     3   ar
    10     3     4   ar
    11     4     5   ar
    12     5     6   ar
    13     6     7    1
    14     7     8    1
    15     8    21    1
    16    21    22    1
    17    22    23    1
    18    24    22    1
    19    24    25    1
    20    25    26    1
    21    26    27    1
    22    27    28    1
    23    28    29   ar
    24    29    30   ar
    25    30    31   ar
    26    31    32   ar
    27    32    33   ar
    28     8     9    1
    29     9    10    1
    30    18    19    1
    31    19    20    1
    32    20    15    1
    33     6     1   ar
    34    33    24    1
    35    10     5    1
    36    33    28   ar
    37     9    11    1
@<TRIPOS>MOLECULE
*****
 33 37 0 0 0
SMALL
GASTEIGER

@<TRIPOS>ATOM
      1 C           3.2980   -1.5431   20.2940 C.ar    1  UNL1        0.0436
      2 C           3.6385   -2.2797   19.0325 C.ar    1  UNL1        0.0142
      3 C           4.5472   -3.4720   19.0823 C.ar    1  UNL1        0.0010
      4 C           5.1153   -3.9279   20.3935 C.ar    1  UNL1       -0.0032
      5 C           4.7748   -3.1913   21.6551 C.ar    1  UNL1       -0.0091
      6 C           3.8661   -1.9990   21.6053 C.ar    1  UNL1       -0.0101
      7 C           3.5255   -1.2623   22.8669 C.3     1  UNL1        0.0444
      8 C           4.0936   -1.7182   24.1782 C.3     1  UNL1        0.0749
      9 N           5.0024   -2.9106   24.2279 N.3     1  UNL1       -0.2934
     10 C           5.3429   -3.6472   22.9663 C.3     1  UNL1        0.0954
     11 H           4.5668   -3.5868   24.8552 H       1  UNL1        0.1236
     12 N           2.3892   -0.3507   20.2443 N.pl3   1  UNL1       -0.3076
     13 C           0.9164   -0.5201   20.4727 C.3     1  UNL1        0.1121
     14 C           4.6457    5.0964   19.1320 C.3     1  UNL1        0.0896
     15 N           4.0816    3.7347   19.4101 N.3     1  UNL1       -0.2714
     16 C           3.5357    2.9051   18.2859 C.3     1  UNL1        0.0738
     17 C           2.9716    1.5433   18.5640 C.3     1  UNL1        0.0371
     18 C           2.9533    1.0111   19.9663 C.3     1  UNL1        0.0756
     19 C           3.4992    1.8407   21.0905 C.3     1  UNL1        0.0371
     20 C           4.0633    3.2024   20.8124 C.3     1  UNL1        0.0738
     21 C           3.7531   -0.9816   25.4397 C.3     1  UNL1        0.0886
     22 N           3.4966    0.4957   25.3997 N.3     1  UNL1       -0.2667
     23 C           4.6481    1.4557   25.3474 C.3     1  UNL1        0.0899
     24 C           2.0888    1.0131   25.4120 C.3     1  UNL1        0.0978
     25 C           1.5077    1.6359   24.1772 C.3     1  UNL1        0.0224
     26 C           0.0999    2.1533   24.1895 C.3     1  UNL1        0.0065
     27 C          -0.7270    2.0480   25.4365 C.3     1  UNL1        0.0277
     28 C          -0.1460    1.4253   26.6713 C.ar    1  UNL1       -0.0073
     29 C          -0.9729    1.3200   27.9184 C.ar    1  UNL1       -0.0015
     30 C          -0.3919    0.6973   29.1532 C.ar    1  UNL1        0.0203
     31 C           1.0160    0.1799   29.1409 C.ar    1  UNL1        0.0985
     32 N           1.8429    0.2852   27.8938 N.ar    1  UNL1       -0.2471
     33 C           1.2619    0.9079   26.6590 C.ar    1  UNL1        0.0695
@<TRIPOS>BOND
     1    14    15    1
     2    15    16    1
     3    16    17    1
     4    17    18    1
     5    18    12    1
     6    12    13    1
     7    12     1    1
     8     1     2   ar
     9     2     3   ar
    10     3     4   ar
    11     4     5   ar
    12     5     6   ar
    13     6     7    1
    14     7     8    1
    15     8    21    1
    16    21    22    1
    17    22    23    1
    18    24    22    1
    19    24    25    1
    20    25    26    1
    21    26    27    1
    22    27    28    1
    23    28    29   ar
    24    29    30   ar
    25    30    31   ar
    26    31    32   ar
    27    32    33   ar
    28     8     9    1
    29     9    10    1
    30    18    19    1
    31    19    20    1
    32    20    15    1
    33     6     1   ar
    34    33    24    1
    35    10     5    1
    36    33    28   ar
    37     9    11    1
@<TRIPOS>MOLECULE
*****
 33 37 0 0 0
SMALL
GASTEIGER

@<TRIPOS>ATOM
      1 C           4.2929   -0.9353   19.9146 C.ar    1  UNL1        0.0436
      2 C           4.3715   -1.6752   18.6121 C.ar    1  UNL1        0.0142
      3 C           4.5707   -3.1618   18.6049 C.ar    1  UNL1        0.0010
      4 C           4.6912   -3.9087   19.9002 C.ar    1  UNL1       -0.0032
      5 C           4.6125   -3.1688   21.2026 C.ar    1  UNL1       -0.0091
      6 C           4.4134   -1.6822   21.2098 C.ar    1  UNL1       -0.0101
      7 C           4.3347   -0.9423   22.5123 C.3     1  UNL1        0.0444
      8 C           4.4552   -1.6891   23.8076 C.3     1  UNL1        0.0749
      9 N           4.6544   -3.1759   23.8003 N.3     1  UNL1       -0.2934
     10 C           4.7330   -3.9157   22.4979 C.3     1  UNL1        0.0954
     11 H           3.8763   -3.5797   24.3218 H       1  UNL1        0.1236
     12 N           4.0937    0.5514   19.9218 N.pl3   1  UNL1       -0.3076
     13 C           5.2696    1.4665   19.7490 C.3     1  UNL1        0.1121
     14 C          -1.4066    2.8379   20.6420 C.3     1  UNL1        0.0896
     15 N          -0.0315    2.2663   20.4619 N.3     1  UNL1       -0.2714
     16 C           0.1486    0.7879   20.2836 C.3     1  UNL1        0.0738
     17 C           1.5238    0.2163   20.1035 C.3     1  UNL1        0.0371
     18 C           2.7186    1.1230   20.1018 C.3     1  UNL1        0.0756
     19 C           2.5384    2.6015   20.2802 C.3     1  UNL1        0.0371
     20 C           1.1634    3.1731   20.4602 C.3     1  UNL1        0.0738
     21 C           4.3765   -0.9493   25.1100 C.3     1  UNL1        0.0886
     22 N           3.9957    0.5015   25.1267 N.3     1  UNL1       -0.2667
     23 C           5.0610    1.5569   25.0883 C.3     1  UNL1        0.0899
     24 C           2.5499    0.8968   25.1818 C.3     1  UNL1        0.0978
     25 C           1.8284    1.2793   23.9234 C.3     1  UNL1        0.0224
     26 C           0.3826    1.6747   23.9785 C.3     1  UNL1        0.0065
     27 C          -0.3420    1.6875   25.2918 C.3     1  UNL1        0.0277
     28 C           0.3793    1.3050   26.5501 C.ar    1  UNL1       -0.0073
     29 C          -0.3452    1.3178   27.8635 C.ar    1  UNL1       -0.0015
     30 C           0.3762    0.9353   29.1218 C.ar    1  UNL1        0.0203
     31 C           1.8221    0.5400   29.0667 C.ar    1  UNL1        0.0985
     32 N           2.5466    0.5271   27.7534 N.ar    1  UNL1       -0.2471
     33 C           1.8253    0.9096   26.4951 C.ar    1  UNL1        0.0695
@<TRIPOS>BOND
     1    14    15    1
     2    15    16    1
     3    16    17    1
     4    17    18    1
     5    18    12    1
     6    12    13    1
     7    12     1    1
     8     1     2   ar
     9     2     3   ar
    10     3     4   ar
    11     4     5   ar
    12     5     6   ar
    13     6     7    1
    14     7     8    1
    15     8    21    1
    16    21    22    1
    17    22    23    1
    18    24    22    1
    19    24    25    1
    20    25    26    1
    21    26    27    1
    22    27    28    1
    23    28    29   ar
    24    29    30   ar
    25    30    31   ar
    26    31    32   ar
    27    32    33   ar
    28     8     9    1
    29     9    10    1
    30    18    19    1
    31    19    20    1
    32    20    15    1
    33     6     1   ar
    34    33    24    1
    35    10     5    1
    36    33    28   ar
    37     9    11    1
@<TRIPOS>MOLECULE
*****
 33 37 0 0 0
SMALL
GASTEIGER

@<TRIPOS>ATOM
      1 C           6.4938   -2.8649   29.7731 C.ar    1  UNL1        0.0436
      2 C           6.6264   -3.0816   31.2514 C.ar    1  UNL1        0.0142
      3 C           7.0196   -4.4294   31.7795 C.ar    1  UNL1        0.0010
      4 C           7.2804   -5.5603   30.8292 C.ar    1  UNL1       -0.0032
      5 C           7.1478   -5.3436   29.3510 C.ar    1  UNL1       -0.0091
      6 C           6.7545   -3.9958   28.8229 C.ar    1  UNL1       -0.0101
      7 C           6.6220   -3.7790   27.3445 C.3     1  UNL1        0.0444
      8 C           6.8827   -4.9100   26.3943 C.3     1  UNL1        0.0749
      9 N           7.2760   -6.2578   26.9224 N.3     1  UNL1       -0.2934
     10 C           7.4086   -6.4745   28.4007 C.3     1  UNL1        0.0954
     11 H           8.1810   -6.4832   26.5095 H       1  UNL1        0.1236
     12 N           6.1005   -1.5171   29.2450 N.pl3   1  UNL1       -0.3076
     13 C           7.1535   -0.5652   28.7599 C.3     1  UNL1        0.1121
     14 C           0.3158    0.0663   29.0727 C.3     1  UNL1        0.0896
     15 N           1.7620   -0.3295   29.1158 N.3     1  UNL1       -0.2714
     16 C           2.4856   -0.6660   27.8457 C.3     1  UNL1        0.0738
     17 C           3.9318   -1.0619   27.8887 C.3     1  UNL1        0.0371
     18 C           4.6544   -1.1212   29.2019 C.3     1  UNL1        0.0756
     19 C           3.9307   -0.7847   30.4720 C.3     1  UNL1        0.0371
     20 C           2.4845   -0.3889   30.4289 C.3     1  UNL1        0.0738
     21 C           6.7502   -4.6932   24.9160 C.3     1  UNL1        0.0886
     22 N           6.8717   -3.3107   24.3468 N.3     1  UNL1       -0.2667
     23 C           8.1946   -2.6039   24.3696 C.3     1  UNL1        0.0899
     24 C           5.6705   -2.6351   23.7548 C.3     1  UNL1        0.0978
     25 C           4.8510   -1.6958   24.5893 C.3     1  UNL1        0.0224
     26 C           3.6498   -1.0201   23.9973 C.3     1  UNL1        0.0065
     27 C           3.2679   -1.2838   22.5709 C.3     1  UNL1        0.0277
     28 C           4.0873   -2.2230   21.7364 C.ar    1  UNL1       -0.0073
     29 C           3.7054   -2.4867   20.3100 C.ar    1  UNL1       -0.0015
     30 C           4.5249   -3.4260   19.4756 C.ar    1  UNL1        0.0203
     31 C           5.7261   -4.1016   20.0675 C.ar    1  UNL1        0.0985
     32 N           6.1080   -3.8380   21.4940 N.ar    1  UNL1       -0.2471
     33 C           5.2886   -2.8987   22.3284 C.ar    1  UNL1        0.0695
@<TRIPOS>BOND
     1    14    15    1
     2    15    16    1
     3    16    17    1
     4    17    18    1
     5    18    12    1
     6    12    13    1
     7    12     1    1
     8     1     2   ar
     9     2     3   ar
    10     3     4   ar
    11     4     5   ar
    12     5     6   ar
    13     6     7    1
    14     7     8    1
    15     8    21    1
    16    21    22    1
    17    22    23    1
    18    24    22    1
    19    24    25    1
    20    25    26    1
    21    26    27    1
    22    27    28    1
    23    28    29   ar
    24    29    30   ar
    25    30    31   ar
    26    31    32   ar
    27    32    33   ar
    28     8     9    1
    29     9    10    1
    30    18    19    1
    31    19    20    1
    32    20    15    1
    33     6     1   ar
    34    33    24    1
    35    10     5    1
    36    33    28   ar
    37     9    11    1
@<TRIPOS>MOLECULE
*****
 33 37 0 0 0
SMALL
GASTEIGER

@<TRIPOS>ATOM
      1 C           6.5533   -2.6722   26.1274 C.ar    1  UNL1        0.0436
      2 C           6.1205   -2.1054   27.4470 C.ar    1  UNL1        0.0142
      3 C           4.8259   -1.3552   27.5526 C.ar    1  UNL1        0.0010
      4 C           3.9641   -1.1718   26.3386 C.ar    1  UNL1       -0.0032
      5 C           4.3969   -1.7386   25.0190 C.ar    1  UNL1       -0.0091
      6 C           5.6915   -2.4888   24.9134 C.ar    1  UNL1       -0.0101
      7 C           6.1244   -3.0557   23.5938 C.3     1  UNL1        0.0444
      8 C           5.2626   -2.8723   22.3798 C.3     1  UNL1        0.0749
      9 N           3.9679   -2.1221   22.4855 N.3     1  UNL1       -0.2934
     10 C           3.5351   -1.5553   23.8051 C.3     1  UNL1        0.0954
     11 H           3.2321   -2.7607   22.1838 H       1  UNL1        0.1236
     12 N           7.8480   -3.4224   26.0217 N.pl3   1  UNL1       -0.3076
     13 C           9.0826   -2.7229   25.5353 C.3     1  UNL1        0.1121
     14 C           8.0882   -9.2209   27.5443 C.3     1  UNL1        0.0896
     15 N           8.0281   -7.7713   27.1637 N.3     1  UNL1       -0.2714
     16 C           7.7841   -7.3802   25.7363 C.3     1  UNL1        0.0738
     17 C           7.7241   -5.9305   25.3556 C.3     1  UNL1        0.0371
     18 C           7.9080   -4.8720   26.4023 C.3     1  UNL1        0.0756
     19 C           8.1520   -5.2632   27.8298 C.3     1  UNL1        0.0371
     20 C           8.2121   -6.7128   28.2104 C.3     1  UNL1        0.0738
     21 C           5.6954   -3.4391   21.0602 C.3     1  UNL1        0.0886
     22 N           4.7838   -3.3538   19.8721 N.3     1  UNL1       -0.2667
     23 C           3.9099   -4.5187   19.5121 C.3     1  UNL1        0.0899
     24 C           4.7461   -2.1038   19.0439 C.3     1  UNL1        0.0978
     25 C           5.9050   -1.7563   18.1571 C.3     1  UNL1        0.0224
     26 C           5.8673   -0.5063   17.3289 C.3     1  UNL1        0.0065
     27 C           4.6707    0.3963   17.3874 C.3     1  UNL1        0.0277
     28 C           3.5118    0.0489   18.2741 C.ar    1  UNL1       -0.0073
     29 C           2.3152    0.9516   18.3326 C.ar    1  UNL1       -0.0015
     30 C           1.1563    0.6041   19.2194 C.ar    1  UNL1        0.0203
     31 C           1.1940   -0.6459   20.0475 C.ar    1  UNL1        0.0985
     32 N           2.3906   -1.5486   19.9891 N.ar    1  UNL1       -0.2471
     33 C           3.5495   -1.2012   19.1024 C.ar    1  UNL1        0.0695
@<TRIPOS>BOND
     1    14    15    1
     2    15    16    1
     3    16    17    1
     4    17    18    1
     5    18    12    1
     6    12    13    1
     7    12     1    1
     8     1     2   ar
     9     2     3   ar
    10     3     4   ar
    11     4     5   ar
    12     5     6   ar
    13     6     7    1
    14     7     8    1
    15     8    21    1
    16    21    22    1
    17    22    23    1
    18    24    22    1
    19    24    25    1
    20    25    26    1
    21    26    27    1
    22    27    28    1
    23    28    29   ar
    24    29    30   ar
    25    30    31   ar
    26    31    32   ar
    27    32    33   ar
    28     8     9    1
    29     9    10    1
    30    18    19    1
    31    19    20    1
    32    20    15    1
    33     6     1   ar
    34    33    24    1
    35    10     5    1
    36    33    28   ar
    37     9    11    1
@<TRIPOS>MOLECULE
*****
 33 37 0 0 0
SMALL
GASTEIGER

@<TRIPOS>ATOM
      1 C           3.7034   -0.2532   19.2431 C.ar    1  UNL1        0.0436
      2 C           4.3748   -1.1545   20.2366 C.ar    1  UNL1        0.0142
      3 C           3.7883   -1.3300   21.6059 C.ar    1  UNL1        0.0010
      4 C           2.5305   -0.6044   21.9819 C.ar    1  UNL1       -0.0032
      5 C           1.8591    0.2968   20.9884 C.ar    1  UNL1       -0.0091
      6 C           2.4455    0.4724   19.6190 C.ar    1  UNL1       -0.0101
      7 C           1.7742    1.3736   18.6255 C.3     1  UNL1        0.0444
      8 C           0.5163    2.0993   19.0014 C.3     1  UNL1        0.0749
      9 N          -0.0701    1.9237   20.3709 N.3     1  UNL1       -0.2934
     10 C           0.6013    1.0225   21.3643 C.3     1  UNL1        0.0954
     11 H          -1.0169    1.5666   20.2422 H       1  UNL1        0.1236
     12 N           4.2898   -0.0776   17.8737 N.pl3   1  UNL1       -0.3076
     13 C           3.7927   -0.9140   16.7320 C.3     1  UNL1        0.1121
     14 C           8.6238    3.9703   16.9626 C.3     1  UNL1        0.0896
     15 N           7.5403    2.9583   17.1903 N.3     1  UNL1       -0.2714
     16 C           7.6411    1.5982   16.5659 C.3     1  UNL1        0.0738
     17 C           6.5576    0.5862   16.7937 C.3     1  UNL1        0.0371
     18 C           5.3733    0.9343   17.6459 C.3     1  UNL1        0.0756
     19 C           5.2725    2.2945   18.2703 C.3     1  UNL1        0.0371
     20 C           6.3560    3.3065   18.0425 C.3     1  UNL1        0.0738
     21 C          -0.1551    3.0005   18.0079 C.3     1  UNL1        0.0886
     22 N          -1.0123    4.1355   18.4844 N.3     1  UNL1       -0.2667
     23 C          -0.3846    5.4492   18.8455 C.3     1  UNL1        0.0899
     24 C          -2.4971    3.9568   18.5998 C.3     1  UNL1        0.0978
     25 C          -3.3512    3.9612   17.3666 C.3     1  UNL1        0.0224
     26 C          -4.8360    3.7825   17.4820 C.3     1  UNL1        0.0065
     27 C          -5.4668    3.5994   18.8306 C.3     1  UNL1        0.0277
     28 C          -4.6128    3.5950   20.0637 C.ar    1  UNL1       -0.0073
     29 C          -5.2437    3.4119   21.4122 C.ar    1  UNL1       -0.0015
     30 C          -4.3896    3.4075   22.6454 C.ar    1  UNL1        0.0203
     31 C          -2.9048    3.5862   22.5300 C.ar    1  UNL1        0.0985
     32 N          -2.2740    3.7693   21.1815 N.ar    1  UNL1       -0.2471
     33 C          -3.1279    3.7737   19.9483 C.ar    1  UNL1        0.0695
@<TRIPOS>BOND
     1    14    15    1
     2    15    16    1
     3    16    17    1
     4    17    18    1
     5    18    12    1
     6    12    13    1
     7    12     1    1
     8     1     2   ar
     9     2     3   ar
    10     3     4   ar
    11     4     5   ar
    12     5     6   ar
    13     6     7    1
    14     7     8    1
    15     8    21    1
    16    21    22    1
    17    22    23    1
    18    24    22    1
    19    24    25    1
    20    25    26    1
    21    26    27    1
    22    27    28    1
    23    28    29   ar
    24    29    30   ar
    25    30    31   ar
    26    31    32   ar
    27    32    33   ar
    28     8     9    1
    29     9    10    1
    30    18    19    1
    31    19    20    1
    32    20    15    1
    33     6     1   ar
    34    33    24    1
    35    10     5    1
    36    33    28   ar
    37     9    11    1
