@<TRIPOS>MOLECULE
*****
 41 44 0 0 0
SMALL
GASTEIGER

@<TRIPOS>ATOM
      1 C           5.4943    4.7473   38.6187 C.3     1  UNL1        0.1122
      2 N           5.4219    3.4283   37.9080 N.am    1  UNL1       -0.2870
      3 C           5.3192    3.3870   36.4121 C.2     1  UNL1        0.3041
      4 O           5.2889    4.6647   35.6269 O.2     1  UNL1       -0.2526
      5 N           5.2468    2.0680   35.7015 N.am    1  UNL1       -0.2625
      6 C           5.2772    0.7904   36.4867 C.3     1  UNL1        0.0951
      7 C           5.2048   -0.5286   35.7761 C.3     1  UNL1        0.0246
      8 C           5.1021   -0.5700   34.2802 C.3     1  UNL1        0.0374
      9 C           5.0717    0.7077   33.4950 C.3     1  UNL1        0.0942
     10 C           5.1441    2.0267   34.2056 C.3     1  UNL1        0.1145
     11 H           5.4419    2.5898   38.4234 H       1  UNL1        0.1510
     12 N           4.9690    0.6664   31.9990 N.am    1  UNL1       -0.2885
     13 C           3.6217    0.6493   31.3399 C.2     1  UNL1        0.3059
     14 O           2.3770    0.6734   32.1768 O.2     1  UNL1       -0.2524
     15 N           3.5190    0.6080   29.8440 N.am    1  UNL1       -0.2485
     16 H           5.7859    0.6505   31.4497 H       1  UNL1        0.1510
     17 H           4.3359    0.5921   29.2947 H       1  UNL1        0.1583
     18 C           2.1716    0.5909   29.1849 C.ar    1  UNL1        0.1664
     19 N           1.0017   -0.2550   29.5920 N.ar    1  UNL1       -0.2282
     20 C          -0.1353    0.0479   28.6618 C.ar    1  UNL1        0.0701
     21 C          -1.5000   -0.5732   28.7058 C.3     1  UNL1        0.0528
     22 C           0.3319    1.0811   27.6797 C.ar    1  UNL1        0.0803
     23 S           1.7577    1.4166   28.0030 S.2     1  UNL1       -0.0488
     24 C          -0.4835    1.6744   26.5693 C.2     1  UNL1        0.1807
     25 C          -1.4682    2.7671   26.8632 C.3     1  UNL1        0.0779
     26 O          -0.3141    1.1751   25.1650 O.2     1  UNL1       -0.2908
     27 C           5.0297   -1.8890   33.5695 C.3     1  UNL1        0.0738
     28 N           6.2543   -2.4565   32.9151 N.3     1  UNL1       -0.2726
     29 C           7.5174   -1.6492   32.8594 C.3     1  UNL1        0.0721
     30 C           8.7419   -2.2168   32.2050 C.3     1  UNL1        0.0174
     31 C           8.7035   -3.5915   31.6063 C.3     1  UNL1        0.0031
     32 C           7.4405   -4.3988   31.6619 C.3     1  UNL1        0.0204
     33 C           6.2158   -3.8313   32.3163 C.3     1  UNL1        0.0724
     34 C           7.4020   -5.7735   31.0631 C.3     1  UNL1        0.0277
     35 C           7.4093   -5.9429   29.5728 C.ar    1  UNL1       -0.0220
     36 C           8.3431   -6.9281   28.9344 C.ar    1  UNL1       -0.0020
     37 C           8.3503   -7.0975   27.4440 C.ar    1  UNL1        0.0293
     38 C           7.4237   -6.2818   26.5920 C.ar    1  UNL1        0.1401
     39 F           7.4310   -6.4512   25.1016 F       1  UNL1       -0.2042
     40 C           6.4899   -5.2967   27.2303 C.ar    1  UNL1        0.0293
     41 C           6.4827   -5.1272   28.7207 C.ar    1  UNL1       -0.0020
@<TRIPOS>BOND
     1     1     2    1
     2     2     3   am
     3     3     4    2
     4     3     5   am
     5     5     6    1
     6     6     7    1
     7     7     8    1
     8     8    27    1
     9    27    28    1
    10    28    29    1
    11    29    30    1
    12    30    31    1
    13    31    32    1
    14    32    34    1
    15    34    35    1
    16    35    36   ar
    17    36    37   ar
    18    37    38   ar
    19    38    39    1
    20    38    40   ar
    21    40    41   ar
    22    32    33    1
    23     8     9    1
    24     9    12    1
    25    12    13   am
    26    13    14    2
    27    13    15   am
    28    15    18    1
    29    18    19   ar
    30    19    20   ar
    31    20    21    1
    32    20    22   ar
    33    22    24    1
    34    24    25    1
    35    24    26    2
    36    22    23   ar
    37     9    10    1
    38    10     5    1
    39    33    28    1
    40    23    18   ar
    41    41    35   ar
    42     2    11    1
    43    12    16    1
    44    15    17    1
@<TRIPOS>MOLECULE
*****
 41 44 0 0 0
SMALL
GASTEIGER

@<TRIPOS>ATOM
      1 C           3.5380   -0.6295   17.1875 C.3     1  UNL1        0.1122
      2 N           4.5046   -1.0793   18.2427 N.am    1  UNL1       -0.2870
      3 C           4.0160   -1.3778   19.6291 C.2     1  UNL1        0.3041
      4 O           2.5609   -1.2265   19.9603 O.2     1  UNL1       -0.2526
      5 N           4.9826   -1.8276   20.6843 N.am    1  UNL1       -0.2625
      6 C           6.4377   -1.9790   20.3531 C.3     1  UNL1        0.0951
      7 C           7.4042   -2.4288   21.4083 C.3     1  UNL1        0.0246
      8 C           6.9157   -2.7273   22.7947 C.3     1  UNL1        0.0374
      9 C           5.4606   -2.5760   23.1259 C.3     1  UNL1        0.0942
     10 C           4.4940   -2.1261   22.0707 C.3     1  UNL1        0.1145
     11 H           5.4596   -1.1786   18.0253 H       1  UNL1        0.1510
     12 N           4.9720   -2.8745   24.5124 N.am    1  UNL1       -0.2885
     13 C           4.6123   -1.7511   25.4389 C.2     1  UNL1        0.3059
     14 O           4.7412   -0.3291   24.9791 O.2     1  UNL1       -0.2524
     15 N           4.1237   -2.0496   26.8254 N.am    1  UNL1       -0.2485
     16 H           4.8873   -3.8078   24.8142 H       1  UNL1        0.1510
     17 H           4.0391   -2.9829   27.1272 H       1  UNL1        0.1583
     18 C           3.7640   -0.9262   27.7520 C.ar    1  UNL1        0.1664
     19 N           4.7195   -0.1498   28.6088 N.ar    1  UNL1       -0.2282
     20 C           3.9318    0.8743   29.3708 C.ar    1  UNL1        0.0701
     21 C           4.4887    1.8675   30.3472 C.3     1  UNL1        0.0528
     22 C           2.4893    0.7309   28.9849 C.ar    1  UNL1        0.0803
     23 S           2.3857   -0.3819   27.9844 S.2     1  UNL1       -0.0488
     24 C           1.3506    1.5554   29.5076 C.2     1  UNL1        0.1807
     25 C           1.3267    3.0365   29.2714 C.3     1  UNL1        0.0779
     26 O           0.2357    0.8989   30.2667 O.2     1  UNL1       -0.2908
     27 C           7.8822   -3.1771   23.8499 C.3     1  UNL1        0.0738
     28 N           8.0323   -4.6379   24.1559 N.3     1  UNL1       -0.2726
     29 C           8.5504   -5.5749   23.1053 C.3     1  UNL1        0.0721
     30 C           8.7004   -7.0356   23.4113 C.3     1  UNL1        0.0174
     31 C           8.3324   -7.5594   24.7678 C.3     1  UNL1        0.0031
     32 C           7.8144   -6.6225   25.8184 C.3     1  UNL1        0.0204
     33 C           7.6643   -5.1617   25.5124 C.3     1  UNL1        0.0724
     34 C           7.4464   -7.1463   27.1749 C.3     1  UNL1        0.0277
     35 C           7.6777   -6.3020   28.3930 C.ar    1  UNL1       -0.0220
     36 C           6.6045   -5.3716   28.8754 C.ar    1  UNL1       -0.0020
     37 C           6.8358   -4.5273   30.0935 C.ar    1  UNL1        0.0293
     38 C           8.1401   -4.6134   30.8291 C.ar    1  UNL1        0.1401
     39 F           8.3714   -3.7692   32.0472 F       1  UNL1       -0.2042
     40 C           9.2133   -5.5438   30.3467 C.ar    1  UNL1        0.0293
     41 C           8.9820   -6.3882   29.1286 C.ar    1  UNL1       -0.0020
@<TRIPOS>BOND
     1     1     2    1
     2     2     3   am
     3     3     4    2
     4     3     5   am
     5     5     6    1
     6     6     7    1
     7     7     8    1
     8     8    27    1
     9    27    28    1
    10    28    29    1
    11    29    30    1
    12    30    31    1
    13    31    32    1
    14    32    34    1
    15    34    35    1
    16    35    36   ar
    17    36    37   ar
    18    37    38   ar
    19    38    39    1
    20    38    40   ar
    21    40    41   ar
    22    32    33    1
    23     8     9    1
    24     9    12    1
    25    12    13   am
    26    13    14    2
    27    13    15   am
    28    15    18    1
    29    18    19   ar
    30    19    20   ar
    31    20    21    1
    32    20    22   ar
    33    22    24    1
    34    24    25    1
    35    24    26    2
    36    22    23   ar
    37     9    10    1
    38    10     5    1
    39    33    28    1
    40    23    18   ar
    41    41    35   ar
    42     2    11    1
    43    12    16    1
    44    15    17    1
@<TRIPOS>MOLECULE
*****
 41 44 0 0 0
SMALL
GASTEIGER

@<TRIPOS>ATOM
      1 C          -5.1100    6.6483   26.2242 C.3     1  UNL1        0.1122
      2 N          -3.8863    6.0185   25.6273 N.am    1  UNL1       -0.2870
      3 C          -3.3628    4.7260   26.1796 C.2     1  UNL1        0.3041
      4 O          -4.0629    4.0631   27.3287 O.2     1  UNL1       -0.2526
      5 N          -2.1392    4.0962   25.5828 N.am    1  UNL1       -0.2625
      6 C          -1.4391    4.7591   24.4337 C.3     1  UNL1        0.0951
      7 C          -0.2155    4.1294   23.8369 C.3     1  UNL1        0.0246
      8 C           0.3081    2.8368   24.3892 C.3     1  UNL1        0.0374
      9 C          -0.3920    2.1739   25.5383 C.3     1  UNL1        0.0942
     10 C          -1.6156    2.8036   26.1351 C.3     1  UNL1        0.1145
     11 H          -3.4269    6.4536   24.8731 H       1  UNL1        0.1510
     12 N           0.1315    0.8813   26.0906 N.am    1  UNL1       -0.2885
     13 C           1.1042    0.8928   27.2325 C.2     1  UNL1        0.3059
     14 O           1.5533    2.1969   27.8220 O.2     1  UNL1       -0.2524
     15 N           1.6277   -0.3999   27.7848 N.am    1  UNL1       -0.2485
     16 H          -0.1632    0.0253   25.7037 H       1  UNL1        0.1510
     17 H           1.3329   -1.2558   27.3979 H       1  UNL1        0.1583
     18 C           2.6003   -0.3884   28.9267 C.ar    1  UNL1        0.1664
     19 N           4.0956   -0.3618   28.8109 N.ar    1  UNL1       -0.2282
     20 C           4.6679   -0.3584   30.1974 C.ar    1  UNL1        0.0701
     21 C           6.1258   -0.3347   30.5494 C.3     1  UNL1        0.0528
     22 C           3.5263   -0.3830   31.1702 C.ar    1  UNL1        0.0803
     23 S           2.2485   -0.4015   30.3848 S.2     1  UNL1       -0.0488
     24 C           3.6422   -0.3881   32.6656 C.2     1  UNL1        0.1807
     25 C           3.5619    0.9010   33.4285 C.3     1  UNL1        0.0779
     26 O           3.8384   -1.6822   33.3983 O.2     1  UNL1       -0.2908
     27 C           1.5317    2.2070   23.7924 C.3     1  UNL1        0.0738
     28 N           1.4874    1.6561   22.3980 N.3     1  UNL1       -0.2726
     29 C           0.1761    1.5388   21.6791 C.3     1  UNL1        0.0721
     30 C           0.1318    0.9878   20.2847 C.3     1  UNL1        0.0174
     31 C           1.3988    0.5541   19.6091 C.3     1  UNL1        0.0031
     32 C           2.7101    0.6713   20.3279 C.3     1  UNL1        0.0204
     33 C           2.7545    1.2223   21.7224 C.3     1  UNL1        0.0724
     34 C           3.9772    0.2375   19.6523 C.3     1  UNL1        0.0277
     35 C           4.2040   -1.2128   19.3436 C.ar    1  UNL1       -0.0220
     36 C           5.3255   -1.6196   18.4343 C.ar    1  UNL1       -0.0020
     37 C           5.5524   -3.0698   18.1257 C.ar    1  UNL1        0.0293
     38 C           4.6577   -4.1133   18.7263 C.ar    1  UNL1        0.1401
     39 F           4.8845   -5.5635   18.4177 F       1  UNL1       -0.2042
     40 C           3.5362   -3.7065   19.6356 C.ar    1  UNL1        0.0293
     41 C           3.3093   -2.2562   19.9442 C.ar    1  UNL1       -0.0020
@<TRIPOS>BOND
     1     1     2    1
     2     2     3   am
     3     3     4    2
     4     3     5   am
     5     5     6    1
     6     6     7    1
     7     7     8    1
     8     8    27    1
     9    27    28    1
    10    28    29    1
    11    29    30    1
    12    30    31    1
    13    31    32    1
    14    32    34    1
    15    34    35    1
    16    35    36   ar
    17    36    37   ar
    18    37    38   ar
    19    38    39    1
    20    38    40   ar
    21    40    41   ar
    22    32    33    1
    23     8     9    1
    24     9    12    1
    25    12    13   am
    26    13    14    2
    27    13    15   am
    28    15    18    1
    29    18    19   ar
    30    19    20   ar
    31    20    21    1
    32    20    22   ar
    33    22    24    1
    34    24    25    1
    35    24    26    2
    36    22    23   ar
    37     9    10    1
    38    10     5    1
    39    33    28    1
    40    23    18   ar
    41    41    35   ar
    42     2    11    1
    43    12    16    1
    44    15    17    1
@<TRIPOS>MOLECULE
*****
 41 44 0 0 0
SMALL
GASTEIGER

@<TRIPOS>ATOM
      1 C           0.6520    4.0343   29.7100 C.3     1  UNL1        0.1122
      2 N           1.8028    3.1113   29.4384 N.am    1  UNL1       -0.2870
      3 C           1.7200    2.1193   28.3164 C.2     1  UNL1        0.3041
      4 O           0.4864    2.0503   27.4659 O.2     1  UNL1       -0.2526
      5 N           2.8708    1.1963   28.0448 N.am    1  UNL1       -0.2625
      6 C           4.1044    1.2654   28.8953 C.3     1  UNL1        0.0951
      7 C           5.2552    0.3424   28.6237 C.3     1  UNL1        0.0246
      8 C           5.1724   -0.6496   27.5017 C.3     1  UNL1        0.0374
      9 C           3.9388   -0.7186   26.6512 C.3     1  UNL1        0.0942
     10 C           2.7880    0.2043   26.9228 C.3     1  UNL1        0.1145
     11 H           2.6125    3.1566   29.9967 H       1  UNL1        0.1510
     12 N           3.8559   -1.7107   25.5291 N.am    1  UNL1       -0.2885
     13 C           4.1166   -1.2713   24.1188 C.2     1  UNL1        0.3059
     14 O           4.4601    0.1601   23.8305 O.2     1  UNL1       -0.2524
     15 N           4.0337   -2.2633   22.9967 N.am    1  UNL1       -0.2485
     16 H           3.6305   -2.6502   25.7183 H       1  UNL1        0.1510
     17 H           3.8082   -3.2028   23.1859 H       1  UNL1        0.1583
     18 C           4.2943   -1.8240   21.5864 C.ar    1  UNL1        0.1664
     19 N           3.2792   -1.2605   20.6366 N.ar    1  UNL1       -0.2282
     20 C           3.9733   -0.9592   19.3415 C.ar    1  UNL1        0.0701
     21 C           3.3354   -0.3820   18.1127 C.3     1  UNL1        0.0528
     22 C           5.4175   -1.3364   19.4908 C.ar    1  UNL1        0.0803
     23 S           5.6158   -1.8709   20.8782 S.2     1  UNL1       -0.0488
     24 C           6.4771   -1.2027   18.4376 C.2     1  UNL1        0.1807
     25 C           7.2936    0.0525   18.3504 C.3     1  UNL1        0.0779
     26 O           6.7202   -2.3242   17.4716 O.2     1  UNL1       -0.2908
     27 C           6.3232   -1.5726   27.2301 C.3     1  UNL1        0.0738
     28 N           6.4594   -2.8497   28.0049 N.3     1  UNL1       -0.2726
     29 C           6.4632   -4.1663   27.2861 C.3     1  UNL1        0.0721
     30 C           6.5993   -5.4434   28.0609 C.3     1  UNL1        0.0174
     31 C           6.7316   -5.4041   29.5546 C.3     1  UNL1        0.0031
     32 C           6.7278   -4.0875   30.2734 C.3     1  UNL1        0.0204
     33 C           6.5917   -2.8103   29.4986 C.3     1  UNL1        0.0724
     34 C           6.8602   -4.0482   31.7670 C.3     1  UNL1        0.0277
     35 C           6.3503   -2.8643   32.5342 C.ar    1  UNL1       -0.0220
     36 C           7.2824   -1.7452   32.8933 C.ar    1  UNL1       -0.0020
     37 C           6.7725   -0.5614   33.6604 C.ar    1  UNL1        0.0293
     38 C           5.3306   -0.4966   34.0685 C.ar    1  UNL1        0.1401
     39 F           4.8207    0.6872   34.8357 F       1  UNL1       -0.2042
     40 C           4.3985   -1.6157   33.7095 C.ar    1  UNL1        0.0293
     41 C           4.9083   -2.7996   32.9423 C.ar    1  UNL1       -0.0020
@<TRIPOS>BOND
     1     1     2    1
     2     2     3   am
     3     3     4    2
     4     3     5   am
     5     5     6    1
     6     6     7    1
     7     7     8    1
     8     8    27    1
     9    27    28    1
    10    28    29    1
    11    29    30    1
    12    30    31    1
    13    31    32    1
    14    32    34    1
    15    34    35    1
    16    35    36   ar
    17    36    37   ar
    18    37    38   ar
    19    38    39    1
    20    38    40   ar
    21    40    41   ar
    22    32    33    1
    23     8     9    1
    24     9    12    1
    25    12    13   am
    26    13    14    2
    27    13    15   am
    28    15    18    1
    29    18    19   ar
    30    19    20   ar
    31    20    21    1
    32    20    22   ar
    33    22    24    1
    34    24    25    1
    35    24    26    2
    36    22    23   ar
    37     9    10    1
    38    10     5    1
    39    33    28    1
    40    23    18   ar
    41    41    35   ar
    42     2    11    1
    43    12    16    1
    44    15    17    1
@<TRIPOS>MOLECULE
*****
 41 44 0 0 0
SMALL
GASTEIGER

@<TRIPOS>ATOM
      1 C          -6.2312    7.0984   16.8871 C.3     1  UNL1        0.1122
      2 N          -5.1426    6.9008   17.9000 N.am    1  UNL1       -0.2870
      3 C          -4.6610    5.5175   18.2233 C.2     1  UNL1        0.3041
      4 O          -5.2680    4.3318   17.5336 O.2     1  UNL1       -0.2526
      5 N          -3.5724    5.3199   19.2362 N.am    1  UNL1       -0.2625
      6 C          -2.9655    6.5056   19.9258 C.3     1  UNL1        0.0951
      7 C          -1.8769    6.3080   20.9387 C.3     1  UNL1        0.0246
      8 C          -1.3953    4.9247   21.2620 C.3     1  UNL1        0.0374
      9 C          -2.0023    3.7390   20.5723 C.3     1  UNL1        0.0942
     10 C          -3.0908    3.9366   19.5594 C.3     1  UNL1        0.1145
     11 H          -4.7443    7.6790   18.3527 H       1  UNL1        0.1510
     12 N          -1.5207    2.3557   20.8955 N.am    1  UNL1       -0.2885
     13 C          -0.3000    1.8088   20.2167 C.2     1  UNL1        0.3059
     14 O           0.4391    2.6452   19.2146 O.2     1  UNL1       -0.2524
     15 N           0.1816    0.4254   20.5399 N.am    1  UNL1       -0.2485
     16 H          -2.0058    1.8067   21.5532 H       1  UNL1        0.1510
     17 H          -0.3035   -0.1236   21.1976 H       1  UNL1        0.1583
     18 C           1.4022   -0.1215   19.8611 C.ar    1  UNL1        0.1664
     19 N           1.8473    0.1893   18.4628 N.ar    1  UNL1       -0.2282
     20 C           3.1123   -0.5723   18.1989 C.ar    1  UNL1        0.0701
     21 C           3.9019   -0.5554   16.9236 C.3     1  UNL1        0.0528
     22 C           3.4491   -1.3539   19.4341 C.ar    1  UNL1        0.0803
     23 S           2.3922   -1.0753   20.4614 S.2     1  UNL1       -0.0488
     24 C           4.6346   -2.2558   19.6109 C.2     1  UNL1        0.1807
     25 C           5.8155   -1.7937   20.4121 C.3     1  UNL1        0.0779
     26 O           4.6391   -3.6197   18.9866 O.2     1  UNL1       -0.2908
     27 C          -0.3067    4.7271   22.2749 C.3     1  UNL1        0.0738
     28 N          -0.5438    3.8517   23.4695 N.3     1  UNL1       -0.2726
     29 C           0.3529    2.6774   23.7286 C.3     1  UNL1        0.0721
     30 C           0.1159    1.8019   24.9233 C.3     1  UNL1        0.0174
     31 C          -1.0179    2.1006   25.8589 C.3     1  UNL1        0.0031
     32 C          -1.9146    3.2748   25.5998 C.3     1  UNL1        0.0204
     33 C          -1.6776    4.1503   24.4051 C.3     1  UNL1        0.0724
     34 C          -3.0484    3.5735   26.5354 C.3     1  UNL1        0.0277
     35 C          -4.3175    4.1744   26.0081 C.ar    1  UNL1       -0.0220
     36 C          -4.9275    5.3605   26.6946 C.ar    1  UNL1       -0.0020
     37 C          -6.1966    5.9615   26.1672 C.ar    1  UNL1        0.0293
     38 C          -6.8557    5.3765   24.9534 C.ar    1  UNL1        0.1401
     39 F          -8.1249    5.9775   24.4261 F       1  UNL1       -0.2042
     40 C          -6.2458    4.1905   24.2669 C.ar    1  UNL1        0.0293
     41 C          -4.9766    3.5894   24.7943 C.ar    1  UNL1       -0.0020
@<TRIPOS>BOND
     1     1     2    1
     2     2     3   am
     3     3     4    2
     4     3     5   am
     5     5     6    1
     6     6     7    1
     7     7     8    1
     8     8    27    1
     9    27    28    1
    10    28    29    1
    11    29    30    1
    12    30    31    1
    13    31    32    1
    14    32    34    1
    15    34    35    1
    16    35    36   ar
    17    36    37   ar
    18    37    38   ar
    19    38    39    1
    20    38    40   ar
    21    40    41   ar
    22    32    33    1
    23     8     9    1
    24     9    12    1
    25    12    13   am
    26    13    14    2
    27    13    15   am
    28    15    18    1
    29    18    19   ar
    30    19    20   ar
    31    20    21    1
    32    20    22   ar
    33    22    24    1
    34    24    25    1
    35    24    26    2
    36    22    23   ar
    37     9    10    1
    38    10     5    1
    39    33    28    1
    40    23    18   ar
    41    41    35   ar
    42     2    11    1
    43    12    16    1
    44    15    17    1
@<TRIPOS>MOLECULE
*****
 41 44 0 0 0
SMALL
GASTEIGER

@<TRIPOS>ATOM
      1 C          -1.6357    0.2510   29.7169 C.3     1  UNL1        0.1122
      2 N          -1.3325    0.8629   28.3813 N.am    1  UNL1       -0.2870
      3 C           0.0169    0.6680   27.7560 C.2     1  UNL1        0.3041
      4 O           1.0631   -0.1388   28.4663 O.2     1  UNL1       -0.2526
      5 N           0.3201    1.2799   26.4205 N.am    1  UNL1       -0.2625
      6 C          -0.7261    2.0867   25.7103 C.3     1  UNL1        0.0951
      7 C          -0.4229    2.6986   24.3747 C.3     1  UNL1        0.0246
      8 C           0.9265    2.5037   23.7494 C.3     1  UNL1        0.0374
      9 C           1.9727    1.6969   24.4596 C.3     1  UNL1        0.0942
     10 C           1.6695    1.0850   25.7952 C.3     1  UNL1        0.1145
     11 H          -2.0192    1.3925   27.9152 H       1  UNL1        0.1510
     12 N           3.3222    1.5019   23.8343 N.am    1  UNL1       -0.2885
     13 C           3.6574    0.2029   23.1635 C.2     1  UNL1        0.3059
     14 O           2.6431   -0.9013   23.1179 O.2     1  UNL1       -0.2524
     15 N           5.0069    0.0079   22.5382 N.am    1  UNL1       -0.2485
     16 H           3.9879    2.2266   23.8643 H       1  UNL1        0.1510
     17 H           5.6726    0.7326   22.5681 H       1  UNL1        0.1583
     18 C           5.3420   -1.2911   21.8673 C.ar    1  UNL1        0.1664
     19 N           6.6423   -2.0307   21.9778 N.ar    1  UNL1       -0.2282
     20 C           6.5397   -3.2753   21.1470 C.ar    1  UNL1        0.0701
     21 C           7.6125   -4.3089   20.9709 C.3     1  UNL1        0.0528
     22 C           5.1759   -3.3050   20.5230 C.ar    1  UNL1        0.0803
     23 S           4.4357   -2.0787   20.9682 S.2     1  UNL1       -0.0488
     24 C           4.6455   -4.3735   19.6136 C.2     1  UNL1        0.1807
     25 C           3.2606   -4.2582   19.0489 C.3     1  UNL1        0.0779
     26 O           5.4999   -5.5571   19.2687 O.2     1  UNL1       -0.2908
     27 C           1.2297    3.1156   22.4139 C.3     1  UNL1        0.0738
     28 N           1.4393    2.2368   21.2165 N.3     1  UNL1       -0.2726
     29 C           0.4545    1.1498   20.9023 C.3     1  UNL1        0.0721
     30 C           0.6641    0.2711   19.7049 C.3     1  UNL1        0.0174
     31 C           1.8585    0.4792   18.8217 C.3     1  UNL1        0.0031
     32 C           2.8433    1.5661   19.1358 C.3     1  UNL1        0.0204
     33 C           2.6337    2.4450   20.3333 C.3     1  UNL1        0.0724
     34 C           4.0377    1.7743   18.2526 C.3     1  UNL1        0.0277
     35 C           5.2455    0.8981   18.4057 C.ar    1  UNL1       -0.0220
     36 C           6.3560    1.3061   19.3279 C.ar    1  UNL1       -0.0020
     37 C           7.5638    0.4300   19.4810 C.ar    1  UNL1        0.0293
     38 C           7.6612   -0.8542   18.7120 C.ar    1  UNL1        0.1401
     39 F           8.8690   -1.7304   18.8651 F       1  UNL1       -0.2042
     40 C           6.5508   -1.2623   17.7899 C.ar    1  UNL1        0.0293
     41 C           5.3429   -0.3861   17.6367 C.ar    1  UNL1       -0.0020
@<TRIPOS>BOND
     1     1     2    1
     2     2     3   am
     3     3     4    2
     4     3     5   am
     5     5     6    1
     6     6     7    1
     7     7     8    1
     8     8    27    1
     9    27    28    1
    10    28    29    1
    11    29    30    1
    12    30    31    1
    13    31    32    1
    14    32    34    1
    15    34    35    1
    16    35    36   ar
    17    36    37   ar
    18    37    38   ar
    19    38    39    1
    20    38    40   ar
    21    40    41   ar
    22    32    33    1
    23     8     9    1
    24     9    12    1
    25    12    13   am
    26    13    14    2
    27    13    15   am
    28    15    18    1
    29    18    19   ar
    30    19    20   ar
    31    20    21    1
    32    20    22   ar
    33    22    24    1
    34    24    25    1
    35    24    26    2
    36    22    23   ar
    37     9    10    1
    38    10     5    1
    39    33    28    1
    40    23    18   ar
    41    41    35   ar
    42     2    11    1
    43    12    16    1
    44    15    17    1
@<TRIPOS>MOLECULE
*****
 41 44 0 0 0
SMALL
GASTEIGER

@<TRIPOS>ATOM
      1 C           1.6000    3.1621   29.8552 C.3     1  UNL1        0.1122
      2 N           1.2334    3.6117   28.4720 N.am    1  UNL1       -0.2870
      3 C           1.0063    2.5985   27.3895 C.2     1  UNL1        0.3041
      4 O           1.1460    1.1357   27.6903 O.2     1  UNL1       -0.2526
      5 N           0.6397    3.0481   26.0063 N.am    1  UNL1       -0.2625
      6 C           0.5000    4.5110   25.7055 C.3     1  UNL1        0.0951
      7 C           0.1334    4.9606   24.3222 C.3     1  UNL1        0.0246
      8 C          -0.0937    3.9474   23.2398 C.3     1  UNL1        0.0374
      9 C           0.0460    2.4845   23.5406 C.3     1  UNL1        0.0942
     10 C           0.4126    2.0349   24.9238 C.3     1  UNL1        0.1145
     11 H           1.1417    4.5719   28.2746 H       1  UNL1        0.1510
     12 N          -0.1811    1.4712   22.4580 N.am    1  UNL1       -0.2885
     13 C           0.9754    0.9719   21.6436 C.2     1  UNL1        0.3059
     14 O           2.3588    1.4859   21.9116 O.2     1  UNL1       -0.2524
     15 N           0.7483   -0.0414   20.5611 N.am    1  UNL1       -0.2485
     16 H          -1.0891    1.1339   22.2822 H       1  UNL1        0.1510
     17 H          -0.1597   -0.3787   20.3852 H       1  UNL1        0.1583
     18 C           1.9047   -0.5406   19.7466 C.ar    1  UNL1        0.1664
     19 N           2.3843    0.0386   18.4488 N.ar    1  UNL1       -0.2282
     20 C           3.5606   -0.7696   17.9870 C.ar    1  UNL1        0.0701
     21 C           4.3507   -0.5395   16.7329 C.3     1  UNL1        0.0528
     22 C           3.8080   -1.8483   18.9996 C.ar    1  UNL1        0.0803
     23 S           2.7847   -1.7068   20.0871 S.2     1  UNL1       -0.0488
     24 C           4.8890   -2.8863   18.9358 C.2     1  UNL1        0.1807
     25 C           4.5301   -4.3425   18.9128 C.3     1  UNL1        0.0779
     26 O           6.3290   -2.4680   18.8950 O.2     1  UNL1       -0.2908
     27 C          -0.4603    4.3970   21.8565 C.3     1  UNL1        0.0738
     28 N          -1.8332    4.1228   21.3180 N.3     1  UNL1       -0.2726
     29 C          -2.0804    4.1625   19.8390 C.3     1  UNL1        0.0721
     30 C          -3.4533    3.8883   19.3005 C.3     1  UNL1        0.0174
     31 C          -4.5789    3.5744   20.2409 C.3     1  UNL1        0.0031
     32 C          -4.3317    3.5347   21.7198 C.3     1  UNL1        0.0204
     33 C          -2.9588    3.8089   22.2584 C.3     1  UNL1        0.0724
     34 C          -5.4574    3.2207   22.6602 C.3     1  UNL1        0.0277
     35 C          -5.5836    3.9678   23.9548 C.ar    1  UNL1       -0.0220
     36 C          -4.7174    3.5973   25.1221 C.ar    1  UNL1       -0.0020
     37 C          -4.8436    4.3443   26.4166 C.ar    1  UNL1        0.0293
     38 C          -5.8360    5.4618   26.5440 C.ar    1  UNL1        0.1401
     39 F          -5.9623    6.2088   27.8386 F       1  UNL1       -0.2042
     40 C          -6.7022    5.8323   25.3768 C.ar    1  UNL1        0.0293
     41 C          -6.5760    5.0853   24.0822 C.ar    1  UNL1       -0.0020
@<TRIPOS>BOND
     1     1     2    1
     2     2     3   am
     3     3     4    2
     4     3     5   am
     5     5     6    1
     6     6     7    1
     7     7     8    1
     8     8    27    1
     9    27    28    1
    10    28    29    1
    11    29    30    1
    12    30    31    1
    13    31    32    1
    14    32    34    1
    15    34    35    1
    16    35    36   ar
    17    36    37   ar
    18    37    38   ar
    19    38    39    1
    20    38    40   ar
    21    40    41   ar
    22    32    33    1
    23     8     9    1
    24     9    12    1
    25    12    13   am
    26    13    14    2
    27    13    15   am
    28    15    18    1
    29    18    19   ar
    30    19    20   ar
    31    20    21    1
    32    20    22   ar
    33    22    24    1
    34    24    25    1
    35    24    26    2
    36    22    23   ar
    37     9    10    1
    38    10     5    1
    39    33    28    1
    40    23    18   ar
    41    41    35   ar
    42     2    11    1
    43    12    16    1
    44    15    17    1
@<TRIPOS>MOLECULE
*****
 41 44 0 0 0
SMALL
GASTEIGER

@<TRIPOS>ATOM
      1 C          -0.5639    5.6582   27.7020 C.3     1  UNL1        0.1122
      2 N          -0.6142    5.6793   26.2030 N.am    1  UNL1       -0.2870
      3 C          -0.5408    4.3947   25.4319 C.2     1  UNL1        0.3041
      4 O          -0.4172    3.0891   26.1599 O.2     1  UNL1       -0.2526
      5 N          -0.5912    4.4158   23.9329 N.am    1  UNL1       -0.2625
      6 C          -0.7149    5.7214   23.2050 C.3     1  UNL1        0.0951
      7 C          -0.7652    5.7425   21.7059 C.3     1  UNL1        0.0246
      8 C          -0.6918    4.4580   20.9349 C.3     1  UNL1        0.0374
      9 C          -0.5681    3.1524   21.6629 C.3     1  UNL1        0.0942
     10 C          -0.5178    3.1313   23.1619 C.3     1  UNL1        0.1145
     11 H          -0.6954    6.5362   25.7252 H       1  UNL1        0.1510
     12 N          -0.4948    1.8677   20.8919 N.am    1  UNL1       -0.2885
     13 C           0.8354    1.3321   20.4517 C.2     1  UNL1        0.3059
     14 O           2.0922    2.0811   20.7825 O.2     1  UNL1       -0.2524
     15 N           0.9087    0.0475   19.6807 N.am    1  UNL1       -0.2485
     16 H          -1.3197    1.3761   20.6748 H       1  UNL1        0.1510
     17 H           0.0839   -0.4441   19.4636 H       1  UNL1        0.1583
     18 C           2.2389   -0.4881   19.2405 C.ar    1  UNL1        0.1664
     19 N           3.2043    0.1972   18.3196 N.ar    1  UNL1       -0.2282
     20 C           4.3993   -0.6942   18.1538 C.ar    1  UNL1        0.0701
     21 C           5.6088   -0.4008   17.3166 C.3     1  UNL1        0.0528
     22 C           4.1724   -1.9305   18.9724 C.ar    1  UNL1        0.0803
     23 S           2.8372   -1.8032   19.6440 S.2     1  UNL1       -0.0488
     24 C           5.1151   -3.0905   19.0974 C.2     1  UNL1        0.1807
     25 C           4.6278   -4.4846   18.8349 C.3     1  UNL1        0.0779
     26 O           6.5451   -2.8564   19.4850 O.2     1  UNL1       -0.2908
     27 C          -0.7422    4.4791   19.4359 C.3     1  UNL1        0.0738
     28 N          -2.0371    4.2185   18.7252 N.3     1  UNL1       -0.2726
     29 C          -2.0578    4.0760   17.2321 C.3     1  UNL1        0.0721
     30 C          -3.3528    3.8155   16.5214 C.3     1  UNL1        0.0174
     31 C          -4.6271    3.6974   17.3038 C.3     1  UNL1        0.0031
     32 C          -4.6065    3.8398   18.7968 C.3     1  UNL1        0.0204
     33 C          -3.3115    4.1004   19.5076 C.3     1  UNL1        0.0724
     34 C          -5.8808    3.7217   19.5792 C.3     1  UNL1        0.0277
     35 C          -5.8532    3.8138   21.0761 C.ar    1  UNL1       -0.0220
     36 C          -6.8361    4.6924   21.7918 C.ar    1  UNL1       -0.0020
     37 C          -6.8084    4.7845   23.2886 C.ar    1  UNL1        0.0293
     38 C          -5.7979    3.9981   24.0699 C.ar    1  UNL1        0.1401
     39 F          -5.7703    4.0902   25.5668 F       1  UNL1       -0.2042
     40 C          -4.8151    3.1195   23.3543 C.ar    1  UNL1        0.0293
     41 C          -4.8427    3.0274   21.8574 C.ar    1  UNL1       -0.0020
@<TRIPOS>BOND
     1     1     2    1
     2     2     3   am
     3     3     4    2
     4     3     5   am
     5     5     6    1
     6     6     7    1
     7     7     8    1
     8     8    27    1
     9    27    28    1
    10    28    29    1
    11    29    30    1
    12    30    31    1
    13    31    32    1
    14    32    34    1
    15    34    35    1
    16    35    36   ar
    17    36    37   ar
    18    37    38   ar
    19    38    39    1
    20    38    40   ar
    21    40    41   ar
    22    32    33    1
    23     8     9    1
    24     9    12    1
    25    12    13   am
    26    13    14    2
    27    13    15   am
    28    15    18    1
    29    18    19   ar
    30    19    20   ar
    31    20    21    1
    32    20    22   ar
    33    22    24    1
    34    24    25    1
    35    24    26    2
    36    22    23   ar
    37     9    10    1
    38    10     5    1
    39    33    28    1
    40    23    18   ar
    41    41    35   ar
    42     2    11    1
    43    12    16    1
    44    15    17    1
@<TRIPOS>MOLECULE
*****
 41 44 0 0 0
SMALL
GASTEIGER

@<TRIPOS>ATOM
      1 C           3.7853   -0.9151   16.9333 C.3     1  UNL1        0.1122
      2 N           3.5863   -0.1209   18.1900 N.am    1  UNL1       -0.2870
      3 C           3.4506   -0.8240   19.5081 C.2     1  UNL1        0.3041
      4 O           3.5139   -2.3213   19.5693 O.2     1  UNL1       -0.2526
      5 N           3.2517   -0.0297   20.7648 N.am    1  UNL1       -0.2625
      6 C           3.1884    1.4677   20.7036 C.3     1  UNL1        0.0951
      7 C           2.9894    2.2620   21.9604 C.3     1  UNL1        0.0246
      8 C           2.8537    1.5589   23.2784 C.3     1  UNL1        0.0374
      9 C           2.9170    0.0615   23.3396 C.3     1  UNL1        0.0942
     10 C           3.1160   -0.7328   22.0829 C.3     1  UNL1        0.1145
     11 H           3.5448    0.8619   18.1499 H       1  UNL1        0.1510
     12 N           2.7813   -0.6417   24.6577 N.am    1  UNL1       -0.2885
     13 C           4.0069   -1.0234   25.4338 C.2     1  UNL1        0.3059
     14 O           5.3681   -0.7020   24.8919 O.2     1  UNL1       -0.2524
     15 N           3.8712   -1.7266   26.7518 N.am    1  UNL1       -0.2485
     16 H           1.8879   -0.8527   25.0134 H       1  UNL1        0.1510
     17 H           2.9778   -1.9376   27.1075 H       1  UNL1        0.1583
     18 C           5.0967   -2.1083   27.5279 C.ar    1  UNL1        0.1664
     19 N           6.1674   -3.0562   27.0750 N.ar    1  UNL1       -0.2282
     20 C           7.1991   -3.1429   28.1603 C.ar    1  UNL1        0.0701
     21 C           8.4452   -3.9774   28.1277 C.3     1  UNL1        0.0528
     22 C           6.7662   -2.2485   29.2840 C.ar    1  UNL1        0.0803
     23 S           5.4668   -1.6091   28.8931 S.2     1  UNL1       -0.0488
     24 C           7.5032   -2.0316   30.5723 C.2     1  UNL1        0.1807
     25 C           7.2605   -2.9439   31.7380 C.3     1  UNL1        0.0779
     26 O           8.4829   -0.9024   30.6950 O.2     1  UNL1       -0.2908
     27 C           2.6548    2.3531   24.5352 C.3     1  UNL1        0.0738
     28 N           1.3068    2.3924   25.1921 N.3     1  UNL1       -0.2726
     29 C           0.2083    3.2252   24.6007 C.3     1  UNL1        0.0721
     30 C          -1.1397    3.2645   25.2576 C.3     1  UNL1        0.0174
     31 C          -1.3891    2.4711   26.5059 C.3     1  UNL1        0.0031
     32 C          -0.2906    1.6384   27.0973 C.3     1  UNL1        0.0204
     33 C           1.0574    1.5990   26.4405 C.3     1  UNL1        0.0724
     34 C          -0.5400    0.8450   28.3457 C.3     1  UNL1        0.0277
     35 C           0.4758    0.8443   29.4494 C.ar    1  UNL1       -0.0220
     36 C           1.4858   -0.2612   29.5385 C.ar    1  UNL1       -0.0020
     37 C           2.5015   -0.2619   30.6422 C.ar    1  UNL1        0.0293
     38 C           2.5073    0.8429   31.6568 C.ar    1  UNL1        0.1401
     39 F           3.5230    0.8422   32.7606 F       1  UNL1       -0.2042
     40 C           1.4974    1.9483   31.5678 C.ar    1  UNL1        0.0293
     41 C           0.4816    1.9490   30.4640 C.ar    1  UNL1       -0.0020
@<TRIPOS>BOND
     1     1     2    1
     2     2     3   am
     3     3     4    2
     4     3     5   am
     5     5     6    1
     6     6     7    1
     7     7     8    1
     8     8    27    1
     9    27    28    1
    10    28    29    1
    11    29    30    1
    12    30    31    1
    13    31    32    1
    14    32    34    1
    15    34    35    1
    16    35    36   ar
    17    36    37   ar
    18    37    38   ar
    19    38    39    1
    20    38    40   ar
    21    40    41   ar
    22    32    33    1
    23     8     9    1
    24     9    12    1
    25    12    13   am
    26    13    14    2
    27    13    15   am
    28    15    18    1
    29    18    19   ar
    30    19    20   ar
    31    20    21    1
    32    20    22   ar
    33    22    24    1
    34    24    25    1
    35    24    26    2
    36    22    23   ar
    37     9    10    1
    38    10     5    1
    39    33    28    1
    40    23    18   ar
    41    41    35   ar
    42     2    11    1
    43    12    16    1
    44    15    17    1
