@<TRIPOS>MOLECULE
*****
 40 45 0 0 0
SMALL
GASTEIGER

@<TRIPOS>ATOM
      1 C           8.3371   -3.8675   24.3040 C.3     1  UNL1        0.0933
      2 C           7.0944   -3.2229   23.7651 C.3     1  UNL1        0.0442
      3 C           7.0185   -2.8331   22.3186 C.3     1  UNL1        0.0953
      4 N           8.1853   -3.0879   21.4110 N.am    1  UNL1       -0.2794
      5 C           8.1095   -2.6981   19.9645 C.2     1  UNL1        0.2252
      6 O           9.2763   -2.9529   19.0569 O.2     1  UNL1       -0.2749
      7 C           9.4279   -3.7325   21.9499 C.3     1  UNL1        0.0953
      8 C           9.5037   -4.1223   23.3964 C.3     1  UNL1        0.0442
      9 N           8.6147   -4.1366   28.1661 N.ar    1  UNL1       -0.2758
     10 C           8.5952   -3.3205   26.9077 C.ar    1  UNL1        0.3317
     11 O           8.7337   -1.8293   26.8216 O.2     1  UNL1       -0.2463
     12 N           8.4129   -4.2573   25.7505 N.ar    1  UNL1       -0.2817
     13 C           8.3197   -5.6524   26.2937 C.ar    1  UNL1        0.0796
     14 C           8.1374   -6.9810   25.6218 C.ar    1  UNL1        0.0188
     15 C           8.0798   -8.2350   26.4428 C.ar    1  UNL1        0.0016
     16 C           8.2045   -8.1604   27.9358 C.ar    1  UNL1        0.0016
     17 C           8.3868   -6.8317   28.6077 C.ar    1  UNL1        0.0188
     18 C           8.4444   -5.5778   27.7867 C.ar    1  UNL1        0.0800
     19 C           8.7761   -3.6048   29.5594 C.3     1  UNL1        0.1373
     20 C           5.1619   -2.3081   31.9058 C.ar    1  UNL1        0.1387
     21 C           5.4940   -1.6350   30.6070 C.ar    1  UNL1        0.0366
     22 C           6.6987   -2.0673   29.8249 C.ar    1  UNL1        0.0007
     23 C           7.5714   -3.1726   30.3415 C.ar    1  UNL1        0.0007
     24 C           7.2392   -3.8457   31.6402 C.ar    1  UNL1        0.0007
     25 C           6.0345   -3.4134   32.4223 C.ar    1  UNL1        0.0366
     26 C           3.8776   -0.4804   33.2326 C.3     1  UNL1        0.2525
     27 O           3.9571   -1.8758   32.6879 O.3     1  UNL1       -0.4714
     28 C           6.8669   -2.0536   19.4257 C.3     1  UNL1        0.0795
     29 C           5.8013   -2.8952   18.7883 C.3     1  UNL1        0.0264
     30 C           4.5586   -2.2505   18.2495 C.3     1  UNL1        0.0729
     31 N           4.3816   -0.7643   18.3480 N.3     1  UNL1       -0.2689
     32 C           5.4471    0.0773   18.9854 C.3     1  UNL1        0.0729
     33 C           6.6897   -0.5673   19.5242 C.3     1  UNL1        0.0264
     34 C           3.1390   -0.1197   17.8092 C.3     1  UNL1        0.0992
     35 C           2.0424    0.2943   18.7452 C.ar    1  UNL1       -0.0031
     36 C           1.6258   -0.6165   19.8619 C.ar    1  UNL1        0.0178
     37 C           0.5293   -0.2024   20.7980 C.ar    1  UNL1        0.0986
     38 N          -0.1507    1.1223   20.6173 N.ar    1  UNL1       -0.2423
     39 C           0.2659    2.0330   19.5006 C.ar    1  UNL1        0.0986
     40 C           1.3625    1.6190   18.5646 C.ar    1  UNL1        0.0178
@<TRIPOS>BOND
     1    26    27    1
     2    27    20    1
     3    20    21   ar
     4    21    22   ar
     5    22    23   ar
     6    23    19    1
     7    19     9    1
     8     9    10   ar
     9    10    11    2
    10    10    12   ar
    11    12     1    1
    12     1     2    1
    13     2     3    1
    14     3     4    1
    15     4     5   am
    16     5     6    2
    17     5    28    1
    18    28    29    1
    19    29    30    1
    20    30    31    1
    21    31    34    1
    22    34    35    1
    23    35    36   ar
    24    36    37   ar
    25    37    38   ar
    26    38    39   ar
    27    39    40   ar
    28    31    32    1
    29    32    33    1
    30     4     7    1
    31     7     8    1
    32    12    13   ar
    33    13    14   ar
    34    14    15   ar
    35    15    16   ar
    36    16    17   ar
    37    17    18   ar
    38    23    24   ar
    39    24    25   ar
    40    25    20   ar
    41    18     9   ar
    42     8     1    1
    43    18    13   ar
    44    33    28    1
    45    40    35   ar
@<TRIPOS>MOLECULE
*****
 40 45 0 0 0
SMALL
GASTEIGER

@<TRIPOS>ATOM
      1 C           6.3813   -3.5906   26.9419 C.3     1  UNL1        0.0933
      2 C           6.3284   -2.3951   27.8464 C.3     1  UNL1        0.0442
      3 C           6.4119   -2.5752   29.3332 C.3     1  UNL1        0.0953
      4 N           6.5483   -3.9508   29.9155 N.am    1  UNL1       -0.2794
      5 C           6.6318   -4.1310   31.4023 C.2     1  UNL1        0.2252
      6 O           6.7682   -5.5066   31.9847 O.2     1  UNL1       -0.2749
      7 C           6.6012   -5.1463   29.0110 C.3     1  UNL1        0.0953
      8 C           6.5177   -4.9661   27.5242 C.3     1  UNL1        0.0442
      9 N           6.7374   -3.6144   23.0769 N.ar    1  UNL1       -0.2758
     10 C           7.1680   -4.0832   24.4352 C.ar    1  UNL1        0.3317
     11 O           8.2745   -5.0542   24.7230 O.2     1  UNL1       -0.2463
     12 N           6.2978   -3.4104   25.4551 N.ar    1  UNL1       -0.2817
     13 C           5.3294   -2.5259   24.7272 C.ar    1  UNL1        0.0796
     14 C           4.2354   -1.6220   25.2128 C.ar    1  UNL1        0.0188
     15 C           3.4130   -0.8441   24.2287 C.ar    1  UNL1        0.0016
     16 C           3.6847   -0.9701   22.7589 C.ar    1  UNL1        0.0016
     17 C           4.7788   -1.8741   22.2732 C.ar    1  UNL1        0.0188
     18 C           5.6011   -2.6520   23.2574 C.ar    1  UNL1        0.0800
     19 C           7.3377   -4.0343   21.7680 C.3     1  UNL1        0.1373
     20 C           6.7690   -1.4782   18.1084 C.ar    1  UNL1        0.1387
     21 C           7.8402   -1.1380   19.1018 C.ar    1  UNL1        0.0366
     22 C           8.0298   -1.9900   20.3217 C.ar    1  UNL1        0.0007
     23 C           7.1481   -3.1823   20.5482 C.ar    1  UNL1        0.0007
     24 C           6.0770   -3.5225   19.5548 C.ar    1  UNL1        0.0007
     25 C           5.8874   -2.6704   18.3349 C.ar    1  UNL1        0.0366
     26 C           7.0355    0.8030   16.8937 C.3     1  UNL1        0.2525
     27 O           6.5795   -0.6261   16.8886 O.3     1  UNL1       -0.4714
     28 C           6.5789   -2.9355   32.3067 C.3     1  UNL1        0.0795
     29 C           5.2736   -2.5084   32.9098 C.3     1  UNL1        0.0264
     30 C           5.2207   -1.3128   33.8142 C.3     1  UNL1        0.0729
     31 N           6.4732   -0.5444   34.1156 N.3     1  UNL1       -0.2689
     32 C           7.7786   -0.9715   33.5125 C.3     1  UNL1        0.0729
     33 C           7.8314   -2.1670   32.6081 C.3     1  UNL1        0.0264
     34 C           6.4203    0.6511   35.0200 C.3     1  UNL1        0.0992
     35 C           5.1282    1.0388   35.6758 C.ar    1  UNL1       -0.0031
     36 C           4.7773    0.4871   37.0258 C.ar    1  UNL1        0.0178
     37 C           3.4852    0.8748   37.6817 C.ar    1  UNL1        0.0986
     38 N           2.5441    1.8143   36.9876 N.ar    1  UNL1       -0.2423
     39 C           2.8951    2.3660   35.6376 C.ar    1  UNL1        0.0986
     40 C           4.1872    1.9782   34.9817 C.ar    1  UNL1        0.0178
@<TRIPOS>BOND
     1    26    27    1
     2    27    20    1
     3    20    21   ar
     4    21    22   ar
     5    22    23   ar
     6    23    19    1
     7    19     9    1
     8     9    10   ar
     9    10    11    2
    10    10    12   ar
    11    12     1    1
    12     1     2    1
    13     2     3    1
    14     3     4    1
    15     4     5   am
    16     5     6    2
    17     5    28    1
    18    28    29    1
    19    29    30    1
    20    30    31    1
    21    31    34    1
    22    34    35    1
    23    35    36   ar
    24    36    37   ar
    25    37    38   ar
    26    38    39   ar
    27    39    40   ar
    28    31    32    1
    29    32    33    1
    30     4     7    1
    31     7     8    1
    32    12    13   ar
    33    13    14   ar
    34    14    15   ar
    35    15    16   ar
    36    16    17   ar
    37    17    18   ar
    38    23    24   ar
    39    24    25   ar
    40    25    20   ar
    41    18     9   ar
    42     8     1    1
    43    18    13   ar
    44    33    28    1
    45    40    35   ar
@<TRIPOS>MOLECULE
*****
 40 45 0 0 0
SMALL
GASTEIGER

@<TRIPOS>ATOM
      1 C           7.2822   -3.9306   23.0676 C.3     1  UNL1        0.0933
      2 C           6.9934   -3.3095   24.4021 C.3     1  UNL1        0.0442
      3 C           7.4576   -3.9835   25.6592 C.3     1  UNL1        0.0953
      4 N           8.2105   -5.2786   25.5818 N.am    1  UNL1       -0.2794
      5 C           8.6747   -5.9525   26.8390 C.2     1  UNL1        0.2252
      6 O           9.4276   -7.2476   26.7616 O.2     1  UNL1       -0.2749
      7 C           8.4993   -5.8996   24.2473 C.3     1  UNL1        0.0953
      8 C           8.0351   -5.2256   22.9902 C.3     1  UNL1        0.0442
      9 N           5.4594   -2.6018   19.9090 N.ar    1  UNL1       -0.2758
     10 C           5.5025   -3.4791   21.1249 C.ar    1  UNL1        0.3317
     11 O           4.4202   -4.4145   21.5761 O.2     1  UNL1       -0.2463
     12 N           6.8180   -3.2566   21.8105 N.ar    1  UNL1       -0.2817
     13 C           7.5879   -2.2419   21.0182 C.ar    1  UNL1        0.0796
     14 C           8.9451   -1.6342   21.2151 C.ar    1  UNL1        0.0188
     15 C           9.4625   -0.6218   20.2368 C.ar    1  UNL1        0.0016
     16 C           8.6228   -0.2170   19.0616 C.ar    1  UNL1        0.0016
     17 C           7.2657   -0.8247   18.8647 C.ar    1  UNL1        0.0188
     18 C           6.7482   -1.8372   19.8430 C.ar    1  UNL1        0.0800
     19 C           4.3264   -2.5059   18.9307 C.3     1  UNL1        0.1373
     20 C           1.3580    0.8613   19.2484 C.ar    1  UNL1        0.1387
     21 C           1.2551   -0.3186   20.1690 C.ar    1  UNL1        0.0366
     22 C           2.2446   -1.4409   20.0631 C.ar    1  UNL1        0.0007
     23 C           3.3370   -1.3835   19.0366 C.ar    1  UNL1        0.0007
     24 C           3.4397   -0.2037   18.1161 C.ar    1  UNL1        0.0007
     25 C           2.4503    0.9187   18.2220 C.ar    1  UNL1        0.0366
     26 C           0.1105    2.8702   18.1721 C.3     1  UNL1        0.2525
     27 O           0.3685    1.9836   19.3544 O.3     1  UNL1       -0.4714
     28 C           8.3859   -5.3314   28.1734 C.3     1  UNL1        0.0795
     29 C           7.1329   -5.6939   28.9140 C.3     1  UNL1        0.0264
     30 C           6.8441   -5.0728   30.2486 C.3     1  UNL1        0.0729
     31 N           7.8084   -4.0891   30.8424 N.3     1  UNL1       -0.2689
     32 C           9.0614   -3.7266   30.1017 C.3     1  UNL1        0.0729
     33 C           9.3501   -4.3477   28.7673 C.3     1  UNL1        0.0264
     34 C           7.5196   -3.4680   32.1768 C.3     1  UNL1        0.0992
     35 C           6.5575   -2.3217   32.2781 C.ar    1  UNL1       -0.0031
     36 C           6.9859   -0.9443   31.8664 C.ar    1  UNL1        0.0178
     37 C           6.0238    0.2020   31.9677 C.ar    1  UNL1        0.0986
     38 N           4.6333   -0.0290   32.4808 N.ar    1  UNL1       -0.2423
     39 C           4.2049   -1.4063   32.8926 C.ar    1  UNL1        0.0986
     40 C           5.1670   -2.5526   32.7912 C.ar    1  UNL1        0.0178
@<TRIPOS>BOND
     1    26    27    1
     2    27    20    1
     3    20    21   ar
     4    21    22   ar
     5    22    23   ar
     6    23    19    1
     7    19     9    1
     8     9    10   ar
     9    10    11    2
    10    10    12   ar
    11    12     1    1
    12     1     2    1
    13     2     3    1
    14     3     4    1
    15     4     5   am
    16     5     6    2
    17     5    28    1
    18    28    29    1
    19    29    30    1
    20    30    31    1
    21    31    34    1
    22    34    35    1
    23    35    36   ar
    24    36    37   ar
    25    37    38   ar
    26    38    39   ar
    27    39    40   ar
    28    31    32    1
    29    32    33    1
    30     4     7    1
    31     7     8    1
    32    12    13   ar
    33    13    14   ar
    34    14    15   ar
    35    15    16   ar
    36    16    17   ar
    37    17    18   ar
    38    23    24   ar
    39    24    25   ar
    40    25    20   ar
    41    18     9   ar
    42     8     1    1
    43    18    13   ar
    44    33    28    1
    45    40    35   ar
@<TRIPOS>MOLECULE
*****
 40 45 0 0 0
SMALL
GASTEIGER

@<TRIPOS>ATOM
      1 C           5.3391   -1.9482   27.2961 C.3     1  UNL1        0.0933
      2 C           6.0260   -1.8517   28.6262 C.3     1  UNL1        0.0442
      3 C           5.2971   -1.2826   29.8072 C.3     1  UNL1        0.0953
      4 N           3.8812   -0.8101   29.6582 N.am    1  UNL1       -0.2794
      5 C           3.1523   -0.2410   30.8393 C.2     1  UNL1        0.2252
      6 O           1.7365    0.2315   30.6903 O.2     1  UNL1       -0.2749
      7 C           3.1944   -0.9066   28.3282 C.3     1  UNL1        0.0953
      8 C           3.9233   -1.4757   27.1472 C.3     1  UNL1        0.0442
      9 N           7.1443   -2.7300   23.9502 N.ar    1  UNL1       -0.2758
     10 C           6.4230   -1.7789   24.8586 C.ar    1  UNL1        0.3317
     11 O           6.1113   -0.3418   24.5625 O.2     1  UNL1       -0.2463
     12 N           6.0680   -2.5173   26.1151 N.ar    1  UNL1       -0.2817
     13 C           6.5700   -3.9246   25.9833 C.ar    1  UNL1        0.0796
     14 C           6.5073   -5.1034   26.9087 C.ar    1  UNL1        0.0188
     15 C           7.1098   -6.4136   26.4962 C.ar    1  UNL1        0.0016
     16 C           7.7750   -6.5451   25.1582 C.ar    1  UNL1        0.0016
     17 C           7.8377   -5.3663   24.2327 C.ar    1  UNL1        0.0188
     18 C           7.2352   -4.0561   24.6453 C.ar    1  UNL1        0.0800
     19 C           7.6806   -2.4109   22.5862 C.3     1  UNL1        0.1373
     20 C           4.8734   -2.0833   19.0845 C.ar    1  UNL1        0.1387
     21 C           5.3980   -3.4251   19.5022 C.ar    1  UNL1        0.0366
     22 C           6.3338   -3.5342   20.6694 C.ar    1  UNL1        0.0007
     23 C           6.7449   -2.3017   21.4190 C.ar    1  UNL1        0.0007
     24 C           6.2203   -0.9599   21.0013 C.ar    1  UNL1        0.0007
     25 C           5.2846   -0.8508   19.8340 C.ar    1  UNL1        0.0366
     26 C           3.8971   -0.7144   17.1037 C.3     1  UNL1        0.2525
     27 O           3.9377   -1.9741   17.9172 O.3     1  UNL1       -0.4714
     28 C           3.8392   -0.1445   32.1692 C.3     1  UNL1        0.0795
     29 C           3.9782   -1.3637   33.0318 C.3     1  UNL1        0.0264
     30 C           4.6652   -1.2671   34.3618 C.3     1  UNL1        0.0729
     31 N           5.2132    0.0487   34.8291 N.3     1  UNL1       -0.2689
     32 C           5.0742    1.2679   33.9665 C.3     1  UNL1        0.0729
     33 C           4.3872    1.1713   32.6366 C.3     1  UNL1        0.0264
     34 C           5.9001    0.1452   36.1591 C.3     1  UNL1        0.0992
     35 C           5.2752    0.9353   37.2705 C.ar    1  UNL1       -0.0031
     36 C           6.1068    1.8965   38.0670 C.ar    1  UNL1        0.0178
     37 C           5.4819    2.6866   39.1784 C.ar    1  UNL1        0.0986
     38 N           4.0253    2.5154   39.4933 N.ar    1  UNL1       -0.2423
     39 C           3.1937    1.5542   38.6968 C.ar    1  UNL1        0.0986
     40 C           3.8186    0.7641   37.5854 C.ar    1  UNL1        0.0178
@<TRIPOS>BOND
     1    26    27    1
     2    27    20    1
     3    20    21   ar
     4    21    22   ar
     5    22    23   ar
     6    23    19    1
     7    19     9    1
     8     9    10   ar
     9    10    11    2
    10    10    12   ar
    11    12     1    1
    12     1     2    1
    13     2     3    1
    14     3     4    1
    15     4     5   am
    16     5     6    2
    17     5    28    1
    18    28    29    1
    19    29    30    1
    20    30    31    1
    21    31    34    1
    22    34    35    1
    23    35    36   ar
    24    36    37   ar
    25    37    38   ar
    26    38    39   ar
    27    39    40   ar
    28    31    32    1
    29    32    33    1
    30     4     7    1
    31     7     8    1
    32    12    13   ar
    33    13    14   ar
    34    14    15   ar
    35    15    16   ar
    36    16    17   ar
    37    17    18   ar
    38    23    24   ar
    39    24    25   ar
    40    25    20   ar
    41    18     9   ar
    42     8     1    1
    43    18    13   ar
    44    33    28    1
    45    40    35   ar
@<TRIPOS>MOLECULE
*****
 40 45 0 0 0
SMALL
GASTEIGER

@<TRIPOS>ATOM
      1 C           0.9654    1.9215   19.3286 C.3     1  UNL1        0.0933
      2 C           0.2981    1.9168   20.6721 C.3     1  UNL1        0.0442
      3 C          -0.9416    2.7310   20.8966 C.3     1  UNL1        0.0953
      4 N          -1.5140    3.5497   19.7777 N.am    1  UNL1       -0.2794
      5 C          -2.7537    4.3638   20.0023 C.2     1  UNL1        0.2252
      6 O          -3.3262    5.1826   18.8834 O.2     1  UNL1       -0.2749
      7 C          -0.8468    3.5543   18.4343 C.3     1  UNL1        0.0953
      8 C           0.3929    2.7402   18.2098 C.3     1  UNL1        0.0442
      9 N           3.7493   -0.7612   18.9849 N.ar    1  UNL1       -0.2758
     10 C           2.3457   -0.3675   19.3383 C.ar    1  UNL1        0.3317
     11 O           1.2714   -1.2873   19.8381 O.2     1  UNL1       -0.2463
     12 N           2.2051    1.1074   19.1041 N.ar    1  UNL1       -0.2817
     13 C           3.5217    1.6253   18.6059 C.ar    1  UNL1        0.0796
     14 C           3.9749    2.9992   18.2099 C.ar    1  UNL1        0.0188
     15 C           5.3825    3.2183   17.7402 C.ar    1  UNL1        0.0016
     16 C           6.3369    2.0635   17.6665 C.ar    1  UNL1        0.0016
     17 C           5.8837    0.6895   18.0625 C.ar    1  UNL1        0.0188
     18 C           4.4762    0.4704   18.5322 C.ar    1  UNL1        0.0800
     19 C           4.3251   -2.1437   19.0692 C.3     1  UNL1        0.1373
     20 C           5.9753   -3.6597   22.9716 C.ar    1  UNL1        0.1387
     21 C           4.6128   -3.0339   22.9260 C.ar    1  UNL1        0.0366
     22 C           4.0627   -2.5286   21.6252 C.ar    1  UNL1        0.0007
     23 C           4.8751   -2.6490   20.3699 C.ar    1  UNL1        0.0007
     24 C           6.2376   -3.2748   20.4156 C.ar    1  UNL1        0.0007
     25 C           6.7876   -3.7801   21.7164 C.ar    1  UNL1        0.0366
     26 C           7.5667   -5.2447   24.2775 C.3     1  UNL1        0.2525
     27 O           6.5253   -4.1650   24.2724 O.3     1  UNL1       -0.4714
     28 C          -3.4208    4.3591   21.3457 C.3     1  UNL1        0.0795
     29 C          -4.4038    3.2801   21.6913 C.3     1  UNL1        0.0264
     30 C          -5.0710    3.2755   23.0348 C.3     1  UNL1        0.0729
     31 N          -4.7551    4.3499   24.0327 N.3     1  UNL1       -0.2689
     32 C          -3.7721    5.4290   23.6872 C.3     1  UNL1        0.0729
     33 C          -3.1050    5.4336   22.3437 C.3     1  UNL1        0.0264
     34 C          -5.4222    4.3452   25.3762 C.3     1  UNL1        0.0992
     35 C          -6.5185    5.3251   25.6726 C.ar    1  UNL1       -0.0031
     36 C          -6.4976    6.1099   26.9508 C.ar    1  UNL1        0.0178
     37 C          -7.5938    7.0899   27.2472 C.ar    1  UNL1        0.0986
     38 N          -8.7111    7.2850   26.2656 N.ar    1  UNL1       -0.2423
     39 C          -8.7320    6.5002   24.9874 C.ar    1  UNL1        0.0986
     40 C          -7.6358    5.5202   24.6910 C.ar    1  UNL1        0.0178
@<TRIPOS>BOND
     1    26    27    1
     2    27    20    1
     3    20    21   ar
     4    21    22   ar
     5    22    23   ar
     6    23    19    1
     7    19     9    1
     8     9    10   ar
     9    10    11    2
    10    10    12   ar
    11    12     1    1
    12     1     2    1
    13     2     3    1
    14     3     4    1
    15     4     5   am
    16     5     6    2
    17     5    28    1
    18    28    29    1
    19    29    30    1
    20    30    31    1
    21    31    34    1
    22    34    35    1
    23    35    36   ar
    24    36    37   ar
    25    37    38   ar
    26    38    39   ar
    27    39    40   ar
    28    31    32    1
    29    32    33    1
    30     4     7    1
    31     7     8    1
    32    12    13   ar
    33    13    14   ar
    34    14    15   ar
    35    15    16   ar
    36    16    17   ar
    37    17    18   ar
    38    23    24   ar
    39    24    25   ar
    40    25    20   ar
    41    18     9   ar
    42     8     1    1
    43    18    13   ar
    44    33    28    1
    45    40    35   ar
@<TRIPOS>MOLECULE
*****
 40 45 0 0 0
SMALL
GASTEIGER

@<TRIPOS>ATOM
      1 C           2.4608    0.9894   19.2926 C.3     1  UNL1        0.0933
      2 C           3.1669    0.5480   20.5403 C.3     1  UNL1        0.0442
      3 C           4.2471   -0.4899   20.4635 C.3     1  UNL1        0.0953
      4 N           4.6212   -1.0865   19.1390 N.am    1  UNL1       -0.2794
      5 C           5.7014   -2.1244   19.0622 C.2     1  UNL1        0.2252
      6 O           6.0755   -2.7209   17.7378 O.2     1  UNL1       -0.2749
      7 C           3.9151   -0.6451   17.8914 C.3     1  UNL1        0.0953
      8 C           2.8349    0.3928   17.9682 C.3     1  UNL1        0.0442
      9 N          -0.7248    3.1368   19.8459 N.ar    1  UNL1       -0.2758
     10 C           0.0287    1.8483   19.9943 C.ar    1  UNL1        0.3317
     11 O          -0.4803    0.6000   20.6520 O.2     1  UNL1       -0.2463
     12 N           1.3805    2.0273   19.3694 N.ar    1  UNL1       -0.2817
     13 C           1.4626    3.4264   18.8348 C.ar    1  UNL1        0.0796
     14 C           2.5540    4.1646   18.1180 C.ar    1  UNL1        0.0188
     15 C           2.3442    5.5885   17.6956 C.ar    1  UNL1        0.0016
     16 C           1.0430    6.2742   17.9901 C.ar    1  UNL1        0.0016
     17 C          -0.0484    5.5360   18.7069 C.ar    1  UNL1        0.0188
     18 C           0.1614    4.1121   19.1293 C.ar    1  UNL1        0.0800
     19 C          -2.1196    3.4033   20.3292 C.3     1  UNL1        0.1373
     20 C          -2.9826    3.5463   24.7433 C.ar    1  UNL1        0.1387
     21 C          -1.5647    3.5784   24.2549 C.ar    1  UNL1        0.0366
     22 C          -1.2770    3.5307   22.7835 C.ar    1  UNL1        0.0007
     23 C          -2.4072    3.4509   21.8005 C.ar    1  UNL1        0.0007
     24 C          -3.8251    3.4188   22.2889 C.ar    1  UNL1        0.0007
     25 C          -4.1128    3.4665   23.7603 C.ar    1  UNL1        0.0366
     26 C          -4.4059    4.4275   26.7303 C.3     1  UNL1        0.2525
     27 O          -3.2702    3.5940   26.2147 O.3     1  UNL1       -0.4714
     28 C           6.4075   -2.5656   20.3099 C.3     1  UNL1        0.0795
     29 C           5.7539   -3.5507   21.2332 C.3     1  UNL1        0.0264
     30 C           6.4601   -3.9919   22.4809 C.3     1  UNL1        0.0729
     31 N           7.8199   -3.4481   22.8053 N.3     1  UNL1       -0.2689
     32 C           8.4735   -2.4630   21.8820 C.3     1  UNL1        0.0729
     33 C           7.7673   -2.0218   20.6344 C.3     1  UNL1        0.0264
     34 C           8.5259   -3.8893   24.0529 C.3     1  UNL1        0.0992
     35 C           8.0429   -5.0963   24.8012 C.ar    1  UNL1       -0.0031
     36 C           8.4635   -6.4680   24.3636 C.ar    1  UNL1        0.0178
     37 C           7.9804   -7.6750   25.1119 C.ar    1  UNL1        0.0986
     38 N           7.0768   -7.5102   26.2977 N.ar    1  UNL1       -0.2423
     39 C           6.6561   -6.1385   26.7352 C.ar    1  UNL1        0.0986
     40 C           7.1392   -4.9315   25.9870 C.ar    1  UNL1        0.0178
@<TRIPOS>BOND
     1    26    27    1
     2    27    20    1
     3    20    21   ar
     4    21    22   ar
     5    22    23   ar
     6    23    19    1
     7    19     9    1
     8     9    10   ar
     9    10    11    2
    10    10    12   ar
    11    12     1    1
    12     1     2    1
    13     2     3    1
    14     3     4    1
    15     4     5   am
    16     5     6    2
    17     5    28    1
    18    28    29    1
    19    29    30    1
    20    30    31    1
    21    31    34    1
    22    34    35    1
    23    35    36   ar
    24    36    37   ar
    25    37    38   ar
    26    38    39   ar
    27    39    40   ar
    28    31    32    1
    29    32    33    1
    30     4     7    1
    31     7     8    1
    32    12    13   ar
    33    13    14   ar
    34    14    15   ar
    35    15    16   ar
    36    16    17   ar
    37    17    18   ar
    38    23    24   ar
    39    24    25   ar
    40    25    20   ar
    41    18     9   ar
    42     8     1    1
    43    18    13   ar
    44    33    28    1
    45    40    35   ar
@<TRIPOS>MOLECULE
*****
 40 45 0 0 0
SMALL
GASTEIGER

@<TRIPOS>ATOM
      1 C           4.2836   -0.2406   28.4365 C.3     1  UNL1        0.0933
      2 C           4.0402    0.5014   29.7173 C.3     1  UNL1        0.0442
      3 C           4.6827    0.0330   30.9892 C.3     1  UNL1        0.0953
      4 N           5.5686   -1.1774   30.9804 N.am    1  UNL1       -0.2794
      5 C           6.2112   -1.6458   32.2524 C.2     1  UNL1        0.2252
      6 O           7.0971   -2.8561   32.2436 O.2     1  UNL1       -0.2749
      7 C           5.8121   -1.9193   29.6997 C.3     1  UNL1        0.0953
      8 C           5.1695   -1.4509   28.4278 C.3     1  UNL1        0.0442
      9 N           3.3084    0.8799   24.8507 N.ar    1  UNL1       -0.2758
     10 C           4.3250    0.3920   25.8398 C.ar    1  UNL1        0.3317
     11 O           5.7716    0.1166   25.5542 O.2     1  UNL1       -0.2463
     12 N           3.6411    0.2278   27.1646 N.ar    1  UNL1       -0.2817
     13 C           2.2017    0.6142   26.9943 C.ar    1  UNL1        0.0796
     14 C           1.0518    0.6511   27.9567 C.ar    1  UNL1        0.0188
     15 C          -0.3038    1.0911   27.4889 C.ar    1  UNL1        0.0016
     16 C          -0.5094    1.4941   26.0588 C.ar    1  UNL1        0.0016
     17 C           0.6406    1.4572   25.0964 C.ar    1  UNL1        0.0188
     18 C           1.9961    1.0172   25.5642 C.ar    1  UNL1        0.0800
     19 C           3.5599    1.1781   23.4023 C.3     1  UNL1        0.1373
     20 C           3.3158   -2.1199   20.3505 C.ar    1  UNL1        0.1387
     21 C           4.4659   -2.0717   21.3124 C.ar    1  UNL1        0.0366
     22 C           4.5472   -0.9724   22.3296 C.ar    1  UNL1        0.0007
     23 C           3.4785    0.0788   22.3850 C.ar    1  UNL1        0.0007
     24 C           2.3285    0.0306   21.4231 C.ar    1  UNL1        0.0007
     25 C           2.2472   -1.0687   20.4059 C.ar    1  UNL1        0.0366
     26 C           4.3034   -4.2703   19.2777 C.3     1  UNL1        0.2525
     27 O           3.2345   -3.2192   19.3332 O.3     1  UNL1       -0.4714
     28 C           5.9677   -0.9037   33.5330 C.3     1  UNL1        0.0795
     29 C           6.9122    0.1791   33.9636 C.3     1  UNL1        0.0264
     30 C           6.6686    0.9211   35.2444 C.3     1  UNL1        0.0729
     31 N           5.4806    0.5803   36.0944 N.3     1  UNL1       -0.2689
     32 C           4.5362   -0.5025   35.6637 C.3     1  UNL1        0.0729
     33 C           4.7797   -1.2445   34.3831 C.3     1  UNL1        0.0264
     34 C           5.2372    1.3223   37.3750 C.3     1  UNL1        0.0992
     35 C           3.8594    1.8140   37.7067 C.ar    1  UNL1       -0.0031
     36 C           3.3325    3.0612   37.0610 C.ar    1  UNL1        0.0178
     37 C           1.9547    3.5529   37.3927 C.ar    1  UNL1        0.0986
     38 N           1.1039    2.7974   38.3701 N.ar    1  UNL1       -0.2423
     39 C           1.6309    1.5503   39.0159 C.ar    1  UNL1        0.0986
     40 C           3.0086    1.0586   38.6842 C.ar    1  UNL1        0.0178
@<TRIPOS>BOND
     1    26    27    1
     2    27    20    1
     3    20    21   ar
     4    21    22   ar
     5    22    23   ar
     6    23    19    1
     7    19     9    1
     8     9    10   ar
     9    10    11    2
    10    10    12   ar
    11    12     1    1
    12     1     2    1
    13     2     3    1
    14     3     4    1
    15     4     5   am
    16     5     6    2
    17     5    28    1
    18    28    29    1
    19    29    30    1
    20    30    31    1
    21    31    34    1
    22    34    35    1
    23    35    36   ar
    24    36    37   ar
    25    37    38   ar
    26    38    39   ar
    27    39    40   ar
    28    31    32    1
    29    32    33    1
    30     4     7    1
    31     7     8    1
    32    12    13   ar
    33    13    14   ar
    34    14    15   ar
    35    15    16   ar
    36    16    17   ar
    37    17    18   ar
    38    23    24   ar
    39    24    25   ar
    40    25    20   ar
    41    18     9   ar
    42     8     1    1
    43    18    13   ar
    44    33    28    1
    45    40    35   ar
@<TRIPOS>MOLECULE
*****
 40 45 0 0 0
SMALL
GASTEIGER

@<TRIPOS>ATOM
      1 C           0.9420    0.8693   22.0466 C.3     1  UNL1        0.0933
      2 C           2.1470    0.4181   22.8178 C.3     1  UNL1        0.0442
      3 C           3.0504   -0.6355   22.2487 C.3     1  UNL1        0.0953
      4 N           2.7488   -1.2379   20.9085 N.am    1  UNL1       -0.2794
      5 C           3.6522   -2.2915   20.3394 C.2     1  UNL1        0.2252
      6 O           3.3507   -2.8940   18.9992 O.2     1  UNL1       -0.2749
      7 C           1.5439   -0.7868   20.1374 C.3     1  UNL1        0.0953
      8 C           0.6406    0.2668   20.7065 C.3     1  UNL1        0.0442
      9 N          -1.4457    3.8335   22.8060 N.ar    1  UNL1       -0.2758
     10 C          -0.6449    3.0104   21.8411 C.ar    1  UNL1        0.3317
     11 O          -0.5452    3.2353   20.3614 O.2     1  UNL1       -0.2463
     12 N           0.0387    1.9229   22.6157 N.ar    1  UNL1       -0.2817
     13 C          -0.3397    2.0739   24.0594 C.ar    1  UNL1        0.0796
     14 C           0.0327    1.2887   25.2820 C.ar    1  UNL1        0.0188
     15 C          -0.5124    1.6844   26.6222 C.ar    1  UNL1        0.0016
     16 C          -1.4299    2.8653   26.7398 C.ar    1  UNL1        0.0016
     17 C          -1.8022    3.6505   25.5172 C.ar    1  UNL1        0.0188
     18 C          -1.2571    3.2548   24.1770 C.ar    1  UNL1        0.0800
     19 C          -2.2875    5.0261   22.4607 C.3     1  UNL1        0.1373
     20 C          -6.7346    4.9139   23.1389 C.ar    1  UNL1        0.1387
     21 C          -6.1281    4.1336   22.0104 C.ar    1  UNL1        0.0366
     22 C          -4.6458    4.1710   21.7844 C.ar    1  UNL1        0.0007
     23 C          -3.7698    4.9887   22.6868 C.ar    1  UNL1        0.0007
     24 C          -4.3764    5.7690   23.8152 C.ar    1  UNL1        0.0007
     25 C          -5.8587    5.7316   24.0412 C.ar    1  UNL1        0.0366
     26 C          -8.8229    5.6519   24.4972 C.3     1  UNL1        0.2525
     27 O          -8.2170    4.8765   23.3649 O.3     1  UNL1       -0.4714
     28 C           4.8571   -2.7427   21.1106 C.3     1  UNL1        0.0795
     29 C           6.2332   -2.4214   20.6075 C.3     1  UNL1        0.0264
     30 C           7.4381   -2.8725   21.3787 C.3     1  UNL1        0.0729
     31 N           7.2668   -3.6450   22.6531 N.3     1  UNL1       -0.2689
     32 C           5.8907   -3.9663   23.1562 C.3     1  UNL1        0.0729
     33 C           4.6859   -3.5151   22.3850 C.3     1  UNL1        0.0264
     34 C           8.4717   -4.0961   23.4243 C.3     1  UNL1        0.0992
     35 C           8.3394   -5.1733   24.4598 C.ar    1  UNL1       -0.0031
     36 C           8.2867   -6.6129   24.0419 C.ar    1  UNL1        0.0178
     37 C           8.1544   -7.6901   25.0774 C.ar    1  UNL1        0.0986
     38 N           8.0748   -7.3275   26.5307 N.ar    1  UNL1       -0.2423
     39 C           8.1275   -5.8879   26.9486 C.ar    1  UNL1        0.0986
     40 C           8.2598   -4.8107   25.9131 C.ar    1  UNL1        0.0178
@<TRIPOS>BOND
     1    26    27    1
     2    27    20    1
     3    20    21   ar
     4    21    22   ar
     5    22    23   ar
     6    23    19    1
     7    19     9    1
     8     9    10   ar
     9    10    11    2
    10    10    12   ar
    11    12     1    1
    12     1     2    1
    13     2     3    1
    14     3     4    1
    15     4     5   am
    16     5     6    2
    17     5    28    1
    18    28    29    1
    19    29    30    1
    20    30    31    1
    21    31    34    1
    22    34    35    1
    23    35    36   ar
    24    36    37   ar
    25    37    38   ar
    26    38    39   ar
    27    39    40   ar
    28    31    32    1
    29    32    33    1
    30     4     7    1
    31     7     8    1
    32    12    13   ar
    33    13    14   ar
    34    14    15   ar
    35    15    16   ar
    36    16    17   ar
    37    17    18   ar
    38    23    24   ar
    39    24    25   ar
    40    25    20   ar
    41    18     9   ar
    42     8     1    1
    43    18    13   ar
    44    33    28    1
    45    40    35   ar
@<TRIPOS>MOLECULE
*****
 40 45 0 0 0
SMALL
GASTEIGER

@<TRIPOS>ATOM
      1 C           3.6812   -1.0020   23.2494 C.3     1  UNL1        0.0933
      2 C           3.5981   -0.8707   24.7414 C.3     1  UNL1        0.0442
      3 C           2.6222    0.0880   25.3567 C.3     1  UNL1        0.0953
      4 N           1.7295    0.9154   24.4801 N.am    1  UNL1       -0.2794
      5 C           0.7536    1.8741   25.0955 C.2     1  UNL1        0.2252
      6 O          -0.1391    2.7015   24.2189 O.2     1  UNL1       -0.2749
      7 C           1.8127    0.7842   22.9882 C.3     1  UNL1        0.0953
      8 C           2.7886   -0.1745   22.3729 C.3     1  UNL1        0.0442
      9 N           6.6130   -3.3528   22.2781 N.ar    1  UNL1       -0.2758
     10 C           5.9657   -2.3897   23.2286 C.ar    1  UNL1        0.3317
     11 O           6.5282   -1.9354   24.5429 O.2     1  UNL1       -0.2463
     12 N           4.6571   -1.9606   22.6341 N.ar    1  UNL1       -0.2817
     13 C           4.4957   -2.6585   21.3162 C.ar    1  UNL1        0.0796
     14 C           3.4041   -2.6217   20.2880 C.ar    1  UNL1        0.0188
     15 C           3.5214   -3.4454   19.0399 C.ar    1  UNL1        0.0016
     16 C           4.7303   -4.3058   18.8199 C.ar    1  UNL1        0.0016
     17 C           5.8218   -4.3426   19.8481 C.ar    1  UNL1        0.0188
     18 C           5.7045   -3.5190   21.0962 C.ar    1  UNL1        0.0800
     19 C           7.9365   -4.0307   22.4750 C.3     1  UNL1        0.1373
     20 C           8.2808   -7.5176   25.2986 C.ar    1  UNL1        0.1387
     21 C           8.9244   -7.5821   23.9452 C.ar    1  UNL1        0.0366
     22 C           8.8097   -6.4198   23.0041 C.ar    1  UNL1        0.0007
     23 C           8.0512   -5.1930   23.4162 C.ar    1  UNL1        0.0007
     24 C           7.4076   -5.1286   24.7696 C.ar    1  UNL1        0.0007
     25 C           7.5224   -6.2909   25.7107 C.ar    1  UNL1        0.0366
     26 C           8.3792   -8.4494   27.7219 C.3     1  UNL1        0.2525
     27 O           8.3955   -8.6800   26.2398 O.3     1  UNL1       -0.4714
     28 C           0.6705    2.0053   26.5874 C.3     1  UNL1        0.0795
     29 C           1.5168    3.0185   27.2995 C.3     1  UNL1        0.0264
     30 C           1.4336    3.1496   28.7916 C.3     1  UNL1        0.0729
     31 N           0.5042    2.2675   29.5713 N.3     1  UNL1       -0.2689
     32 C          -0.3421    1.2543   28.8592 C.3     1  UNL1        0.0729
     33 C          -0.2589    1.1232   27.3672 C.3     1  UNL1        0.0264
     34 C           0.4211    2.3987   31.0632 C.3     1  UNL1        0.0992
     35 C           1.5218    1.8569   31.9263 C.ar    1  UNL1       -0.0031
     36 C           2.4029    0.7559   31.4149 C.ar    1  UNL1        0.0178
     37 C           3.5035    0.2140   32.2780 C.ar    1  UNL1        0.0986
     38 N           3.7231    0.7732   33.6524 N.ar    1  UNL1       -0.2423
     39 C           2.8421    1.8742   34.1638 C.ar    1  UNL1        0.0986
     40 C           1.7414    2.4161   33.3007 C.ar    1  UNL1        0.0178
@<TRIPOS>BOND
     1    26    27    1
     2    27    20    1
     3    20    21   ar
     4    21    22   ar
     5    22    23   ar
     6    23    19    1
     7    19     9    1
     8     9    10   ar
     9    10    11    2
    10    10    12   ar
    11    12     1    1
    12     1     2    1
    13     2     3    1
    14     3     4    1
    15     4     5   am
    16     5     6    2
    17     5    28    1
    18    28    29    1
    19    29    30    1
    20    30    31    1
    21    31    34    1
    22    34    35    1
    23    35    36   ar
    24    36    37   ar
    25    37    38   ar
    26    38    39   ar
    27    39    40   ar
    28    31    32    1
    29    32    33    1
    30     4     7    1
    31     7     8    1
    32    12    13   ar
    33    13    14   ar
    34    14    15   ar
    35    15    16   ar
    36    16    17   ar
    37    17    18   ar
    38    23    24   ar
    39    24    25   ar
    40    25    20   ar
    41    18     9   ar
    42     8     1    1
    43    18    13   ar
    44    33    28    1
    45    40    35   ar
