@<TRIPOS>MOLECULE
*****
 27 29 0 0 0
SMALL
GASTEIGER

@<TRIPOS>ATOM
      1 N          -5.6394  -15.8291   24.7277 N.am    1  UNL1       -0.3004
      2 C          -6.9741  -15.3483   24.2405 C.2     1  UNL1        0.2252
      3 O          -7.1300  -14.8745   22.8259 O.2     1  UNL1       -0.2750
      4 H          -5.5371  -16.1402   25.6561 H       1  UNL1        0.1497
      5 C          -4.4605  -15.8360   23.8002 C.3     1  UNL1        0.1165
      6 C          -2.3625  -18.5098   21.7509 C.ar    1  UNL1        0.1415
      7 C          -2.7189  -17.2609   22.5015 C.ar    1  UNL1        0.0345
      8 C          -4.1041  -17.0849   23.0496 C.ar    1  UNL1        0.0035
      9 C          -5.1328  -18.1576   22.8472 C.ar    1  UNL1        0.0345
     10 C          -4.7762  -19.4065   22.0966 C.ar    1  UNL1        0.1415
     11 C          -3.3912  -19.5825   21.5485 C.ar    1  UNL1        0.0737
     12 C          -0.5370  -17.8927   20.0082 C.3     1  UNL1        0.2525
     13 O          -0.9773  -18.6858   21.2028 O.3     1  UNL1       -0.4713
     14 O          -5.8049  -20.4792   21.8941 O.3     1  UNL1       -0.4713
     15 C          -7.2433  -20.2108   22.2241 C.3     1  UNL1        0.2525
     16 C          -8.1531  -15.3414   25.1680 C.3     1  UNL1        0.1154
     17 C          -8.6765  -16.6319   25.7251 C.3     1  UNL1        0.1377
     18 C          -8.1505  -16.1016   27.0259 C.3     1  UNL1        0.0335
     19 C          -9.0931  -16.8925   24.3079 C.3     1  UNL1        0.0613
     20 C          -9.7641  -18.2333   24.2609 C.3     1  UNL1        0.1290
     21 C         -10.4084  -19.5836   24.3684 C.3     1  UNL1        0.0305
     22 C         -10.9807  -20.2408   23.1476 C.3     1  UNL1        0.0025
     23 C         -10.9087  -19.5477   21.8193 C.3     1  UNL1        0.0002
     24 C         -10.2645  -18.1975   21.7117 C.3     1  UNL1        0.0025
     25 C          -9.6921  -17.5402   22.9326 C.3     1  UNL1        0.0305
     26 O          -9.7622  -18.8014   25.6492 O.3     1  UNL1       -0.2256
     27 O          -9.0900  -17.8117   26.5541 O.3     1  UNL1       -0.2251
@<TRIPOS>BOND
     1    12    13    1
     2    13     6    1
     3     6     7   ar
     4     7     8   ar
     5     8     5    1
     6     5     1    1
     7     1     2   am
     8     2     3    2
     9     2    16    1
    10    16    17    1
    11    17    18    1
    12    17    19    1
    13    19    20    1
    14    20    21    1
    15    21    22    1
    16    22    23    1
    17    23    24    1
    18    24    25    1
    19    20    26    1
    20    26    27    1
    21     8     9   ar
    22     9    10   ar
    23    10    14    1
    24    14    15    1
    25    10    11   ar
    26    11     6   ar
    27    27    17    1
    28    25    20    1
    29     1     4    1
@<TRIPOS>MOLECULE
*****
 27 29 0 0 0
SMALL
GASTEIGER

@<TRIPOS>ATOM
      1 N          -5.6293  -15.8723   24.7377 N.am    1  UNL1       -0.3004
      2 C          -6.9633  -15.3799   24.2603 C.2     1  UNL1        0.2252
      3 O          -7.1221  -14.8918   22.8509 O.2     1  UNL1       -0.2750
      4 H          -5.5251  -16.1927   25.6628 H       1  UNL1        0.1497
      5 C          -4.4540  -15.8767   23.8056 C.3     1  UNL1        0.1165
      6 C          -4.7997  -19.4204   22.0527 C.ar    1  UNL1        0.1415
      7 C          -5.1473  -18.1765   22.8156 C.ar    1  UNL1        0.0345
      8 C          -4.1065  -17.1205   23.0427 C.ar    1  UNL1        0.0035
      9 C          -2.7181  -17.3083   22.5069 C.ar    1  UNL1        0.0345
     10 C          -2.3705  -18.5523   21.7440 C.ar    1  UNL1        0.1415
     11 C          -3.4113  -19.6082   21.5169 C.ar    1  UNL1        0.0737
     12 C          -7.2620  -20.2288   22.2356 C.3     1  UNL1        0.2525
     13 O          -5.8406  -20.4763   21.8256 O.3     1  UNL1       -0.4713
     14 O          -0.9821  -18.7401   21.2082 O.3     1  UNL1       -0.4713
     15 C          -0.5287  -17.9599   20.0100 C.3     1  UNL1        0.2525
     16 C          -8.1386  -15.3756   25.1924 C.3     1  UNL1        0.1154
     17 C          -8.6754  -16.6695   25.7284 C.3     1  UNL1        0.1377
     18 C          -8.1492  -16.1635   27.0387 C.3     1  UNL1        0.0335
     19 C          -9.0894  -16.9052   24.3060 C.3     1  UNL1        0.0613
     20 C          -9.7722  -18.2391   24.2368 C.3     1  UNL1        0.1290
     21 C         -10.4288  -19.5850   24.3220 C.3     1  UNL1        0.0305
     22 C         -11.0027  -20.2188   23.0896 C.3     1  UNL1        0.0025
     23 C         -10.9201  -19.5066   21.7720 C.3     1  UNL1        0.0002
     24 C         -10.2635  -18.1607   21.6868 C.3     1  UNL1        0.0025
     25 C          -9.6895  -17.5269   22.9192 C.3     1  UNL1        0.0305
     26 O          -9.7801  -18.8278   25.6164 O.3     1  UNL1       -0.2256
     27 O          -9.1023  -17.8578   26.5383 O.3     1  UNL1       -0.2251
@<TRIPOS>BOND
     1    12    13    1
     2    13     6    1
     3     6     7   ar
     4     7     8   ar
     5     8     5    1
     6     5     1    1
     7     1     2   am
     8     2     3    2
     9     2    16    1
    10    16    17    1
    11    17    18    1
    12    17    19    1
    13    19    20    1
    14    20    21    1
    15    21    22    1
    16    22    23    1
    17    23    24    1
    18    24    25    1
    19    20    26    1
    20    26    27    1
    21     8     9   ar
    22     9    10   ar
    23    10    14    1
    24    14    15    1
    25    10    11   ar
    26    11     6   ar
    27    27    17    1
    28    25    20    1
    29     1     4    1
@<TRIPOS>MOLECULE
*****
 27 29 0 0 0
SMALL
GASTEIGER

@<TRIPOS>ATOM
      1 N          -7.2664  -17.8629   23.0442 N.am    1  UNL1       -0.3004
      2 C          -6.8597  -18.6004   21.8028 C.2     1  UNL1        0.2252
      3 O          -7.4044  -18.1819   20.4694 O.2     1  UNL1       -0.2750
      4 H          -6.9089  -18.1376   23.9194 H       1  UNL1        0.1497
      5 C          -8.2178  -16.7069   22.9519 C.3     1  UNL1        0.1165
      6 C         -11.9134  -17.9463   23.6979 C.ar    1  UNL1        0.1415
      7 C         -10.4430  -17.6965   23.8571 C.ar    1  UNL1        0.0345
      8 C          -9.6883  -16.9567   22.7927 C.ar    1  UNL1        0.0035
      9 C         -10.4040  -16.4666   21.5689 C.ar    1  UNL1        0.0345
     10 C         -11.8745  -16.7164   21.4097 C.ar    1  UNL1        0.1415
     11 C         -12.6292  -17.4562   22.4741 C.ar    1  UNL1        0.0737
     12 C         -14.1175  -18.3835   25.0021 C.3     1  UNL1        0.2525
     13 O         -12.6681  -18.6861   24.7624 O.3     1  UNL1       -0.4713
     14 O         -12.5903  -16.2263   20.1860 O.3     1  UNL1       -0.4713
     15 C         -11.8177  -15.5844   19.0720 C.3     1  UNL1        0.2525
     16 C          -5.9083  -19.7564   21.8950 C.3     1  UNL1        0.1154
     17 C          -4.9523  -20.0323   20.7726 C.3     1  UNL1        0.1377
     18 C          -5.8978  -21.1518   20.4519 C.3     1  UNL1        0.0335
     19 C          -4.2067  -18.8552   21.3279 C.3     1  UNL1        0.0613
     20 C          -2.9874  -18.6375   20.4816 C.3     1  UNL1        0.1290
     21 C          -1.8155  -18.5430   19.5502 C.3     1  UNL1        0.0305
     22 C          -0.7852  -17.4709   19.7476 C.3     1  UNL1        0.0025
     23 C          -0.9267  -16.4934   20.8765 C.3     1  UNL1        0.0002
     24 C          -2.0986  -16.5879   21.8079 C.3     1  UNL1        0.0025
     25 C          -3.1290  -17.6599   21.6105 C.3     1  UNL1        0.0305
     26 O          -2.9796  -19.6801   19.4032 O.3     1  UNL1       -0.2256
     27 O          -4.1940  -20.5422   19.5830 O.3     1  UNL1       -0.2251
@<TRIPOS>BOND
     1    12    13    1
     2    13     6    1
     3     6     7   ar
     4     7     8   ar
     5     8     5    1
     6     5     1    1
     7     1     2   am
     8     2     3    2
     9     2    16    1
    10    16    17    1
    11    17    18    1
    12    17    19    1
    13    19    20    1
    14    20    21    1
    15    21    22    1
    16    22    23    1
    17    23    24    1
    18    24    25    1
    19    20    26    1
    20    26    27    1
    21     8     9   ar
    22     9    10   ar
    23    10    14    1
    24    14    15    1
    25    10    11   ar
    26    11     6   ar
    27    27    17    1
    28    25    20    1
    29     1     4    1
@<TRIPOS>MOLECULE
*****
 27 29 0 0 0
SMALL
GASTEIGER

@<TRIPOS>ATOM
      1 N          -7.3492  -17.9677   23.0537 N.am    1  UNL1       -0.3004
      2 C          -6.9181  -18.6613   21.7954 C.2     1  UNL1        0.2252
      3 O          -7.4276  -18.1887   20.4662 O.2     1  UNL1       -0.2750
      4 H          -7.0147  -18.2779   23.9261 H       1  UNL1        0.1497
      5 C          -8.2897  -16.8014   22.9825 C.3     1  UNL1        0.1165
      6 C         -11.9073  -16.8114   21.3507 C.ar    1  UNL1        0.1415
      7 C         -10.4372  -16.5790   21.5373 C.ar    1  UNL1        0.0345
      8 C          -9.7598  -17.0338   22.7960 C.ar    1  UNL1        0.0035
      9 C         -10.5525  -17.7209   23.8681 C.ar    1  UNL1        0.0345
     10 C         -12.0226  -17.9533   23.6815 C.ar    1  UNL1        0.1415
     11 C         -12.7000  -17.4985   22.4229 C.ar    1  UNL1        0.0737
     12 C         -11.8194  -15.5674   19.0714 C.3     1  UNL1        0.2525
     13 O         -12.5847  -16.3566   20.0920 O.3     1  UNL1       -0.4713
     14 O         -12.8153  -18.6404   24.7537 O.3     1  UNL1       -0.4713
     15 C         -14.2863  -18.3776   24.8837 C.3     1  UNL1        0.2525
     16 C          -5.9775  -19.8277   21.8666 C.3     1  UNL1        0.1154
     17 C          -4.9988  -20.0706   20.7562 C.3     1  UNL1        0.1377
     18 C          -5.9245  -21.1951   20.3979 C.3     1  UNL1        0.0335
     19 C          -4.2777  -18.8953   21.3466 C.3     1  UNL1        0.0613
     20 C          -3.0466  -18.6468   20.5262 C.3     1  UNL1        0.1290
     21 C          -1.8599  -18.5204   19.6176 C.3     1  UNL1        0.0305
     22 C          -0.8466  -17.4399   19.8533 C.3     1  UNL1        0.0025
     23 C          -1.0200  -16.4858   20.9976 C.3     1  UNL1        0.0002
     24 C          -2.2067  -16.6121   21.9062 C.3     1  UNL1        0.0025
     25 C          -3.2200  -17.6926   21.6705 C.3     1  UNL1        0.0305
     26 O          -3.0070  -19.6686   19.4287 O.3     1  UNL1       -0.2256
     27 O          -4.2135  -20.5486   19.5709 O.3     1  UNL1       -0.2251
@<TRIPOS>BOND
     1    12    13    1
     2    13     6    1
     3     6     7   ar
     4     7     8   ar
     5     8     5    1
     6     5     1    1
     7     1     2   am
     8     2     3    2
     9     2    16    1
    10    16    17    1
    11    17    18    1
    12    17    19    1
    13    19    20    1
    14    20    21    1
    15    21    22    1
    16    22    23    1
    17    23    24    1
    18    24    25    1
    19    20    26    1
    20    26    27    1
    21     8     9   ar
    22     9    10   ar
    23    10    14    1
    24    14    15    1
    25    10    11   ar
    26    11     6   ar
    27    27    17    1
    28    25    20    1
    29     1     4    1
@<TRIPOS>MOLECULE
*****
 27 29 0 0 0
SMALL
GASTEIGER

@<TRIPOS>ATOM
      1 N          -5.5968  -16.3523   23.9681 N.am    1  UNL1       -0.3004
      2 C          -4.4002  -15.8086   23.2450 C.2     1  UNL1        0.2252
      3 O          -4.4559  -14.4455   22.6218 O.2     1  UNL1       -0.2750
      4 H          -5.5602  -17.2470   24.3772 H       1  UNL1        0.1497
      5 C          -6.8490  -15.5326   24.0679 C.3     1  UNL1        0.1165
      6 C         -10.2241  -17.5893   23.7088 C.ar    1  UNL1        0.1415
      7 C          -8.9373  -17.0645   24.2734 C.ar    1  UNL1        0.0345
      8 C          -8.1358  -16.0573   23.5033 C.ar    1  UNL1        0.0035
      9 C          -8.6211  -15.5748   22.1685 C.ar    1  UNL1        0.0345
     10 C          -9.9080  -16.0996   21.6039 C.ar    1  UNL1        0.1415
     11 C         -10.7094  -17.1068   22.3740 C.ar    1  UNL1        0.0737
     12 C         -10.4615  -19.9614   24.7418 C.3     1  UNL1        0.2525
     13 O         -11.0255  -18.5965   24.4791 O.3     1  UNL1       -0.4713
     14 O         -10.3933  -15.6171   20.2691 O.3     1  UNL1       -0.4713
     15 C         -11.7494  -16.0229   19.7727 C.3     1  UNL1        0.2525
     16 C          -3.1479  -16.6283   23.1453 C.3     1  UNL1        0.1154
     17 C          -2.7784  -17.2779   21.8448 C.3     1  UNL1        0.1377
     18 C          -1.6854  -16.2508   21.8231 C.3     1  UNL1        0.0335
     19 C          -3.9486  -18.1692   22.1383 C.3     1  UNL1        0.0613
     20 C          -4.0739  -19.1550   21.0146 C.3     1  UNL1        0.1290
     21 C          -4.0741  -20.0708   19.8267 C.3     1  UNL1        0.0305
     22 C          -5.1103  -21.1492   19.7114 C.3     1  UNL1        0.0025
     23 C          -6.1462  -21.3118   20.7839 C.3     1  UNL1        0.0002
     24 C          -6.1460  -20.3960   21.9718 C.3     1  UNL1        0.0025
     25 C          -5.1098  -19.3176   22.0872 C.3     1  UNL1        0.0305
     26 O          -2.9811  -18.8729   20.0266 O.3     1  UNL1       -0.2256
     27 O          -2.1804  -17.7128   20.5396 O.3     1  UNL1       -0.2251
@<TRIPOS>BOND
     1    12    13    1
     2    13     6    1
     3     6     7   ar
     4     7     8   ar
     5     8     5    1
     6     5     1    1
     7     1     2   am
     8     2     3    2
     9     2    16    1
    10    16    17    1
    11    17    18    1
    12    17    19    1
    13    19    20    1
    14    20    21    1
    15    21    22    1
    16    22    23    1
    17    23    24    1
    18    24    25    1
    19    20    26    1
    20    26    27    1
    21     8     9   ar
    22     9    10   ar
    23    10    14    1
    24    14    15    1
    25    10    11   ar
    26    11     6   ar
    27    27    17    1
    28    25    20    1
    29     1     4    1
@<TRIPOS>MOLECULE
*****
 27 29 0 0 0
SMALL
GASTEIGER

@<TRIPOS>ATOM
      1 N          -8.3053  -20.4797   22.8961 N.am    1  UNL1       -0.3004
      2 C          -7.3249  -19.9206   21.9081 C.2     1  UNL1        0.2252
      3 O          -7.7982  -19.0062   20.8173 O.2     1  UNL1       -0.2750
      4 H          -7.9947  -21.0799   23.6121 H       1  UNL1        0.1497
      5 C          -9.7590  -20.1244   22.7933 C.3     1  UNL1        0.1165
      6 C         -10.0280  -16.2789   23.7365 C.ar    1  UNL1        0.1415
      7 C          -9.6078  -17.7186   23.7625 C.ar    1  UNL1        0.0345
      8 C         -10.1792  -18.6847   22.7674 C.ar    1  UNL1        0.0035
      9 C         -11.1706  -18.2111   21.7463 C.ar    1  UNL1        0.0345
     10 C         -11.5908  -16.7713   21.7204 C.ar    1  UNL1        0.1415
     11 C         -11.0194  -15.8053   22.7155 C.ar    1  UNL1        0.0737
     12 C          -7.9699  -15.1603   24.8606 C.3     1  UNL1        0.2525
     13 O          -9.4566  -15.3129   24.7317 O.3     1  UNL1       -0.4713
     14 O         -12.5822  -16.2977   20.6993 O.3     1  UNL1       -0.4713
     15 C         -12.1040  -15.7498   19.3874 C.3     1  UNL1        0.2525
     16 C          -5.8712  -20.2759   22.0109 C.3     1  UNL1        0.1154
     17 C          -5.0096  -20.2722   20.7831 C.3     1  UNL1        0.1377
     18 C          -5.8923  -21.4057   20.3518 C.3     1  UNL1        0.0335
     19 C          -4.3071  -19.1394   21.4710 C.3     1  UNL1        0.0613
     20 C          -3.1958  -18.6725   20.5782 C.3     1  UNL1        0.1290
     21 C          -2.1301  -18.3169   19.5843 C.3     1  UNL1        0.0305
     22 C          -1.1714  -17.2016   19.8795 C.3     1  UNL1        0.0025
     23 C          -1.2785  -16.4420   21.1685 C.3     1  UNL1        0.0002
     24 C          -2.3441  -16.7977   22.1624 C.3     1  UNL1        0.0025
     25 C          -3.3028  -17.9129   21.8672 C.3     1  UNL1        0.0305
     26 O          -3.2115  -19.5168   19.3384 O.3     1  UNL1       -0.2256
     27 O          -4.3326  -20.5054   19.4650 O.3     1  UNL1       -0.2251
@<TRIPOS>BOND
     1    12    13    1
     2    13     6    1
     3     6     7   ar
     4     7     8   ar
     5     8     5    1
     6     5     1    1
     7     1     2   am
     8     2     3    2
     9     2    16    1
    10    16    17    1
    11    17    18    1
    12    17    19    1
    13    19    20    1
    14    20    21    1
    15    21    22    1
    16    22    23    1
    17    23    24    1
    18    24    25    1
    19    20    26    1
    20    26    27    1
    21     8     9   ar
    22     9    10   ar
    23    10    14    1
    24    14    15    1
    25    10    11   ar
    26    11     6   ar
    27    27    17    1
    28    25    20    1
    29     1     4    1
@<TRIPOS>MOLECULE
*****
 27 29 0 0 0
SMALL
GASTEIGER

@<TRIPOS>ATOM
      1 N          -8.2442  -20.5303   23.0265 N.am    1  UNL1       -0.3004
      2 C          -7.2945  -20.0182   21.9844 C.2     1  UNL1        0.2252
      3 O          -7.7940  -19.1234   20.8892 O.2     1  UNL1       -0.2750
      4 H          -7.9163  -21.1176   23.7454 H       1  UNL1        0.1497
      5 C          -9.6935  -20.1473   22.9732 C.3     1  UNL1        0.1165
      6 C         -11.4676  -16.7699   21.8798 C.ar    1  UNL1        0.1415
      7 C         -11.0751  -18.2171   21.9170 C.ar    1  UNL1        0.0345
      8 C         -10.0860  -18.7001   22.9361 C.ar    1  UNL1        0.0035
      9 C          -9.4894  -17.7358   23.9180 C.ar    1  UNL1        0.0345
     10 C          -9.8819  -16.2885   23.8807 C.ar    1  UNL1        0.1415
     11 C         -10.8709  -15.8056   22.8617 C.ar    1  UNL1        0.0737
     12 C         -11.9845  -15.8486   19.5062 C.3     1  UNL1        0.2525
     13 O         -12.4567  -16.2870   20.8607 O.3     1  UNL1       -0.4713
     14 O          -9.2853  -15.3242   24.8626 O.3     1  UNL1       -0.4713
     15 C          -7.8099  -15.0538   24.8464 C.3     1  UNL1        0.2525
     16 C          -5.8451  -20.4011   22.0377 C.3     1  UNL1        0.1154
     17 C          -5.0010  -20.3160   20.8007 C.3     1  UNL1        0.1377
     18 C          -5.8503  -21.4602   20.3323 C.3     1  UNL1        0.0335
     19 C          -4.3281  -19.1896   21.5276 C.3     1  UNL1        0.0613
     20 C          -3.2456  -18.6473   20.6420 C.3     1  UNL1        0.1290
     21 C          -2.2063  -18.2135   19.6512 C.3     1  UNL1        0.0305
     22 C          -1.2822  -17.0792   19.9818 C.3     1  UNL1        0.0025
     23 C          -1.3975  -16.3787   21.3032 C.3     1  UNL1        0.0002
     24 C          -2.4367  -16.8125   22.2939 C.3     1  UNL1        0.0025
     25 C          -3.3608  -17.9468   21.9633 C.3     1  UNL1        0.0305
     26 O          -3.2495  -19.4387   19.3677 O.3     1  UNL1       -0.2256
     27 O          -4.3344  -20.4700   19.4657 O.3     1  UNL1       -0.2251
@<TRIPOS>BOND
     1    12    13    1
     2    13     6    1
     3     6     7   ar
     4     7     8   ar
     5     8     5    1
     6     5     1    1
     7     1     2   am
     8     2     3    2
     9     2    16    1
    10    16    17    1
    11    17    18    1
    12    17    19    1
    13    19    20    1
    14    20    21    1
    15    21    22    1
    16    22    23    1
    17    23    24    1
    18    24    25    1
    19    20    26    1
    20    26    27    1
    21     8     9   ar
    22     9    10   ar
    23    10    14    1
    24    14    15    1
    25    10    11   ar
    26    11     6   ar
    27    27    17    1
    28    25    20    1
    29     1     4    1
@<TRIPOS>MOLECULE
*****
 27 29 0 0 0
SMALL
GASTEIGER

@<TRIPOS>ATOM
      1 N         -11.4522   -6.6096   16.6767 N.am    1  UNL1       -0.3004
      2 C         -10.5235   -6.3543   17.8267 C.2     1  UNL1        0.2252
      3 O         -10.5389   -7.2637   19.0194 O.2     1  UNL1       -0.2750
      4 H         -11.4421   -6.0127   15.8939 H       1  UNL1        0.1497
      5 C         -12.3964   -7.7744   16.7196 C.3     1  UNL1        0.1165
      6 C         -15.6713   -6.2136   18.3285 C.ar    1  UNL1        0.1415
      7 C         -14.3726   -6.3278   17.5867 C.ar    1  UNL1        0.0345
      8 C         -13.6951   -7.6602   17.4615 C.ar    1  UNL1        0.0035
      9 C         -14.3161   -8.8783   18.0782 C.ar    1  UNL1        0.0345
     10 C         -15.6149   -8.7640   18.8201 C.ar    1  UNL1        0.1415
     11 C         -16.2924   -7.4317   18.9452 C.ar    1  UNL1        0.0737
     12 C         -17.3097   -4.6309   19.5780 C.3     1  UNL1        0.2525
     13 O         -16.3489   -4.8811   18.4537 O.3     1  UNL1       -0.4713
     14 O         -16.2360   -9.9822   19.4367 O.3     1  UNL1       -0.4713
     15 C         -17.0467  -10.9199   18.5921 C.3     1  UNL1        0.2525
     16 C          -9.5792   -5.1895   17.7838 C.3     1  UNL1        0.1154
     17 C         -10.0590   -3.8526   17.3018 C.3     1  UNL1        0.1377
     18 C          -8.9067   -3.9589   16.3474 C.3     1  UNL1        0.0335
     19 C         -11.1110   -4.0257   18.3569 C.3     1  UNL1        0.0613
     20 C         -12.0002   -2.8179   18.3275 C.3     1  UNL1        0.1290
     21 C         -12.7990   -1.5568   18.1813 C.3     1  UNL1        0.0305
     22 C         -13.9828   -1.3117   19.0693 C.3     1  UNL1        0.0025
     23 C         -14.3678   -2.3277   20.1035 C.3     1  UNL1        0.0002
     24 C         -13.5690   -3.5888   20.2497 C.3     1  UNL1        0.0025
     25 C         -12.3852   -3.8339   19.3617 C.3     1  UNL1        0.0305
     26 O         -11.4977   -1.8984   17.2542 O.3     1  UNL1       -0.2256
     27 O         -10.2980   -2.5378   16.6203 O.3     1  UNL1       -0.2251
@<TRIPOS>BOND
     1    12    13    1
     2    13     6    1
     3     6     7   ar
     4     7     8   ar
     5     8     5    1
     6     5     1    1
     7     1     2   am
     8     2     3    2
     9     2    16    1
    10    16    17    1
    11    17    18    1
    12    17    19    1
    13    19    20    1
    14    20    21    1
    15    21    22    1
    16    22    23    1
    17    23    24    1
    18    24    25    1
    19    20    26    1
    20    26    27    1
    21     8     9   ar
    22     9    10   ar
    23    10    14    1
    24    14    15    1
    25    10    11   ar
    26    11     6   ar
    27    27    17    1
    28    25    20    1
    29     1     4    1
@<TRIPOS>MOLECULE
*****
 27 29 0 0 0
SMALL
GASTEIGER

@<TRIPOS>ATOM
      1 N         -11.5009   -6.5403   16.8204 N.am    1  UNL1       -0.3004
      2 C         -10.4554   -6.3335   17.8760 C.2     1  UNL1        0.2252
      3 O         -10.3159   -7.3204   18.9969 O.2     1  UNL1       -0.2750
      4 H         -11.5925   -5.8926   16.0847 H       1  UNL1        0.1497
      5 C         -12.4069   -7.7340   16.8859 C.3     1  UNL1        0.1165
      6 C         -15.6824   -8.7584   18.8789 C.ar    1  UNL1        0.1415
      7 C         -14.3590   -8.8588   18.1799 C.ar    1  UNL1        0.0345
      8 C         -13.7303   -7.6337   17.5850 C.ar    1  UNL1        0.0035
      9 C         -14.4249   -6.3083   17.6891 C.ar    1  UNL1        0.0345
     10 C         -15.7483   -6.2081   18.3881 C.ar    1  UNL1        0.1415
     11 C         -16.3770   -7.4331   18.9830 C.ar    1  UNL1        0.0737
     12 C         -17.0835  -10.9289   18.6021 C.3     1  UNL1        0.2525
     13 O         -16.3111   -9.9836   19.4738 O.3     1  UNL1       -0.4713
     14 O         -16.4429   -4.8827   18.4922 O.3     1  UNL1       -0.4713
     15 C         -17.3753   -4.6124   19.6357 C.3     1  UNL1        0.2525
     16 C          -9.5494   -5.1398   17.8105 C.3     1  UNL1        0.1154
     17 C         -10.0720   -3.8286   17.3031 C.3     1  UNL1        0.1377
     18 C          -8.9284   -3.9258   16.3374 C.3     1  UNL1        0.0335
     19 C         -11.1064   -4.0056   18.3749 C.3     1  UNL1        0.0613
     20 C         -12.0293   -2.8240   18.3280 C.3     1  UNL1        0.1290
     21 C         -12.8648   -1.5894   18.1620 C.3     1  UNL1        0.0305
     22 C         -14.0445   -1.3560   19.0585 C.3     1  UNL1        0.0025
     23 C         -14.3888   -2.3573   20.1210 C.3     1  UNL1        0.0002
     24 C         -13.5533   -3.5919   20.2871 C.3     1  UNL1        0.0025
     25 C         -12.3736   -3.8253   19.3906 C.3     1  UNL1        0.0305
     26 O         -11.5654   -1.9168   17.2273 O.3     1  UNL1       -0.2256
     27 O         -10.3556   -2.5377   16.5938 O.3     1  UNL1       -0.2251
@<TRIPOS>BOND
     1    12    13    1
     2    13     6    1
     3     6     7   ar
     4     7     8   ar
     5     8     5    1
     6     5     1    1
     7     1     2   am
     8     2     3    2
     9     2    16    1
    10    16    17    1
    11    17    18    1
    12    17    19    1
    13    19    20    1
    14    20    21    1
    15    21    22    1
    16    22    23    1
    17    23    24    1
    18    24    25    1
    19    20    26    1
    20    26    27    1
    21     8     9   ar
    22     9    10   ar
    23    10    14    1
    24    14    15    1
    25    10    11   ar
    26    11     6   ar
    27    27    17    1
    28    25    20    1
    29     1     4    1
