@<TRIPOS>MOLECULE
*****
 39 43 0 0 0
SMALL
GASTEIGER

@<TRIPOS>ATOM
      1 C          -0.6575    1.6999   26.8009 C.ar    1  UNL1        0.1517
      2 C          -1.7225    2.6816   27.1905 C.ar    1  UNL1        0.0340
      3 C          -2.3401    3.5698   26.1514 C.ar    1  UNL1       -0.0170
      4 C          -1.8926    3.4763   24.7228 C.ar    1  UNL1       -0.0027
      5 C          -0.8275    2.4945   24.3332 C.ar    1  UNL1        0.0174
      6 C          -0.2099    1.6063   25.3723 C.ar    1  UNL1        0.0849
      7 C          -3.4052    4.5515   26.5410 C.3     1  UNL1        0.0521
      8 C          -3.0561    5.7411   27.3855 C.3     1  UNL1        0.0241
      9 C          -4.1213    6.7228   27.7750 C.3     1  UNL1        0.0727
     10 N          -5.5354    6.5150   27.3200 N.3     1  UNL1       -0.2685
     11 C          -5.8845    5.3255   26.4755 C.3     1  UNL1        0.1021
     12 C          -4.8194    4.3438   26.0860 C.3     1  UNL1        0.1304
     13 O          -5.1685    3.1542   25.2415 O.3     1  UNL1       -0.3827
     14 H          -4.3710    2.6254   25.0825 H       1  UNL1        0.2104
     15 C          -6.6005    7.4968   27.7096 C.3     1  UNL1        0.1043
     16 C          -7.4832    7.2168   28.8896 C.3     1  UNL1        0.1544
     17 O          -8.0997    5.8599   29.0599 O.3     1  UNL1       -0.3805
     18 H          -8.7323    5.6998   28.3422 H       1  UNL1        0.2105
     19 C          -0.8937   -0.1599   28.5997 C.3     1  UNL1        0.2525
     20 O          -0.0399    0.8116   27.8400 O.3     1  UNL1       -0.4702
     21 N           0.8551    0.6246   24.9827 N.pl3   1  UNL1       -0.2790
     22 H           0.8149   -0.3021   25.3127 H       1  UNL1        0.1552
     23 C           1.9816    1.0548   24.0905 C.ar    1  UNL1        0.2383
     24 N           2.5142    2.4544   24.1767 N.ar    1  UNL1       -0.2093
     25 C           3.6406    2.8845   23.2845 C.ar    1  UNL1        0.1209
     26 C           4.2344    1.9150   22.3060 C.ar    1  UNL1        0.1021
     27 C           5.3437    2.0514   21.3054 C.ar    1  UNL1        0.0223
     28 C           5.4966    0.7361   20.6008 C.ar    1  UNL1        0.0208
     29 C           4.4820   -0.2132   21.1659 C.ar    1  UNL1        0.0859
     30 N           3.7019    0.5154   22.2197 N.ar    1  UNL1       -0.2255
     31 N           2.5755    0.0853   23.1120 N.ar    1  UNL1       -0.1295
     32 C           4.2824   -1.6406   20.7501 C.ar    1  UNL1        0.0517
     33 C           4.6571   -2.7531   21.6838 C.ar    1  UNL1        0.0045
     34 C           4.4575   -4.1805   21.2681 C.ar    1  UNL1        0.0002
     35 C           3.8832   -4.4953   19.9187 C.ar    1  UNL1        0.0031
     36 C           3.5085   -3.3828   18.9850 C.ar    1  UNL1        0.0369
     37 C           3.7080   -1.9554   19.4007 C.ar    1  UNL1        0.1401
     38 O           3.3333   -0.8429   18.4669 O.3     1  UNL1       -0.4714
     39 C           3.8822   -0.8181   17.0712 C.3     1  UNL1        0.2525
@<TRIPOS>BOND
     1    19    20    1
     2    20     1    1
     3     1     2   ar
     4     2     3   ar
     5     7     3    1
     6     7     8    1
     7     8     9    1
     8     9    10    1
     9    10    15    1
    10    15    16    1
    11    16    17    1
    12    10    11    1
    13    11    12    1
    14    12    13    1
    15     3     4   ar
    16     4     5   ar
    17     5     6   ar
    18     6    21    1
    19    21    23    1
    20    23    24   ar
    21    24    25   ar
    22    25    26   ar
    23    26    27   ar
    24    27    28   ar
    25    28    29   ar
    26    29    32    1
    27    32    33   ar
    28    33    34   ar
    29    34    35   ar
    30    35    36   ar
    31    36    37   ar
    32    37    38    1
    33    38    39    1
    34    29    30   ar
    35    30    31   ar
    36     6     1   ar
    37    31    23   ar
    38    12     7    1
    39    30    26   ar
    40    37    32   ar
    41    17    18    1
    42    13    14    1
    43    21    22    1
@<TRIPOS>MOLECULE
*****
 39 43 0 0 0
SMALL
GASTEIGER

@<TRIPOS>ATOM
      1 C           0.4620    1.5991   26.6323 C.ar    1  UNL1        0.1517
      2 C          -0.9465    2.0691   26.4199 C.ar    1  UNL1        0.0340
      3 C          -1.2390    3.1218   25.3921 C.ar    1  UNL1       -0.0170
      4 C          -0.1230    3.7045   24.5768 C.ar    1  UNL1       -0.0027
      5 C           1.2856    3.2345   24.7891 C.ar    1  UNL1        0.0174
      6 C           1.5781    2.1818   25.8169 C.ar    1  UNL1        0.0849
      7 C          -2.6475    3.5917   25.1798 C.3     1  UNL1        0.0521
      8 C          -3.5123    3.9266   26.3588 C.3     1  UNL1        0.0241
      9 C          -4.9209    4.3966   26.1464 C.3     1  UNL1        0.0727
     10 N          -5.4647    4.5317   24.7550 N.3     1  UNL1       -0.2685
     11 C          -4.5999    4.1969   23.5760 C.3     1  UNL1        0.1021
     12 C          -3.1914    3.7269   23.7883 C.3     1  UNL1        0.1304
     13 O          -2.3266    3.3921   22.6093 O.3     1  UNL1       -0.3827
     14 H          -1.4530    3.1069   22.9197 H       1  UNL1        0.2104
     15 C          -6.8732    5.0017   24.5426 C.3     1  UNL1        0.1043
     16 C          -7.6641    4.4964   23.3726 C.3     1  UNL1        0.1544
     17 O          -8.8519    3.6082   23.5975 O.3     1  UNL1       -0.3805
     18 H          -8.5574    2.7631   23.9716 H       1  UNL1        0.2105
     19 C           0.2290    0.6955   29.0570 C.3     1  UNL1        0.2525
     20 O           0.7545    0.5464   27.6600 O.3     1  UNL1       -0.4702
     21 N           2.9866    1.7118   26.0292 N.pl3   1  UNL1       -0.2790
     22 H           3.5921    2.2205   26.6156 H       1  UNL1        0.1552
     23 C           3.4726    0.4667   25.3482 C.ar    1  UNL1        0.2383
     24 N           4.2466   -0.5584   26.1227 N.ar    1  UNL1       -0.2093
     25 C           4.7325   -1.8034   25.4417 C.ar    1  UNL1        0.1209
     26 C           4.4444   -2.0233   23.9862 C.ar    1  UNL1        0.1021
     27 C           4.7923   -3.1445   23.0523 C.ar    1  UNL1        0.0223
     28 C           4.2331   -2.8123   21.7007 C.ar    1  UNL1        0.0208
     29 C           3.5398   -1.4858   21.7991 C.ar    1  UNL1        0.0859
     30 N           3.6703   -0.9981   23.2116 N.ar    1  UNL1       -0.2255
     31 N           3.1844    0.2468   23.8927 N.ar    1  UNL1       -0.1295
     32 C           2.8389   -0.7721   20.6813 C.ar    1  UNL1        0.0517
     33 C           1.3851   -0.4249   20.8081 C.ar    1  UNL1        0.0045
     34 C           0.6842    0.2887   19.6903 C.ar    1  UNL1        0.0002
     35 C           1.4370    0.6551   18.4457 C.ar    1  UNL1        0.0031
     36 C           2.8907    0.3079   18.3190 C.ar    1  UNL1        0.0369
     37 C           3.5916   -0.4057   19.4368 C.ar    1  UNL1        0.1401
     38 O           5.0454   -0.7529   19.3099 O.3     1  UNL1       -0.4714
     39 C           6.0713    0.3372   19.2140 C.3     1  UNL1        0.2525
@<TRIPOS>BOND
     1    19    20    1
     2    20     1    1
     3     1     2   ar
     4     2     3   ar
     5     7     3    1
     6     7     8    1
     7     8     9    1
     8     9    10    1
     9    10    15    1
    10    15    16    1
    11    16    17    1
    12    10    11    1
    13    11    12    1
    14    12    13    1
    15     3     4   ar
    16     4     5   ar
    17     5     6   ar
    18     6    21    1
    19    21    23    1
    20    23    24   ar
    21    24    25   ar
    22    25    26   ar
    23    26    27   ar
    24    27    28   ar
    25    28    29   ar
    26    29    32    1
    27    32    33   ar
    28    33    34   ar
    29    34    35   ar
    30    35    36   ar
    31    36    37   ar
    32    37    38    1
    33    38    39    1
    34    29    30   ar
    35    30    31   ar
    36     6     1   ar
    37    31    23   ar
    38    12     7    1
    39    30    26   ar
    40    37    32   ar
    41    17    18    1
    42    13    14    1
    43    21    22    1
@<TRIPOS>MOLECULE
*****
 39 43 0 0 0
SMALL
GASTEIGER

@<TRIPOS>ATOM
      1 C           5.2857   -3.4686   20.5886 C.ar    1  UNL1        0.1517
      2 C           5.4567   -3.9373   22.0032 C.ar    1  UNL1        0.0340
      3 C           6.8231   -3.9743   22.6210 C.ar    1  UNL1       -0.0170
      4 C           8.0184   -3.5426   21.8243 C.ar    1  UNL1       -0.0027
      5 C           7.8474   -3.0739   20.4096 C.ar    1  UNL1        0.0174
      6 C           6.4810   -3.0369   19.7918 C.ar    1  UNL1        0.0849
      7 C           6.9941   -4.4430   24.0356 C.3     1  UNL1        0.0521
      8 C           6.5621   -3.5664   25.1735 C.3     1  UNL1        0.0241
      9 C           6.7332   -4.0352   26.5882 C.3     1  UNL1        0.0727
     10 N           7.3363   -5.3804   26.8647 N.3     1  UNL1       -0.2685
     11 C           7.7683   -6.2570   25.7268 C.3     1  UNL1        0.1021
     12 C           7.5973   -5.7883   24.3122 C.3     1  UNL1        0.1304
     13 O           8.0293   -6.6649   23.1742 O.3     1  UNL1       -0.3827
     14 H           7.8499   -6.2153   22.3336 H       1  UNL1        0.2104
     15 C           7.5073   -5.8491   28.2793 C.3     1  UNL1        0.1043
     16 C           6.6198   -5.3086   29.3610 C.3     1  UNL1        0.1544
     17 O           6.6674   -5.9034   30.7373 O.3     1  UNL1       -0.3805
     18 H           6.3460   -6.8180   30.7056 H       1  UNL1        0.2105
     19 C           3.3949   -4.6308   19.2379 C.3     1  UNL1        0.2525
     20 O           3.9193   -3.4317   19.9708 O.3     1  UNL1       -0.4702
     21 N           6.3100   -2.5682   18.3772 N.pl3   1  UNL1       -0.2790
     22 H           6.3706   -3.2118   17.6347 H       1  UNL1        0.1552
     23 C           6.0465   -1.1189   18.0940 C.ar    1  UNL1        0.2383
     24 N           6.8507   -0.4002   17.0515 N.ar    1  UNL1       -0.2093
     25 C           6.5872    1.0490   16.7683 C.ar    1  UNL1        0.1209
     26 C           5.5196    1.7796   17.5276 C.ar    1  UNL1        0.1021
     27 C           5.0372    3.1987   17.4668 C.ar    1  UNL1        0.0223
     28 C           3.9349    3.3569   18.4717 C.ar    1  UNL1        0.0208
     29 C           3.7360    2.0357   19.1535 C.ar    1  UNL1        0.0859
     30 N           4.7154    1.0609   18.5700 N.ar    1  UNL1       -0.2255
     31 N           4.9789   -0.3884   18.8532 N.ar    1  UNL1       -0.1295
     32 C           2.7337    1.7411   20.2299 C.ar    1  UNL1        0.0517
     33 C           3.1841    1.5871   21.6523 C.ar    1  UNL1        0.0045
     34 C           2.1818    1.2924   22.7287 C.ar    1  UNL1        0.0002
     35 C           0.7291    1.1517   22.3827 C.ar    1  UNL1        0.0031
     36 C           0.2787    1.3057   20.9602 C.ar    1  UNL1        0.0369
     37 C           1.2810    1.6004   19.8838 C.ar    1  UNL1        0.1401
     38 O           0.8305    1.7544   18.4614 O.3     1  UNL1       -0.4714
     39 C           0.0768    2.9816   18.0419 C.3     1  UNL1        0.2525
@<TRIPOS>BOND
     1    19    20    1
     2    20     1    1
     3     1     2   ar
     4     2     3   ar
     5     7     3    1
     6     7     8    1
     7     8     9    1
     8     9    10    1
     9    10    15    1
    10    15    16    1
    11    16    17    1
    12    10    11    1
    13    11    12    1
    14    12    13    1
    15     3     4   ar
    16     4     5   ar
    17     5     6   ar
    18     6    21    1
    19    21    23    1
    20    23    24   ar
    21    24    25   ar
    22    25    26   ar
    23    26    27   ar
    24    27    28   ar
    25    28    29   ar
    26    29    32    1
    27    32    33   ar
    28    33    34   ar
    29    34    35   ar
    30    35    36   ar
    31    36    37   ar
    32    37    38    1
    33    38    39    1
    34    29    30   ar
    35    30    31   ar
    36     6     1   ar
    37    31    23   ar
    38    12     7    1
    39    30    26   ar
    40    37    32   ar
    41    17    18    1
    42    13    14    1
    43    21    22    1
@<TRIPOS>MOLECULE
*****
 39 43 0 0 0
SMALL
GASTEIGER

@<TRIPOS>ATOM
      1 C           6.6467   -0.7600   33.9285 C.ar    1  UNL1        0.1517
      2 C           7.0345   -1.5999   32.7479 C.ar    1  UNL1        0.0340
      3 C           6.0583   -2.5839   32.1745 C.ar    1  UNL1       -0.0170
      4 C           4.6943   -2.7280   32.7818 C.ar    1  UNL1       -0.0027
      5 C           4.3065   -1.8880   33.9625 C.ar    1  UNL1        0.0174
      6 C           5.2827   -0.9039   34.5359 C.ar    1  UNL1        0.0849
      7 C           6.4460   -3.4239   30.9938 C.3     1  UNL1        0.0521
      8 C           6.5461   -2.8030   29.6321 C.3     1  UNL1        0.0241
      9 C           6.9338   -3.6431   28.4514 C.3     1  UNL1        0.0727
     10 N           7.2215   -5.1040   28.6325 N.3     1  UNL1       -0.2685
     11 C           7.1215   -5.7249   29.9942 C.3     1  UNL1        0.1021
     12 C           6.7337   -4.8850   31.1749 C.3     1  UNL1        0.1304
     13 O           6.6337   -5.5059   32.5367 O.3     1  UNL1       -0.3827
     14 H           6.3744   -4.8298   33.1821 H       1  UNL1        0.2104
     15 C           7.6093   -5.9440   27.4518 C.3     1  UNL1        0.1043
     16 C           7.8866   -7.4072   27.6310 C.3     1  UNL1        0.1544
     17 O           7.4657   -8.3853   26.5744 O.3     1  UNL1       -0.3805
     18 H           6.4973   -8.4087   26.5229 H       1  UNL1        0.2105
     19 C           7.6322    1.6424   34.0140 C.3     1  UNL1        0.2525
     20 O           7.6229    0.2241   34.5019 O.3     1  UNL1       -0.4702
     21 N           4.8950   -0.0640   35.7166 N.pl3   1  UNL1       -0.2790
     22 H           5.2236   -0.2962   36.6151 H       1  UNL1        0.1552
     23 C           4.0065    1.1299   35.5283 C.ar    1  UNL1        0.2383
     24 N           3.7768    2.0806   36.6655 N.ar    1  UNL1       -0.2093
     25 C           2.8883    3.2744   36.4772 C.ar    1  UNL1        0.1209
     26 C           2.2296    3.5174   35.1517 C.ar    1  UNL1        0.1021
     27 C           1.3090    4.6003   34.6719 C.ar    1  UNL1        0.0223
     28 C           0.9698    4.3187   33.2381 C.ar    1  UNL1        0.0208
     29 C           1.6807    3.0618   32.8319 C.ar    1  UNL1        0.0859
     30 N           2.4593    2.5667   34.0145 N.ar    1  UNL1       -0.2255
     31 N           3.3477    1.3729   34.2028 N.ar    1  UNL1       -0.1295
     32 C           1.6231    2.4139   31.4802 C.ar    1  UNL1        0.0517
     33 C           0.3313    1.8406   30.9777 C.ar    1  UNL1        0.0045
     34 C           0.2738    1.1927   29.6261 C.ar    1  UNL1        0.0002
     35 C           1.5080    1.1181   28.7769 C.ar    1  UNL1        0.0031
     36 C           2.7998    1.6914   29.2794 C.ar    1  UNL1        0.0369
     37 C           2.8573    2.3394   30.6310 C.ar    1  UNL1        0.1401
     38 O           4.1492    2.9127   31.1335 O.3     1  UNL1       -0.4714
     39 C           5.3435    2.0238   31.3165 C.3     1  UNL1        0.2525
@<TRIPOS>BOND
     1    19    20    1
     2    20     1    1
     3     1     2   ar
     4     2     3   ar
     5     7     3    1
     6     7     8    1
     7     8     9    1
     8     9    10    1
     9    10    15    1
    10    15    16    1
    11    16    17    1
    12    10    11    1
    13    11    12    1
    14    12    13    1
    15     3     4   ar
    16     4     5   ar
    17     5     6   ar
    18     6    21    1
    19    21    23    1
    20    23    24   ar
    21    24    25   ar
    22    25    26   ar
    23    26    27   ar
    24    27    28   ar
    25    28    29   ar
    26    29    32    1
    27    32    33   ar
    28    33    34   ar
    29    34    35   ar
    30    35    36   ar
    31    36    37   ar
    32    37    38    1
    33    38    39    1
    34    29    30   ar
    35    30    31   ar
    36     6     1   ar
    37    31    23   ar
    38    12     7    1
    39    30    26   ar
    40    37    32   ar
    41    17    18    1
    42    13    14    1
    43    21    22    1
@<TRIPOS>MOLECULE
*****
 39 43 0 0 0
SMALL
GASTEIGER

@<TRIPOS>ATOM
      1 C           5.2761   -3.4804   20.6519 C.ar    1  UNL1        0.1517
      2 C           5.4457   -3.9137   22.0779 C.ar    1  UNL1        0.0340
      3 C           6.8111   -3.9327   22.6986 C.ar    1  UNL1       -0.0170
      4 C           8.0069   -3.5183   21.8934 C.ar    1  UNL1       -0.0027
      5 C           7.8372   -3.0849   20.4673 C.ar    1  UNL1        0.0174
      6 C           6.4718   -3.0660   19.8466 C.ar    1  UNL1        0.0849
      7 C           6.9807   -4.3660   24.1246 C.3     1  UNL1        0.0521
      8 C           6.5379   -3.4659   25.2397 C.3     1  UNL1        0.0241
      9 C           6.7076   -3.8993   26.6657 C.3     1  UNL1        0.0727
     10 N           7.3201   -5.2327   26.9765 N.3     1  UNL1       -0.2685
     11 C           7.7629   -6.1329   25.8614 C.3     1  UNL1        0.1021
     12 C           7.5933   -5.6996   24.4354 C.3     1  UNL1        0.1304
     13 O           8.0361   -6.5997   23.3202 O.3     1  UNL1       -0.3827
     14 H           7.8562   -6.1718   22.4685 H       1  UNL1        0.2104
     15 C           7.4897   -5.6661   28.4025 C.3     1  UNL1        0.1043
     16 C           6.5360   -5.1791   29.4529 C.3     1  UNL1        0.1544
     17 O           6.5455   -5.7978   30.8194 O.3     1  UNL1       -0.3805
     18 H           6.2604   -6.7229   30.7575 H       1  UNL1        0.2105
     19 C           3.4040   -4.6670   19.2964 C.3     1  UNL1        0.2525
     20 O           3.9107   -3.4615   20.0312 O.3     1  UNL1       -0.4702
     21 N           6.3022   -2.6327   18.4206 N.pl3   1  UNL1       -0.2790
     22 H           6.3529   -3.2962   17.6952 H       1  UNL1        0.1552
     23 C           6.0552   -1.1883   18.1000 C.ar    1  UNL1        0.2383
     24 N           6.9287   -0.4804   17.1071 N.ar    1  UNL1       -0.2093
     25 C           6.6817    0.9639   16.7865 C.ar    1  UNL1        0.1209
     26 C           5.5612    1.7004   17.4588 C.ar    1  UNL1        0.1021
     27 C           5.0803    3.1167   17.3451 C.ar    1  UNL1        0.0223
     28 C           3.9096    3.2842   18.2678 C.ar    1  UNL1        0.0208
     29 C           3.6670    1.9714   18.9517 C.ar    1  UNL1        0.0859
     30 N           4.6877    0.9926   18.4518 N.ar    1  UNL1       -0.2255
     31 N           4.9347   -0.4517   18.7724 N.ar    1  UNL1       -0.1295
     32 C           2.5923    1.6873   19.9589 C.ar    1  UNL1        0.0517
     33 C           1.2357    1.2390   19.5019 C.ar    1  UNL1        0.0045
     34 C           0.1610    0.9549   20.5090 C.ar    1  UNL1        0.0002
     35 C           0.4428    1.1190   21.9731 C.ar    1  UNL1        0.0031
     36 C           1.7994    1.5673   22.4301 C.ar    1  UNL1        0.0369
     37 C           2.8741    1.8514   21.4229 C.ar    1  UNL1        0.1401
     38 O           4.2306    2.2996   21.8800 O.3     1  UNL1       -0.4714
     39 C           5.2714    1.2842   22.2486 C.3     1  UNL1        0.2525
@<TRIPOS>BOND
     1    19    20    1
     2    20     1    1
     3     1     2   ar
     4     2     3   ar
     5     7     3    1
     6     7     8    1
     7     8     9    1
     8     9    10    1
     9    10    15    1
    10    15    16    1
    11    16    17    1
    12    10    11    1
    13    11    12    1
    14    12    13    1
    15     3     4   ar
    16     4     5   ar
    17     5     6   ar
    18     6    21    1
    19    21    23    1
    20    23    24   ar
    21    24    25   ar
    22    25    26   ar
    23    26    27   ar
    24    27    28   ar
    25    28    29   ar
    26    29    32    1
    27    32    33   ar
    28    33    34   ar
    29    34    35   ar
    30    35    36   ar
    31    36    37   ar
    32    37    38    1
    33    38    39    1
    34    29    30   ar
    35    30    31   ar
    36     6     1   ar
    37    31    23   ar
    38    12     7    1
    39    30    26   ar
    40    37    32   ar
    41    17    18    1
    42    13    14    1
    43    21    22    1
@<TRIPOS>MOLECULE
*****
 39 43 0 0 0
SMALL
GASTEIGER

@<TRIPOS>ATOM
      1 C           6.9352   -1.3321   25.6470 C.ar    1  UNL1        0.1517
      2 C           6.2882   -1.1241   26.9842 C.ar    1  UNL1        0.0340
      3 C           5.3832    0.0516   27.2048 C.ar    1  UNL1       -0.0170
      4 C           5.1252    1.0193   26.0882 C.ar    1  UNL1       -0.0027
      5 C           5.7722    0.8114   24.7509 C.ar    1  UNL1        0.0174
      6 C           6.6772   -0.3643   24.5303 C.ar    1  UNL1        0.0849
      7 C           4.7362    0.2596   28.5419 C.3     1  UNL1        0.0521
      8 C           5.3840    1.1532   29.5577 C.3     1  UNL1        0.0241
      9 C           4.7369    1.3611   30.8949 C.3     1  UNL1        0.0727
     10 N           3.4421    0.6755   31.2164 N.3     1  UNL1       -0.2685
     11 C           2.7943   -0.2182   30.2006 C.3     1  UNL1        0.1021
     12 C           3.4413   -0.4261   28.8634 C.3     1  UNL1        0.1304
     13 O           2.7935   -1.3198   27.8477 O.3     1  UNL1       -0.3827
     14 H           3.3374   -1.3442   27.0449 H       1  UNL1        0.2104
     15 C           2.7951    0.8835   32.5535 C.3     1  UNL1        0.1043
     16 C           1.7379    1.9345   32.7199 C.3     1  UNL1        0.1544
     17 O           0.3510    1.6916   32.2025 O.3     1  UNL1       -0.3805
     18 H           0.3724    1.6347   31.2344 H       1  UNL1        0.2105
     19 C           7.5836   -3.7975   26.1480 C.3     1  UNL1        0.2525
     20 O           7.8402   -2.5078   25.4264 O.3     1  UNL1       -0.4702
     21 N           7.3242   -0.5723   23.1931 N.pl3   1  UNL1       -0.2790
     22 H           8.1212   -0.0503   22.9454 H       1  UNL1        0.1552
     23 C           6.7567   -1.5757   22.2333 C.ar    1  UNL1        0.2383
     24 N           7.4465   -2.8920   22.0293 N.ar    1  UNL1       -0.2093
     25 C           6.8790   -3.8953   21.0695 C.ar    1  UNL1        0.1209
     26 C           5.6217   -3.5824   20.3137 C.ar    1  UNL1        0.1021
     27 C           4.8329   -4.3683   19.3085 C.ar    1  UNL1        0.0223
     28 C           3.6556   -3.5377   18.8913 C.ar    1  UNL1        0.0208
     29 C           3.7168   -2.2385   19.6386 C.ar    1  UNL1        0.0859
     30 N           4.9319   -2.2661   20.5176 N.ar    1  UNL1       -0.2255
     31 N           5.4994   -1.2628   21.4774 N.ar    1  UNL1       -0.1295
     32 C           2.7352   -1.1099   19.5265 C.ar    1  UNL1        0.0517
     33 C           1.6455   -0.9596   20.5463 C.ar    1  UNL1        0.0045
     34 C           0.6639    0.1691   20.4342 C.ar    1  UNL1        0.0002
     35 C           0.7719    1.1475   19.3024 C.ar    1  UNL1        0.0031
     36 C           1.8616    0.9971   18.2826 C.ar    1  UNL1        0.0369
     37 C           2.8432   -0.1315   18.3947 C.ar    1  UNL1        0.1401
     38 O           3.9329   -0.2818   17.3748 O.3     1  UNL1       -0.4714
     39 C           5.2280    0.4553   17.5467 C.3     1  UNL1        0.2525
@<TRIPOS>BOND
     1    19    20    1
     2    20     1    1
     3     1     2   ar
     4     2     3   ar
     5     7     3    1
     6     7     8    1
     7     8     9    1
     8     9    10    1
     9    10    15    1
    10    15    16    1
    11    16    17    1
    12    10    11    1
    13    11    12    1
    14    12    13    1
    15     3     4   ar
    16     4     5   ar
    17     5     6   ar
    18     6    21    1
    19    21    23    1
    20    23    24   ar
    21    24    25   ar
    22    25    26   ar
    23    26    27   ar
    24    27    28   ar
    25    28    29   ar
    26    29    32    1
    27    32    33   ar
    28    33    34   ar
    29    34    35   ar
    30    35    36   ar
    31    36    37   ar
    32    37    38    1
    33    38    39    1
    34    29    30   ar
    35    30    31   ar
    36     6     1   ar
    37    31    23   ar
    38    12     7    1
    39    30    26   ar
    40    37    32   ar
    41    17    18    1
    42    13    14    1
    43    21    22    1
@<TRIPOS>MOLECULE
*****
 39 43 0 0 0
SMALL
GASTEIGER

@<TRIPOS>ATOM
      1 C           5.5985    0.7585   24.4300 C.ar    1  UNL1        0.1517
      2 C           6.1669   -0.1293   25.4970 C.ar    1  UNL1        0.0340
      3 C           5.3029   -1.1696   26.1460 C.ar    1  UNL1       -0.0170
      4 C           3.8704   -1.3221   25.7279 C.ar    1  UNL1       -0.0027
      5 C           3.3020   -0.4343   24.6608 C.ar    1  UNL1        0.0174
      6 C           4.1660    0.6061   24.0118 C.ar    1  UNL1        0.0849
      7 C           5.8712   -2.0575   27.2131 C.3     1  UNL1        0.0521
      8 C           5.9799   -1.5595   28.6238 C.3     1  UNL1        0.0241
      9 C           6.5483   -2.4474   29.6909 C.3     1  UNL1        0.0727
     10 N           7.0081   -3.8332   29.3472 N.3     1  UNL1       -0.2685
     11 C           6.8995   -4.3311   27.9364 C.3     1  UNL1        0.1021
     12 C           6.3311   -3.4433   26.8694 C.3     1  UNL1        0.1304
     13 O           6.2225   -3.9413   25.4586 O.3     1  UNL1       -0.3827
     14 H           5.8371   -3.2483   24.8999 H       1  UNL1        0.2104
     15 C           7.5764   -4.7210   30.4143 C.3     1  UNL1        0.1043
     16 C           6.8819   -4.8415   31.7383 C.3     1  UNL1        0.1544
     17 O           6.5167   -6.1944   32.2734 O.3     1  UNL1       -0.3805
     18 H           5.8459   -6.5983   31.7008 H       1  UNL1        0.2105
     19 C           7.6417    1.3838   22.9521 C.3     1  UNL1        0.2525
     20 O           6.4626    1.7989   23.7810 O.3     1  UNL1       -0.4702
     21 N           3.5976    1.4939   22.9448 N.pl3   1  UNL1       -0.2790
     22 H           3.2702    2.3932   23.1755 H       1  UNL1        0.1552
     23 C           3.5281    1.0115   21.5261 C.ar    1  UNL1        0.2383
     24 N           2.4647    1.5353   20.6071 N.ar    1  UNL1       -0.2093
     25 C           2.3952    1.0529   19.1885 C.ar    1  UNL1        0.1209
     26 C           3.3892    0.0467   18.6890 C.ar    1  UNL1        0.1021
     27 C           3.5681   -0.6088   17.3516 C.ar    1  UNL1        0.0223
     28 C           4.7422   -1.5378   17.4442 C.ar    1  UNL1        0.0208
     29 C           5.2888   -1.4564   18.8387 C.ar    1  UNL1        0.0859
     30 N           4.4526   -0.4772   19.6080 N.ar    1  UNL1       -0.2255
     31 N           4.5221    0.0052   21.0266 N.ar    1  UNL1       -0.1295
     32 C           6.4651   -2.2202   19.3706 C.ar    1  UNL1        0.0517
     33 C           7.8455   -1.9173   18.8678 C.ar    1  UNL1        0.0045
     34 C           9.0218   -2.6811   19.3997 C.ar    1  UNL1        0.0002
     35 C           8.8178   -3.7478   20.4343 C.ar    1  UNL1        0.0031
     36 C           7.4374   -4.0507   20.9371 C.ar    1  UNL1        0.0369
     37 C           6.2611   -3.2869   20.4053 C.ar    1  UNL1        0.1401
     38 O           4.8807   -3.5898   20.9081 O.3     1  UNL1       -0.4714
     39 C           4.5600   -3.4256   22.3642 C.3     1  UNL1        0.2525
@<TRIPOS>BOND
     1    19    20    1
     2    20     1    1
     3     1     2   ar
     4     2     3   ar
     5     7     3    1
     6     7     8    1
     7     8     9    1
     8     9    10    1
     9    10    15    1
    10    15    16    1
    11    16    17    1
    12    10    11    1
    13    11    12    1
    14    12    13    1
    15     3     4   ar
    16     4     5   ar
    17     5     6   ar
    18     6    21    1
    19    21    23    1
    20    23    24   ar
    21    24    25   ar
    22    25    26   ar
    23    26    27   ar
    24    27    28   ar
    25    28    29   ar
    26    29    32    1
    27    32    33   ar
    28    33    34   ar
    29    34    35   ar
    30    35    36   ar
    31    36    37   ar
    32    37    38    1
    33    38    39    1
    34    29    30   ar
    35    30    31   ar
    36     6     1   ar
    37    31    23   ar
    38    12     7    1
    39    30    26   ar
    40    37    32   ar
    41    17    18    1
    42    13    14    1
    43    21    22    1
@<TRIPOS>MOLECULE
*****
 39 43 0 0 0
SMALL
GASTEIGER

@<TRIPOS>ATOM
      1 C           1.4769    3.0709   26.2826 C.ar    1  UNL1        0.1517
      2 C           2.1052    2.5048   27.5213 C.ar    1  UNL1        0.0340
      3 C           1.3879    1.4508   28.3117 C.ar    1  UNL1       -0.0170
      4 C           0.0421    0.9631   27.8633 C.ar    1  UNL1       -0.0027
      5 C          -0.5863    1.5293   26.6245 C.ar    1  UNL1        0.0174
      6 C           0.1311    2.5832   25.8341 C.ar    1  UNL1        0.0849
      7 C           2.0162    0.8847   29.5504 C.3     1  UNL1        0.0521
      8 C           2.7513   -0.4214   29.4888 C.3     1  UNL1        0.0241
      9 C           3.3797   -0.9876   30.7277 C.3     1  UNL1        0.0727
     10 N           3.2729   -0.2477   32.0281 N.3     1  UNL1       -0.2685
     11 C           2.5378    1.0584   32.0897 C.3     1  UNL1        0.1021
     12 C           1.9095    1.6246   30.8509 C.3     1  UNL1        0.1304
     13 O           1.1744    2.9306   30.9126 O.3     1  UNL1       -0.3827
     14 H           0.8323    3.1510   30.0321 H       1  UNL1        0.2104
     15 C           3.9013   -0.8138   33.2668 C.3     1  UNL1        0.1043
     16 C           4.4643   -2.2041   33.2540 C.3     1  UNL1        0.1544
     17 O           3.6306   -3.3554   33.7331 O.3     1  UNL1       -0.3805
     18 H           3.4603   -3.2580   34.6830 H       1  UNL1        0.2105
     19 C           3.6884    4.0822   25.3681 C.3     1  UNL1        0.2525
     20 O           2.1942    4.1249   25.4922 O.3     1  UNL1       -0.4702
     21 N          -0.4973    3.1494   24.5953 N.pl3   1  UNL1       -0.2790
     22 H          -1.0980    3.9267   24.6593 H       1  UNL1        0.1552
     23 C          -0.2104    2.5311   23.2591 C.ar    1  UNL1        0.2383
     24 N          -0.9526    2.9977   22.0420 N.ar    1  UNL1       -0.2093
     25 C          -0.6657    2.3794   20.7058 C.ar    1  UNL1        0.1209
     26 C           0.3633    1.2946   20.5867 C.ar    1  UNL1        0.1021
     27 C           0.8565    0.5036   19.4114 C.ar    1  UNL1        0.0223
     28 C           1.9035   -0.4518   19.9023 C.ar    1  UNL1        0.0208
     29 C           2.0574   -0.2513   21.3809 C.ar    1  UNL1        0.0859
     30 N           1.1055    0.8280   21.8038 N.ar    1  UNL1       -0.2255
     31 N           0.8186    1.4463   23.1400 N.ar    1  UNL1       -0.1295
     32 C           2.9980   -0.9989   22.2788 C.ar    1  UNL1        0.0517
     33 C           3.0771   -0.6536   23.7364 C.ar    1  UNL1        0.0045
     34 C           4.0177   -1.4011   24.6343 C.ar    1  UNL1        0.0002
     35 C           4.8793   -2.4941   24.0748 C.ar    1  UNL1        0.0031
     36 C           4.8002   -2.8395   22.6172 C.ar    1  UNL1        0.0369
     37 C           3.8596   -2.0919   21.7193 C.ar    1  UNL1        0.1401
     38 O           3.7805   -2.4373   20.2617 O.3     1  UNL1       -0.4714
     39 C           3.8439   -3.8713   19.8262 C.3     1  UNL1        0.2525
@<TRIPOS>BOND
     1    19    20    1
     2    20     1    1
     3     1     2   ar
     4     2     3   ar
     5     7     3    1
     6     7     8    1
     7     8     9    1
     8     9    10    1
     9    10    15    1
    10    15    16    1
    11    16    17    1
    12    10    11    1
    13    11    12    1
    14    12    13    1
    15     3     4   ar
    16     4     5   ar
    17     5     6   ar
    18     6    21    1
    19    21    23    1
    20    23    24   ar
    21    24    25   ar
    22    25    26   ar
    23    26    27   ar
    24    27    28   ar
    25    28    29   ar
    26    29    32    1
    27    32    33   ar
    28    33    34   ar
    29    34    35   ar
    30    35    36   ar
    31    36    37   ar
    32    37    38    1
    33    38    39    1
    34    29    30   ar
    35    30    31   ar
    36     6     1   ar
    37    31    23   ar
    38    12     7    1
    39    30    26   ar
    40    37    32   ar
    41    17    18    1
    42    13    14    1
    43    21    22    1
@<TRIPOS>MOLECULE
*****
 39 43 0 0 0
SMALL
GASTEIGER

@<TRIPOS>ATOM
      1 C           7.3045   -3.4603   20.7586 C.ar    1  UNL1        0.1517
      2 C           7.6079   -3.7999   22.1877 C.ar    1  UNL1        0.0340
      3 C           6.4878   -4.0019   23.1647 C.ar    1  UNL1       -0.0170
      4 C           5.0643   -3.8643   22.7126 C.ar    1  UNL1       -0.0027
      5 C           4.7608   -3.5246   21.2833 C.ar    1  UNL1        0.0174
      6 C           5.8809   -3.3226   20.3064 C.ar    1  UNL1        0.0849
      7 C           6.7912   -4.3416   24.5939 C.3     1  UNL1        0.0521
      8 C           7.2832   -5.7130   24.9507 C.3     1  UNL1        0.0241
      9 C           7.5867   -6.0526   26.3799 C.3     1  UNL1        0.0727
     10 N           7.3981   -5.0209   27.4523 N.3     1  UNL1       -0.2685
     11 C           6.9060   -3.6495   27.0955 C.3     1  UNL1        0.1021
     12 C           6.6026   -3.3099   25.6663 C.3     1  UNL1        0.1304
     13 O           6.1106   -1.9385   25.3095 O.3     1  UNL1       -0.3827
     14 H           5.9641   -1.8865   24.3521 H       1  UNL1        0.2104
     15 C           7.7015   -5.3606   28.8814 C.3     1  UNL1        0.1043
     16 C           6.6569   -5.1575   29.9386 C.3     1  UNL1        0.1544
     17 O           6.6651   -6.0080   31.1742 O.3     1  UNL1       -0.3805
     18 H           6.4764   -6.9287   30.9342 H       1  UNL1        0.2105
     19 C           9.3465   -2.0844   19.9297 C.3     1  UNL1        0.2525
     20 O           8.4247   -3.2583   19.7816 O.3     1  UNL1       -0.4702
     21 N           5.5775   -2.9829   18.8772 N.pl3   1  UNL1       -0.2790
     22 H           5.3532   -3.6976   18.2383 H       1  UNL1        0.1552
     23 C           5.6157   -1.5543   18.4214 C.ar    1  UNL1        0.2383
     24 N           6.6752   -1.1016   17.4610 N.ar    1  UNL1       -0.2093
     25 C           6.7134    0.3270   17.0053 C.ar    1  UNL1        0.1209
     26 C           5.6921    1.3028   17.5100 C.ar    1  UNL1        0.1021
     27 C           5.4798    2.7630   17.2400 C.ar    1  UNL1        0.0223
     28 C           4.2890    3.2127   18.0336 C.ar    1  UNL1        0.0208
     29 C           3.7654    2.0304   18.7940 C.ar    1  UNL1        0.0859
     30 N           4.6326    0.8501   18.4704 N.ar    1  UNL1       -0.2255
     31 N           4.5944   -0.5785   18.9261 N.ar    1  UNL1       -0.1295
     32 C           2.5824    2.0288   19.7161 C.ar    1  UNL1        0.0517
     33 C           1.1947    2.1328   19.1560 C.ar    1  UNL1        0.0045
     34 C           0.0117    2.1311   20.0782 C.ar    1  UNL1        0.0002
     35 C           0.2161    2.0255   21.5604 C.ar    1  UNL1        0.0031
     36 C           1.6038    1.9215   22.1205 C.ar    1  UNL1        0.0369
     37 C           2.7868    1.9232   21.1983 C.ar    1  UNL1        0.1401
     38 O           4.1745    1.8192   21.7585 O.3     1  UNL1       -0.4714
     39 C           4.6561    0.5199   22.3329 C.3     1  UNL1        0.2525
@<TRIPOS>BOND
     1    19    20    1
     2    20     1    1
     3     1     2   ar
     4     2     3   ar
     5     7     3    1
     6     7     8    1
     7     8     9    1
     8     9    10    1
     9    10    15    1
    10    15    16    1
    11    16    17    1
    12    10    11    1
    13    11    12    1
    14    12    13    1
    15     3     4   ar
    16     4     5   ar
    17     5     6   ar
    18     6    21    1
    19    21    23    1
    20    23    24   ar
    21    24    25   ar
    22    25    26   ar
    23    26    27   ar
    24    27    28   ar
    25    28    29   ar
    26    29    32    1
    27    32    33   ar
    28    33    34   ar
    29    34    35   ar
    30    35    36   ar
    31    36    37   ar
    32    37    38    1
    33    38    39    1
    34    29    30   ar
    35    30    31   ar
    36     6     1   ar
    37    31    23   ar
    38    12     7    1
    39    30    26   ar
    40    37    32   ar
    41    17    18    1
    42    13    14    1
    43    21    22    1
