@<TRIPOS>MOLECULE
*****
 48 54 0 0 0
SMALL
GASTEIGER

@<TRIPOS>ATOM
      1 C           0.2647    1.6054   20.8013 C.3     1  UNL1        0.1543
      2 N           0.2973    1.6646   22.2997 N.am    1  UNL1       -0.2822
      3 C           1.6022    1.8556   23.0145 C.2     1  UNL1        0.3043
      4 O           2.8743    1.9875   22.2309 O.2     1  UNL1       -0.2526
      5 N           1.6348    1.9149   24.5130 N.am    1  UNL1       -0.2642
      6 C           2.9397    2.1059   25.2277 C.3     1  UNL1        0.0950
      7 C           2.9723    2.1651   26.7263 C.3     1  UNL1        0.0224
      8 C           1.7001    2.0333   27.5099 C.3     1  UNL1        0.0162
      9 C           0.3953    1.8422   26.7952 C.3     1  UNL1        0.0224
     10 C           0.3626    1.7830   25.2967 C.3     1  UNL1        0.0950
     11 H          -0.5376    1.5781   22.8141 H       1  UNL1        0.1514
     12 C           1.7328    2.0925   29.0084 C.3     1  UNL1        0.1006
     13 C           1.6911    3.4189   29.7076 C.2     1  UNL1       -0.0160
     14 C           1.7238    3.4781   31.2062 C.ar    1  UNL1        0.0115
     15 C           1.6821    4.8045   31.9054 C.ar    1  UNL1        0.0010
     16 C           1.7148    4.8637   33.4039 C.ar    1  UNL1        0.0001
     17 C           1.7892    3.5965   34.2031 C.ar    1  UNL1        0.0013
     18 C           1.8308    2.2701   33.5039 C.ar    1  UNL1        0.0166
     19 C           1.7982    2.2109   32.0053 C.ar    1  UNL1        0.0730
     20 N           1.8398    0.8845   31.3061 N.am    1  UNL1       -0.1790
     21 C           1.8072    0.8253   29.8076 C.2     1  UNL1        0.2492
     22 O           1.8488   -0.5011   29.1084 O.2     1  UNL1       -0.2726
     23 C           0.1118    2.8667   20.0040 C.2     1  UNL1        0.2440
     24 O           1.3091    3.4902   19.3498 O.2     1  UNL1       -0.2731
     25 N          -1.2382    3.5045   19.8608 N.am    1  UNL1       -0.2753
     26 C          -1.3910    4.7659   19.0635 C.3     1  UNL1        0.1108
     27 C          -2.7410    5.4037   18.9204 C.3     1  UNL1        0.0939
     28 N          -3.9383    4.7803   19.5745 N.3     1  UNL1       -0.2710
     29 C          -3.7855    3.5189   20.3718 C.3     1  UNL1        0.0939
     30 C          -2.4354    2.8811   20.5150 C.3     1  UNL1        0.1108
     31 C          -5.2883    5.4181   19.4314 C.3     1  UNL1        0.0604
     32 C          -6.4741    4.5852   19.0437 C.3     1  UNL1        0.0333
     33 C          -7.8241    5.2231   18.9005 C.3     1  UNL1        0.0735
     34 N          -7.9884    6.6939   19.1451 N.3     1  UNL1       -0.2714
     35 C          -9.3384    7.3317   19.0019 C.3     1  UNL1        0.0896
     36 C          -6.8027    7.5268   19.5328 C.3     1  UNL1        0.0735
     37 C          -5.4526    6.8889   19.6759 C.3     1  UNL1        0.0333
     38 C           0.3848    0.2848   20.1001 C.3     1  UNL1        0.0553
     39 C           4.3645   -2.8066   21.3671 C.3     1  UNL1        0.0287
     40 C           3.7296   -1.8263   20.4260 C.2     1  UNL1       -0.0163
     41 C           2.3746   -1.2609   20.7336 C.2     1  UNL1       -0.0105
     42 C           1.7397   -0.2806   19.7925 C.2     1  UNL1       -0.0208
     43 C           2.4598    0.1345   18.5437 C.2     1  UNL1       -0.0046
     44 C           3.8147   -0.4308   18.2362 C.2     1  UNL1        0.0261
     45 C           4.7578   -0.2103   17.0908 C.2     1  UNL1        0.1197
     46 N           5.9756   -1.0545   17.3240 N.2     1  UNL1       -0.1508
     47 N           5.7851   -1.7966   18.6135 N.2     1  UNL1       -0.1677
     48 C           4.4496   -1.4112   19.1773 C.3     1  UNL1        0.1672
@<TRIPOS>BOND
     1    39    40    1
     2    40    41    2
     3    41    42    1
     4    42    38    1
     5     1    38    1
     6     1     2    1
     7     2     3   am
     8     3     4    2
     9     3     5   am
    10     5     6    1
    11     6     7    1
    12     7     8    1
    13     8    12    1
    14    12    13    1
    15    13    14    2
    16    14    15   ar
    17    15    16   ar
    18    16    17   ar
    19    17    18   ar
    20    18    19   ar
    21    19    20    2
    22    20    21    1
    23    21    22    2
    24     8     9    1
    25     9    10    1
    26     1    23    1
    27    23    24    2
    28    23    25   am
    29    25    26    1
    30    26    27    1
    31    27    28    1
    32    28    31    1
    33    31    32    1
    34    32    33    1
    35    33    34    1
    36    34    35    1
    37    34    36    1
    38    36    37    1
    39    28    29    1
    40    29    30    1
    41    42    43    2
    42    43    44    1
    43    44    45    2
    44    45    46    1
    45    46    47    2
    46    47    48    1
    47    48    40    1
    48    10     5    1
    49    30    25    1
    50    48    44    1
    51    21    12    1
    52    37    31    1
    53    19    14   ar
    54     2    11    1
@<TRIPOS>MOLECULE
*****
 48 54 0 0 0
SMALL
GASTEIGER

@<TRIPOS>ATOM
      1 C           4.6294    0.2290   32.1789 C.3     1  UNL1        0.1543
      2 N           3.6785    0.8692   31.2115 N.am    1  UNL1       -0.2822
      3 C           2.5780    0.0585   30.5937 C.2     1  UNL1        0.3043
      4 O           2.4284   -1.3925   30.9434 O.2     1  UNL1       -0.2526
      5 N           1.6272    0.6987   29.6263 N.am    1  UNL1       -0.2642
      6 C           0.5267   -0.1120   29.0086 C.3     1  UNL1        0.0950
      7 C          -0.4242    0.5283   28.0411 C.3     1  UNL1        0.0224
      8 C          -0.2746    1.9792   27.6915 C.3     1  UNL1        0.0162
      9 C           0.8259    2.7900   28.3092 C.3     1  UNL1        0.0224
     10 C           1.7768    2.1497   29.2766 C.3     1  UNL1        0.0950
     11 H           3.7767    1.8216   30.9820 H       1  UNL1        0.1514
     12 C          -1.2255    2.6194   26.7241 C.3     1  UNL1        0.1006
     13 C          -2.4702    3.2883   27.2273 C.2     1  UNL1       -0.0160
     14 C          -3.4211    3.9285   26.2598 C.ar    1  UNL1        0.0115
     15 C          -4.6659    4.5974   26.7630 C.ar    1  UNL1        0.0010
     16 C          -5.6167    5.2376   25.7956 C.ar    1  UNL1        0.0001
     17 C          -5.3229    5.2090   24.3249 C.ar    1  UNL1        0.0013
     18 C          -4.0782    4.5401   23.8217 C.ar    1  UNL1        0.0166
     19 C          -3.1273    3.8999   24.7892 C.ar    1  UNL1        0.0730
     20 N          -1.8825    3.2310   24.2860 N.am    1  UNL1       -0.1790
     21 C          -0.9316    2.5908   25.2534 C.2     1  UNL1        0.2492
     22 O           0.3131    1.9219   24.7501 O.2     1  UNL1       -0.2726
     23 C           4.1929   -0.0491   33.5868 C.2     1  UNL1        0.2440
     24 O           3.7818   -1.4358   33.9845 O.2     1  UNL1       -0.2731
     25 N           4.1676    1.0594   34.5969 N.am    1  UNL1       -0.2753
     26 C           3.7311    0.7813   36.0048 C.3     1  UNL1        0.1108
     27 C           3.7057    1.8899   37.0150 C.3     1  UNL1        0.0939
     28 N           4.1169    3.2766   36.6173 N.3     1  UNL1       -0.2710
     29 C           4.5533    3.5547   35.2094 C.3     1  UNL1        0.0939
     30 C           4.5787    2.4461   34.1992 C.3     1  UNL1        0.1108
     31 C           4.0915    4.3851   37.6274 C.3     1  UNL1        0.0604
     32 C           4.1641    4.0674   39.0916 C.3     1  UNL1        0.0333
     33 C           4.1388    5.1759   40.1018 C.3     1  UNL1        0.0735
     34 N           4.0408    6.6022   39.6478 N.3     1  UNL1       -0.2714
     35 C           4.0154    7.7108   40.6580 C.3     1  UNL1        0.0896
     36 C           3.9681    6.9200   38.1836 C.3     1  UNL1        0.0735
     37 C           3.9935    5.8113   37.1734 C.3     1  UNL1        0.0333
     38 C           6.0169   -0.1332   31.7384 C.3     1  UNL1        0.0553
     39 C           6.3428   -2.7138   27.2402 C.3     1  UNL1        0.0287
     40 C           6.4191   -2.6996   28.7381 C.2     1  UNL1       -0.0163
     41 C           6.1798   -1.4234   29.4893 C.2     1  UNL1       -0.0105
     42 C           6.2562   -1.4093   30.9873 C.2     1  UNL1       -0.0208
     43 C           6.5719   -2.6713   31.7341 C.2     1  UNL1       -0.0046
     44 C           6.8112   -3.9474   30.9830 C.2     1  UNL1        0.0261
     45 C           7.1395   -5.3367   31.4435 C.2     1  UNL1        0.1197
     46 N           7.2661   -6.2095   30.2302 N.2     1  UNL1       -0.1508
     47 N           7.0160   -5.3596   29.0198 N.2     1  UNL1       -0.1677
     48 C           6.7348   -3.9615   29.4850 C.3     1  UNL1        0.1672
@<TRIPOS>BOND
     1    39    40    1
     2    40    41    2
     3    41    42    1
     4    42    38    1
     5     1    38    1
     6     1     2    1
     7     2     3   am
     8     3     4    2
     9     3     5   am
    10     5     6    1
    11     6     7    1
    12     7     8    1
    13     8    12    1
    14    12    13    1
    15    13    14    2
    16    14    15   ar
    17    15    16   ar
    18    16    17   ar
    19    17    18   ar
    20    18    19   ar
    21    19    20    2
    22    20    21    1
    23    21    22    2
    24     8     9    1
    25     9    10    1
    26     1    23    1
    27    23    24    2
    28    23    25   am
    29    25    26    1
    30    26    27    1
    31    27    28    1
    32    28    31    1
    33    31    32    1
    34    32    33    1
    35    33    34    1
    36    34    35    1
    37    34    36    1
    38    36    37    1
    39    28    29    1
    40    29    30    1
    41    42    43    2
    42    43    44    1
    43    44    45    2
    44    45    46    1
    45    46    47    2
    46    47    48    1
    47    48    40    1
    48    10     5    1
    49    30    25    1
    50    48    44    1
    51    21    12    1
    52    37    31    1
    53    19    14   ar
    54     2    11    1
@<TRIPOS>MOLECULE
*****
 48 54 0 0 0
SMALL
GASTEIGER

@<TRIPOS>ATOM
      1 C           2.7874    2.3828   32.4335 C.3     1  UNL1        0.1543
      2 N           2.0535    2.7430   31.1758 N.am    1  UNL1       -0.2822
      3 C           1.4617    1.6644   30.3177 C.2     1  UNL1        0.3043
      4 O           1.6039    0.2256   30.7171 O.2     1  UNL1       -0.2526
      5 N           0.7279    2.0246   29.0600 N.am    1  UNL1       -0.2642
      6 C           0.1361    0.9460   28.2019 C.3     1  UNL1        0.0950
      7 C          -0.5978    1.3063   26.9442 C.3     1  UNL1        0.0224
      8 C          -0.7399    2.7451   26.5448 C.3     1  UNL1        0.0162
      9 C          -0.1481    3.8237   27.4029 C.3     1  UNL1        0.0224
     10 C           0.5857    3.4634   28.6605 C.3     1  UNL1        0.0950
     11 H           1.9602    3.6873   30.9137 H       1  UNL1        0.1514
     12 C          -1.4738    3.1053   25.2871 C.3     1  UNL1        0.1006
     13 C          -2.9673    3.2432   25.3036 C.2     1  UNL1       -0.0160
     14 C          -3.7012    3.6034   24.0459 C.ar    1  UNL1        0.0115
     15 C          -5.1947    3.7413   24.0624 C.ar    1  UNL1        0.0010
     16 C          -5.9286    4.1015   22.8048 C.ar    1  UNL1        0.0001
     17 C          -5.1689    4.3238   21.5306 C.ar    1  UNL1        0.0013
     18 C          -3.6754    4.1859   21.5141 C.ar    1  UNL1        0.0166
     19 C          -2.9415    3.8257   22.7718 C.ar    1  UNL1        0.0730
     20 N          -1.4479    3.6878   22.7553 N.am    1  UNL1       -0.1790
     21 C          -0.7141    3.3276   24.0129 C.2     1  UNL1        0.2492
     22 O           0.7795    3.1896   23.9964 O.2     1  UNL1       -0.2726
     23 C           4.2872    2.3796   32.4518 C.2     1  UNL1        0.2440
     24 O           5.0377    3.6642   32.6434 O.2     1  UNL1       -0.2731
     25 N           5.0367    1.0918   32.2787 N.am    1  UNL1       -0.2753
     26 C           6.5366    1.0886   32.2971 C.3     1  UNL1        0.1108
     27 C           7.2860   -0.1991   32.1239 C.3     1  UNL1        0.0939
     28 N           6.5355   -1.4838   31.9324 N.3     1  UNL1       -0.2710
     29 C           5.0356   -1.4806   31.9140 C.3     1  UNL1        0.0939
     30 C           4.2862   -0.1927   32.0872 C.3     1  UNL1        0.1108
     31 C           7.2850   -2.7715   31.7592 C.3     1  UNL1        0.0604
     32 C           6.5432   -4.0320   31.4262 C.3     1  UNL1        0.0333
     33 C           7.2926   -5.3198   31.2530 C.3     1  UNL1        0.0735
     34 N           8.7839   -5.3470   31.4130 N.3     1  UNL1       -0.2714
     35 C           9.5333   -6.6348   31.2398 C.3     1  UNL1        0.0896
     36 C           9.5256   -4.0865   31.7460 C.3     1  UNL1        0.0735
     37 C           8.7761   -2.7987   31.9192 C.3     1  UNL1        0.0333
     38 C           2.0213    2.0257   33.6728 C.3     1  UNL1        0.0553
     39 C           2.2017    6.0320   36.9770 C.3     1  UNL1        0.0287
     40 C           2.5185    4.6028   36.6496 C.2     1  UNL1       -0.0163
     41 C           2.1115    4.0289   35.3248 C.2     1  UNL1       -0.0105
     42 C           2.4283    2.5997   34.9975 C.2     1  UNL1       -0.0208
     43 C           3.1522    1.7445   35.9949 C.2     1  UNL1       -0.0046
     44 C           3.5592    2.3185   37.3196 C.2     1  UNL1        0.0261
     45 C           4.2780    1.7225   38.4935 C.2     1  UNL1        0.1197
     46 N           4.4055    2.7832   39.5464 N.2     1  UNL1       -0.1508
     47 N           3.7654    4.0349   39.0232 N.2     1  UNL1       -0.1677
     48 C           3.2424    3.7477   37.6469 C.3     1  UNL1        0.1672
@<TRIPOS>BOND
     1    39    40    1
     2    40    41    2
     3    41    42    1
     4    42    38    1
     5     1    38    1
     6     1     2    1
     7     2     3   am
     8     3     4    2
     9     3     5   am
    10     5     6    1
    11     6     7    1
    12     7     8    1
    13     8    12    1
    14    12    13    1
    15    13    14    2
    16    14    15   ar
    17    15    16   ar
    18    16    17   ar
    19    17    18   ar
    20    18    19   ar
    21    19    20    2
    22    20    21    1
    23    21    22    2
    24     8     9    1
    25     9    10    1
    26     1    23    1
    27    23    24    2
    28    23    25   am
    29    25    26    1
    30    26    27    1
    31    27    28    1
    32    28    31    1
    33    31    32    1
    34    32    33    1
    35    33    34    1
    36    34    35    1
    37    34    36    1
    38    36    37    1
    39    28    29    1
    40    29    30    1
    41    42    43    2
    42    43    44    1
    43    44    45    2
    44    45    46    1
    45    46    47    2
    46    47    48    1
    47    48    40    1
    48    10     5    1
    49    30    25    1
    50    48    44    1
    51    21    12    1
    52    37    31    1
    53    19    14   ar
    54     2    11    1
@<TRIPOS>MOLECULE
*****
 48 54 0 0 0
SMALL
GASTEIGER

@<TRIPOS>ATOM
      1 C           3.5447    0.1086   32.9726 C.3     1  UNL1        0.1543
      2 N           3.3941   -0.2007   31.5126 N.am    1  UNL1       -0.2822
      3 C           4.3641    0.3701   30.5210 C.2     1  UNL1        0.3043
      4 O           5.4847    1.2503   30.9894 O.2     1  UNL1       -0.2526
      5 N           4.2135    0.0608   29.0610 N.am    1  UNL1       -0.2642
      6 C           5.1834    0.6317   28.0695 C.3     1  UNL1        0.0950
      7 C           5.0328    0.3223   26.6094 C.3     1  UNL1        0.0224
      8 C           3.9121   -0.5579   26.1410 C.3     1  UNL1        0.0162
      9 C           2.9422   -1.1288   27.1326 C.3     1  UNL1        0.0224
     10 C           3.0928   -0.8194   28.5926 C.3     1  UNL1        0.0950
     11 H           2.6586   -0.7784   31.2052 H       1  UNL1        0.1514
     12 C           3.7615   -0.8672   24.6810 C.3     1  UNL1        0.1006
     13 C           4.4054   -2.0928   24.1037 C.2     1  UNL1       -0.0160
     14 C           4.2548   -2.4021   22.6437 C.ar    1  UNL1        0.0115
     15 C           4.8987   -3.6277   22.0663 C.ar    1  UNL1        0.0010
     16 C           4.7481   -3.9370   20.6064 C.ar    1  UNL1        0.0001
     17 C           3.9535   -3.0208   19.7236 C.ar    1  UNL1        0.0013
     18 C           3.3095   -1.7952   20.3009 C.ar    1  UNL1        0.0166
     19 C           3.4602   -1.4859   21.7610 C.ar    1  UNL1        0.0730
     20 N           2.8163   -0.2603   22.3383 N.am    1  UNL1       -0.1790
     21 C           2.9669    0.0490   23.7983 C.2     1  UNL1        0.2492
     22 O           2.3230    1.2746   24.3756 O.2     1  UNL1       -0.2726
     23 C           2.9291    1.3517   33.5433 C.2     1  UNL1        0.2440
     24 O           1.9087    2.1148   32.7517 O.2     1  UNL1       -0.2731
     25 N           3.3338    1.8318   34.9055 N.am    1  UNL1       -0.2753
     26 C           2.7182    3.0749   35.4762 C.3     1  UNL1        0.1108
     27 C           3.1229    3.5549   36.8384 C.3     1  UNL1        0.0939
     28 N           4.1433    2.7919   37.6300 N.3     1  UNL1       -0.2710
     29 C           4.7590    1.5488   37.0593 C.3     1  UNL1        0.0939
     30 C           4.3542    1.0687   35.6970 C.3     1  UNL1        0.1108
     31 C           4.5480    3.2719   38.9923 C.3     1  UNL1        0.0604
     32 C           3.6721    4.2332   39.7396 C.3     1  UNL1        0.0333
     33 C           4.0768    4.7133   41.1018 C.3     1  UNL1        0.0735
     34 N           5.3576    4.2320   41.7168 N.3     1  UNL1       -0.2714
     35 C           5.7623    4.7120   43.0790 C.3     1  UNL1        0.0896
     36 C           6.2335    3.2707   40.9694 C.3     1  UNL1        0.0735
     37 C           5.8288    2.7906   39.6071 C.3     1  UNL1        0.0333
     38 C           4.3110   -0.8252   33.8619 C.3     1  UNL1        0.0553
     39 C           9.4614   -0.8989   33.1778 C.3     1  UNL1        0.0287
     40 C           8.1188   -1.5451   33.0057 C.2     1  UNL1       -0.0163
     41 C           6.8862   -0.8620   33.5199 C.2     1  UNL1       -0.0105
     42 C           5.5435   -1.5082   33.3478 C.2     1  UNL1       -0.0208
     43 C           5.4334   -2.8375   32.6616 C.2     1  UNL1       -0.0046
     44 C           6.6659   -3.5205   32.1474 C.2     1  UNL1        0.0261
     45 C           6.8673   -4.8252   31.4352 C.2     1  UNL1        0.1197
     46 N           8.3344   -4.9853   31.1670 N.2     1  UNL1       -0.1508
     47 N           9.0397   -3.7796   31.7136 N.2     1  UNL1       -0.1677
     48 C           8.0086   -2.8743   32.3195 C.3     1  UNL1        0.1672
@<TRIPOS>BOND
     1    39    40    1
     2    40    41    2
     3    41    42    1
     4    42    38    1
     5     1    38    1
     6     1     2    1
     7     2     3   am
     8     3     4    2
     9     3     5   am
    10     5     6    1
    11     6     7    1
    12     7     8    1
    13     8    12    1
    14    12    13    1
    15    13    14    2
    16    14    15   ar
    17    15    16   ar
    18    16    17   ar
    19    17    18   ar
    20    18    19   ar
    21    19    20    2
    22    20    21    1
    23    21    22    2
    24     8     9    1
    25     9    10    1
    26     1    23    1
    27    23    24    2
    28    23    25   am
    29    25    26    1
    30    26    27    1
    31    27    28    1
    32    28    31    1
    33    31    32    1
    34    32    33    1
    35    33    34    1
    36    34    35    1
    37    34    36    1
    38    36    37    1
    39    28    29    1
    40    29    30    1
    41    42    43    2
    42    43    44    1
    43    44    45    2
    44    45    46    1
    45    46    47    2
    46    47    48    1
    47    48    40    1
    48    10     5    1
    49    30    25    1
    50    48    44    1
    51    21    12    1
    52    37    31    1
    53    19    14   ar
    54     2    11    1
@<TRIPOS>MOLECULE
*****
 48 54 0 0 0
SMALL
GASTEIGER

@<TRIPOS>ATOM
      1 C           2.8774    2.1475   32.4204 C.3     1  UNL1        0.1543
      2 N           2.1212    2.5518   31.1897 N.am    1  UNL1       -0.2822
      3 C           1.5204    1.5039   30.3004 C.2     1  UNL1        0.3043
      4 O           1.6758    0.0516   30.6419 O.2     1  UNL1       -0.2526
      5 N           0.7642    1.9082   29.0697 N.am    1  UNL1       -0.2642
      6 C           0.1635    0.8602   28.1805 C.3     1  UNL1        0.0950
      7 C          -0.5928    1.2646   26.9497 C.3     1  UNL1        0.0224
      8 C          -0.7482    2.7169   26.6083 C.3     1  UNL1        0.0162
      9 C          -0.1474    3.7649   27.4975 C.3     1  UNL1        0.0224
     10 C           0.6088    3.3605   28.7282 C.3     1  UNL1        0.0950
     11 H           2.0192    3.5051   30.9656 H       1  UNL1        0.1514
     12 C          -1.5043    3.1212   25.3776 C.3     1  UNL1        0.1006
     13 C          -0.8442    3.0449   24.0328 C.2     1  UNL1       -0.0160
     14 C          -1.6005    3.4493   22.8021 C.ar    1  UNL1        0.0115
     15 C          -0.9403    3.3731   21.4573 C.ar    1  UNL1        0.0010
     16 C          -1.6965    3.7774   20.2266 C.ar    1  UNL1        0.0001
     17 C          -3.1129    4.2580   20.3406 C.ar    1  UNL1        0.0013
     18 C          -3.7730    4.3342   21.6854 C.ar    1  UNL1        0.0166
     19 C          -3.0168    3.9298   22.9161 C.ar    1  UNL1        0.0730
     20 N          -3.6769    4.0061   24.2609 N.am    1  UNL1       -0.1790
     21 C          -2.9207    3.6018   25.4916 C.2     1  UNL1        0.2492
     22 O          -3.5809    3.6780   26.8364 O.2     1  UNL1       -0.2726
     23 C           4.3772    2.1331   32.4082 C.2     1  UNL1        0.2440
     24 O           5.1410    3.4130   32.5773 O.2     1  UNL1       -0.2731
     25 N           5.1133    0.8388   32.2269 N.am    1  UNL1       -0.2753
     26 C           6.6132    0.8243   32.2146 C.3     1  UNL1        0.1108
     27 C           7.3493   -0.4700   32.0333 C.3     1  UNL1        0.0939
     28 N           6.5855   -1.7499   31.8642 N.3     1  UNL1       -0.2710
     29 C           5.0857   -1.7354   31.8764 C.3     1  UNL1        0.0939
     30 C           4.3496   -0.4410   32.0577 C.3     1  UNL1        0.1108
     31 C           7.3216   -3.0442   31.6828 C.3     1  UNL1        0.0604
     32 C           8.7994   -3.1079   31.9324 C.3     1  UNL1        0.0333
     33 C           9.5355   -4.4022   31.7510 C.3     1  UNL1        0.0735
     34 N           8.7938   -5.6328   31.3201 N.3     1  UNL1       -0.2714
     35 C           9.5299   -6.9271   31.1388 C.3     1  UNL1        0.0896
     36 C           7.3161   -5.5691   31.0706 C.3     1  UNL1        0.0735
     37 C           6.5800   -4.2747   31.2520 C.3     1  UNL1        0.0333
     38 C           2.1336    1.7577   33.6634 C.3     1  UNL1        0.0553
     39 C           1.8895    5.9793   36.6831 C.3     1  UNL1        0.0287
     40 C           2.3109    4.5551   36.4728 C.2     1  UNL1       -0.0163
     41 C           2.0116    3.8685   35.1732 C.2     1  UNL1       -0.0105
     42 C           2.4330    2.4443   34.9630 C.2     1  UNL1       -0.0208
     43 C           3.1537    1.7068   36.0524 C.2     1  UNL1       -0.0046
     44 C           3.4530    2.3935   37.3519 C.2     1  UNL1        0.0261
     45 C           4.1433    1.9255   38.5987 C.2     1  UNL1        0.1197
     46 N           4.1486    3.0604   39.5795 N.2     1  UNL1       -0.1508
     47 N           3.4615    4.2298   38.9389 N.2     1  UNL1       -0.1677
     48 C           3.0316    3.8176   37.5621 C.3     1  UNL1        0.1672
@<TRIPOS>BOND
     1    39    40    1
     2    40    41    2
     3    41    42    1
     4    42    38    1
     5     1    38    1
     6     1     2    1
     7     2     3   am
     8     3     4    2
     9     3     5   am
    10     5     6    1
    11     6     7    1
    12     7     8    1
    13     8    12    1
    14    12    13    1
    15    13    14    2
    16    14    15   ar
    17    15    16   ar
    18    16    17   ar
    19    17    18   ar
    20    18    19   ar
    21    19    20    2
    22    20    21    1
    23    21    22    2
    24     8     9    1
    25     9    10    1
    26     1    23    1
    27    23    24    2
    28    23    25   am
    29    25    26    1
    30    26    27    1
    31    27    28    1
    32    28    31    1
    33    31    32    1
    34    32    33    1
    35    33    34    1
    36    34    35    1
    37    34    36    1
    38    36    37    1
    39    28    29    1
    40    29    30    1
    41    42    43    2
    42    43    44    1
    43    44    45    2
    44    45    46    1
    45    46    47    2
    46    47    48    1
    47    48    40    1
    48    10     5    1
    49    30    25    1
    50    48    44    1
    51    21    12    1
    52    37    31    1
    53    19    14   ar
    54     2    11    1
@<TRIPOS>MOLECULE
*****
 48 54 0 0 0
SMALL
GASTEIGER

@<TRIPOS>ATOM
      1 C          -1.5778    3.9611   26.4561 C.3     1  UNL1        0.1543
      2 N          -0.5423    3.6332   27.4905 N.am    1  UNL1       -0.2822
      3 C          -0.2487    2.2021   27.8306 C.2     1  UNL1        0.3043
      4 O          -0.9908    1.0988   27.1363 O.2     1  UNL1       -0.2526
      5 N           0.7868    1.8742   28.8650 N.am    1  UNL1       -0.2642
      6 C           1.0804    0.4431   29.2051 C.3     1  UNL1        0.0950
      7 C           2.1160    0.1152   30.2395 C.3     1  UNL1        0.0224
      8 C           2.8580    1.2185   30.9339 C.3     1  UNL1        0.0162
      9 C           2.5645    2.6496   30.5938 C.3     1  UNL1        0.0224
     10 C           1.5289    2.9775   29.5594 C.3     1  UNL1        0.0950
     11 H          -0.0552    4.3574   27.9462 H       1  UNL1        0.1514
     12 C           3.8936    0.8906   31.9683 C.3     1  UNL1        0.1006
     13 C           3.5293    0.8992   33.4233 C.2     1  UNL1       -0.0160
     14 C           4.5649    0.5713   34.4578 C.ar    1  UNL1        0.0115
     15 C           4.2006    0.5798   35.9128 C.ar    1  UNL1        0.0010
     16 C           5.2361    0.2519   36.9472 C.ar    1  UNL1        0.0001
     17 C           6.6362   -0.0845   36.5266 C.ar    1  UNL1        0.0013
     18 C           7.0005   -0.0931   35.0715 C.ar    1  UNL1        0.0166
     19 C           5.9648    0.2348   34.0371 C.ar    1  UNL1        0.0730
     20 N           6.3292    0.2263   32.5821 N.am    1  UNL1       -0.1790
     21 C           5.2936    0.5541   31.5476 C.2     1  UNL1        0.2492
     22 O           5.6580    0.5456   30.0926 O.2     1  UNL1       -0.2726
     23 C          -1.1852    4.6947   25.2080 C.2     1  UNL1        0.2440
     24 O          -1.4628    6.1636   25.0827 O.2     1  UNL1       -0.2731
     25 N          -0.5152    3.9596   24.0853 N.am    1  UNL1       -0.2753
     26 C          -0.1226    4.6932   22.8372 C.3     1  UNL1        0.1108
     27 C           0.5475    3.9581   21.7145 C.3     1  UNL1        0.0939
     28 N           0.8250    2.4893   21.8398 N.3     1  UNL1       -0.2710
     29 C           0.4324    1.7556   23.0879 C.3     1  UNL1        0.0939
     30 C          -0.2377    2.4909   24.2107 C.3     1  UNL1        0.1108
     31 C           1.4950    1.7541   20.7171 C.3     1  UNL1        0.0604
     32 C           2.0530    2.5141   19.5504 C.3     1  UNL1        0.0333
     33 C           2.7231    1.7790   18.4277 C.3     1  UNL1        0.0735
     34 N           2.8352    0.2838   18.4716 N.3     1  UNL1       -0.2714
     35 C           3.5053   -0.4513   17.3489 C.3     1  UNL1        0.0896
     36 C           2.2772   -0.4762   19.6383 C.3     1  UNL1        0.0735
     37 C           1.6071    0.2590   20.7610 C.3     1  UNL1        0.0333
     38 C          -3.0061    3.5554   26.6697 C.3     1  UNL1        0.0553
     39 C          -4.6975    2.9467   21.7944 C.3     1  UNL1        0.0287
     40 C          -4.8751    3.5205   23.1689 C.2     1  UNL1       -0.0163
     41 C          -3.8518    3.2510   24.2321 C.2     1  UNL1       -0.0105
     42 C          -4.0293    3.8248   25.6066 C.2     1  UNL1       -0.0208
     43 C          -5.2303    4.6680   25.9179 C.2     1  UNL1       -0.0046
     44 C          -6.2535    4.9374   24.8548 C.2     1  UNL1        0.0261
     45 C          -7.5297    5.7257   24.8667 C.2     1  UNL1        0.1197
     46 N          -8.1408    5.6391   23.4996 N.2     1  UNL1       -0.1508
     47 N          -7.2423    4.7973   22.6428 N.2     1  UNL1       -0.1677
     48 C          -6.0759    4.3637   23.4803 C.3     1  UNL1        0.1672
@<TRIPOS>BOND
     1    39    40    1
     2    40    41    2
     3    41    42    1
     4    42    38    1
     5     1    38    1
     6     1     2    1
     7     2     3   am
     8     3     4    2
     9     3     5   am
    10     5     6    1
    11     6     7    1
    12     7     8    1
    13     8    12    1
    14    12    13    1
    15    13    14    2
    16    14    15   ar
    17    15    16   ar
    18    16    17   ar
    19    17    18   ar
    20    18    19   ar
    21    19    20    2
    22    20    21    1
    23    21    22    2
    24     8     9    1
    25     9    10    1
    26     1    23    1
    27    23    24    2
    28    23    25   am
    29    25    26    1
    30    26    27    1
    31    27    28    1
    32    28    31    1
    33    31    32    1
    34    32    33    1
    35    33    34    1
    36    34    35    1
    37    34    36    1
    38    36    37    1
    39    28    29    1
    40    29    30    1
    41    42    43    2
    42    43    44    1
    43    44    45    2
    44    45    46    1
    45    46    47    2
    46    47    48    1
    47    48    40    1
    48    10     5    1
    49    30    25    1
    50    48    44    1
    51    21    12    1
    52    37    31    1
    53    19    14   ar
    54     2    11    1
@<TRIPOS>MOLECULE
*****
 48 54 0 0 0
SMALL
GASTEIGER

@<TRIPOS>ATOM
      1 C           3.0786    2.3146   32.0536 C.3     1  UNL1        0.1543
      2 N           2.3022    2.6694   30.8202 N.am    1  UNL1       -0.2822
      3 C           1.5705    1.6020   30.0616 C.2     1  UNL1        0.3043
      4 O           1.6152    0.1799   30.5365 O.2     1  UNL1       -0.2526
      5 N           0.7942    1.9568   28.8282 N.am    1  UNL1       -0.2642
      6 C           0.0625    0.8895   28.0697 C.3     1  UNL1        0.0950
      7 C          -0.7139    1.2443   26.8362 C.3     1  UNL1        0.0224
      8 C          -0.7586    2.6664   26.3613 C.3     1  UNL1        0.0162
      9 C          -0.0269    3.7338   27.1199 C.3     1  UNL1        0.0224
     10 C           0.7495    3.3790   28.3533 C.3     1  UNL1        0.0950
     11 H           2.2729    3.6028   30.5085 H       1  UNL1        0.1514
     12 C          -1.5349    3.0212   25.1279 C.3     1  UNL1        0.1006
     13 C          -3.0156    3.2458   25.2124 C.2     1  UNL1       -0.0160
     14 C          -3.7920    3.6005   23.9789 C.ar    1  UNL1        0.0115
     15 C          -5.2727    3.8251   24.0634 C.ar    1  UNL1        0.0010
     16 C          -6.0490    4.1799   22.8300 C.ar    1  UNL1        0.0001
     17 C          -5.3447    4.3101   21.5120 C.ar    1  UNL1        0.0013
     18 C          -3.8640    4.0855   21.4275 C.ar    1  UNL1        0.0166
     19 C          -3.0877    3.7307   22.6610 C.ar    1  UNL1        0.0730
     20 N          -1.6070    3.5062   22.5765 N.am    1  UNL1       -0.1790
     21 C          -0.8306    3.1514   23.8099 C.2     1  UNL1        0.2492
     22 O           0.6501    2.9268   23.7254 O.2     1  UNL1       -0.2726
     23 C           4.5771    2.2639   32.0079 C.2     1  UNL1        0.2440
     24 O           5.3740    3.5301   32.1166 O.2     1  UNL1       -0.2731
     25 N           5.2786    0.9471   31.8536 N.am    1  UNL1       -0.2753
     26 C           6.7770    0.8964   31.8079 C.3     1  UNL1        0.1108
     27 C           7.4786   -0.4204   31.6536 C.3     1  UNL1        0.0939
     28 N           6.6816   -1.6866   31.5449 N.3     1  UNL1       -0.2710
     29 C           5.1832   -1.6359   31.5906 C.3     1  UNL1        0.0939
     30 C           4.4817   -0.3190   31.7449 C.3     1  UNL1        0.1108
     31 C           7.3832   -3.0033   31.3906 C.3     1  UNL1        0.0604
     32 C           6.6572   -4.2802   31.6950 C.3     1  UNL1        0.0333
     33 C           7.3587   -5.5969   31.5406 C.3     1  UNL1        0.0735
     34 N           8.7863   -5.6370   31.0819 N.3     1  UNL1       -0.2714
     35 C           9.4878   -6.9538   30.9276 C.3     1  UNL1        0.0896
     36 C           9.5123   -4.3602   30.7775 C.3     1  UNL1        0.0735
     37 C           8.8107   -3.0433   30.9318 C.3     1  UNL1        0.0333
     38 C           2.3565    2.0105   33.3328 C.3     1  UNL1        0.0553
     39 C           2.5473    4.1017   38.0857 C.3     1  UNL1        0.0287
     40 C           2.1016    4.1665   36.6549 C.2     1  UNL1       -0.0163
     41 C           2.4519    3.0561   35.7092 C.2     1  UNL1       -0.0105
     42 C           2.0062    3.1208   34.2785 C.2     1  UNL1       -0.0208
     43 C           1.2101    4.2960   33.7934 C.2     1  UNL1       -0.0046
     44 C           0.8597    5.4063   34.7391 C.2     1  UNL1        0.0261
     45 C           0.0925    6.6813   34.5499 C.2     1  UNL1        0.1197
     46 N           0.0640    7.4045   35.8638 N.2     1  UNL1       -0.1508
     47 N           0.8137    6.5765   36.8649 N.2     1  UNL1       -0.1677
     48 C           1.3055    5.3416   36.1699 C.3     1  UNL1        0.1672
@<TRIPOS>BOND
     1    39    40    1
     2    40    41    2
     3    41    42    1
     4    42    38    1
     5     1    38    1
     6     1     2    1
     7     2     3   am
     8     3     4    2
     9     3     5   am
    10     5     6    1
    11     6     7    1
    12     7     8    1
    13     8    12    1
    14    12    13    1
    15    13    14    2
    16    14    15   ar
    17    15    16   ar
    18    16    17   ar
    19    17    18   ar
    20    18    19   ar
    21    19    20    2
    22    20    21    1
    23    21    22    2
    24     8     9    1
    25     9    10    1
    26     1    23    1
    27    23    24    2
    28    23    25   am
    29    25    26    1
    30    26    27    1
    31    27    28    1
    32    28    31    1
    33    31    32    1
    34    32    33    1
    35    33    34    1
    36    34    35    1
    37    34    36    1
    38    36    37    1
    39    28    29    1
    40    29    30    1
    41    42    43    2
    42    43    44    1
    43    44    45    2
    44    45    46    1
    45    46    47    2
    46    47    48    1
    47    48    40    1
    48    10     5    1
    49    30    25    1
    50    48    44    1
    51    21    12    1
    52    37    31    1
    53    19    14   ar
    54     2    11    1
@<TRIPOS>MOLECULE
*****
 48 54 0 0 0
SMALL
GASTEIGER

@<TRIPOS>ATOM
      1 C          -1.1086    3.5995   26.3732 C.3     1  UNL1        0.1543
      2 N          -0.3452    3.5518   27.6635 N.am    1  UNL1       -0.2822
      3 C           0.2053    2.2484   28.1615 C.2     1  UNL1        0.3043
      4 O          -0.0075    0.9927   27.3691 O.2     1  UNL1       -0.2526
      5 N           0.9686    2.2006   29.4518 N.am    1  UNL1       -0.2642
      6 C           1.5192    0.8972   29.9498 C.3     1  UNL1        0.0950
      7 C           2.2825    0.8495   31.2402 C.3     1  UNL1        0.0224
      8 C           2.4953    2.1052   32.0325 C.3     1  UNL1        0.0162
      9 C           1.9448    3.4086   31.5346 C.3     1  UNL1        0.0224
     10 C           1.1815    3.4564   30.2443 C.3     1  UNL1        0.0950
     11 H          -0.2056    4.3760   28.1836 H       1  UNL1        0.1514
     12 C           3.2586    2.0575   33.3229 C.3     1  UNL1        0.1006
     13 C           2.5358    2.2122   34.6281 C.2     1  UNL1       -0.0160
     14 C           3.2992    2.1645   35.9185 C.ar    1  UNL1        0.0115
     15 C           2.5764    2.3193   37.2237 C.ar    1  UNL1        0.0010
     16 C           3.3397    2.2716   38.5140 C.ar    1  UNL1        0.0001
     17 C           4.8260    2.0690   38.4992 C.ar    1  UNL1        0.0013
     18 C           5.5488    1.9142   37.1940 C.ar    1  UNL1        0.0166
     19 C           4.7854    1.9620   35.9036 C.ar    1  UNL1        0.0730
     20 N           5.5082    1.8072   34.5984 N.am    1  UNL1       -0.1790
     21 C           4.7449    1.8549   33.3080 C.2     1  UNL1        0.2492
     22 O           5.4677    1.7001   32.0028 O.2     1  UNL1       -0.2726
     23 C          -0.5611    4.3660   25.2058 C.2     1  UNL1        0.2440
     24 O          -0.6420    5.8638   25.1875 O.2     1  UNL1       -0.2731
     25 N           0.0673    3.6348   24.0567 N.am    1  UNL1       -0.2753
     26 C           0.6147    4.4013   22.8893 C.3     1  UNL1        0.1108
     27 C           1.2431    3.6701   21.7402 C.3     1  UNL1        0.0939
     28 N           1.3240    2.1723   21.7585 N.3     1  UNL1       -0.2710
     29 C           0.7765    1.4058   22.9259 C.3     1  UNL1        0.0939
     30 C           0.1481    2.1371   24.0750 C.3     1  UNL1        0.1108
     31 C           1.9524    1.4411   20.6094 C.3     1  UNL1        0.0604
     32 C           2.5840    2.2096   19.4867 C.3     1  UNL1        0.0333
     33 C           3.2124    1.4784   18.3376 C.3     1  UNL1        0.0735
     34 N           3.2091   -0.0214   18.3112 N.3     1  UNL1       -0.2714
     35 C           3.8374   -0.7526   17.1621 C.3     1  UNL1        0.0896
     36 C           2.5774   -0.7899   19.4338 C.3     1  UNL1        0.0735
     37 C           1.9490   -0.0586   20.5830 C.3     1  UNL1        0.0333
     38 C          -2.4195    2.8808   26.2502 C.3     1  UNL1        0.0553
     39 C          -6.2649    4.1656   23.0003 C.3     1  UNL1        0.0287
     40 C          -5.5961    4.2942   24.3367 C.2     1  UNL1       -0.0163
     41 C          -4.3421    3.5232   24.6252 C.2     1  UNL1       -0.0105
     42 C          -3.6733    3.6518   25.9617 C.2     1  UNL1       -0.0208
     43 C          -4.2585    4.5515   27.0097 C.2     1  UNL1       -0.0046
     44 C          -5.5124    5.3225   26.7212 C.2     1  UNL1        0.0261
     45 C          -6.3155    6.2796   27.5512 C.2     1  UNL1        0.1197
     46 N          -7.4807    6.7425   26.7277 N.2     1  UNL1       -0.1508
     47 N          -7.3976    6.0715   25.3888 N.2     1  UNL1       -0.1677
     48 C          -6.1812    5.1939   25.3847 C.3     1  UNL1        0.1672
@<TRIPOS>BOND
     1    39    40    1
     2    40    41    2
     3    41    42    1
     4    42    38    1
     5     1    38    1
     6     1     2    1
     7     2     3   am
     8     3     4    2
     9     3     5   am
    10     5     6    1
    11     6     7    1
    12     7     8    1
    13     8    12    1
    14    12    13    1
    15    13    14    2
    16    14    15   ar
    17    15    16   ar
    18    16    17   ar
    19    17    18   ar
    20    18    19   ar
    21    19    20    2
    22    20    21    1
    23    21    22    2
    24     8     9    1
    25     9    10    1
    26     1    23    1
    27    23    24    2
    28    23    25   am
    29    25    26    1
    30    26    27    1
    31    27    28    1
    32    28    31    1
    33    31    32    1
    34    32    33    1
    35    33    34    1
    36    34    35    1
    37    34    36    1
    38    36    37    1
    39    28    29    1
    40    29    30    1
    41    42    43    2
    42    43    44    1
    43    44    45    2
    44    45    46    1
    45    46    47    2
    46    47    48    1
    47    48    40    1
    48    10     5    1
    49    30    25    1
    50    48    44    1
    51    21    12    1
    52    37    31    1
    53    19    14   ar
    54     2    11    1
@<TRIPOS>MOLECULE
*****
 48 54 0 0 0
SMALL
GASTEIGER

@<TRIPOS>ATOM
      1 C          -1.9819    4.1853   26.4400 C.3     1  UNL1        0.1543
      2 N          -1.0243    3.3885   25.6045 N.am    1  UNL1       -0.2822
      3 C          -1.0831    3.4752   24.1081 C.2     1  UNL1        0.3043
      4 O          -2.0993    4.3586   23.4473 O.2     1  UNL1       -0.2526
      5 N          -0.1255    2.6785   23.2726 N.am    1  UNL1       -0.2642
      6 C          -0.1842    2.7651   21.7762 C.3     1  UNL1        0.0950
      7 C           0.7734    1.9683   20.9407 C.3     1  UNL1        0.0224
      8 C           1.7897    1.0849   21.6015 C.3     1  UNL1        0.0162
      9 C           1.8484    0.9982   23.0978 C.3     1  UNL1        0.0224
     10 C           0.8909    1.7950   23.9334 C.3     1  UNL1        0.0950
     11 H          -0.3573    2.8087   26.0382 H       1  UNL1        0.1514
     12 C           2.7473    0.2881   20.7659 C.3     1  UNL1        0.1006
     13 C           2.5883   -1.1994   20.6558 C.2     1  UNL1       -0.0160
     14 C           3.5460   -1.9961   19.8202 C.ar    1  UNL1        0.0115
     15 C           3.3870   -3.4836   19.7100 C.ar    1  UNL1        0.0010
     16 C           4.3446   -4.2804   18.8745 C.ar    1  UNL1        0.0001
     17 C           5.4612   -3.5896   18.1490 C.ar    1  UNL1        0.0013
     18 C           5.6201   -2.1022   18.2591 C.ar    1  UNL1        0.0166
     19 C           4.6625   -1.3054   19.0947 C.ar    1  UNL1        0.0730
     20 N           4.8214    0.1821   19.2049 N.am    1  UNL1       -0.1790
     21 C           3.8638    0.9788   20.0404 C.2     1  UNL1        0.2492
     22 O           4.0228    2.4663   20.1505 O.2     1  UNL1       -0.2726
     23 C          -1.5942    5.5487   26.9306 C.2     1  UNL1        0.2440
     24 O          -2.1446    6.7720   26.2592 O.2     1  UNL1       -0.2731
     25 N          -0.6561    5.6890   28.0926 N.am    1  UNL1       -0.2753
     26 C          -0.2684    7.0525   28.5832 C.3     1  UNL1        0.1108
     27 C           0.6697    7.1927   29.7452 C.3     1  UNL1        0.0939
     28 N           1.2201    5.9695   30.4167 N.3     1  UNL1       -0.2710
     29 C           0.8324    4.6060   29.9261 C.3     1  UNL1        0.0939
     30 C          -0.1058    4.4658   28.7640 C.3     1  UNL1        0.1108
     31 C           2.1582    6.1097   31.5787 C.3     1  UNL1        0.0604
     32 C           1.9593    7.2140   32.5741 C.3     1  UNL1        0.0333
     33 C           2.8973    7.3543   33.7361 C.3     1  UNL1        0.0735
     34 N           4.0344    6.3902   33.9027 N.3     1  UNL1       -0.2714
     35 C           4.9725    6.5304   35.0647 C.3     1  UNL1        0.0896
     36 C           4.2333    5.2859   32.9073 C.3     1  UNL1        0.0735
     37 C           3.2951    5.1456   31.7453 C.3     1  UNL1        0.0333
     38 C          -3.3273    3.6186   26.7850 C.3     1  UNL1        0.0553
     39 C          -7.2153    7.0287   27.2897 C.3     1  UNL1        0.0287
     40 C          -6.5157    5.9641   26.4977 C.2     1  UNL1       -0.0163
     41 C          -5.2713    5.3236   27.0374 C.2     1  UNL1       -0.0105
     42 C          -4.5717    4.2591   26.2454 C.2     1  UNL1       -0.0208
     43 C          -5.1165    3.8350   24.9137 C.2     1  UNL1       -0.0046
     44 C          -6.3609    4.4755   24.3741 C.2     1  UNL1        0.0261
     45 C          -7.1272    4.2653   23.1018 C.2     1  UNL1        0.1197
     46 N          -8.3004    5.2000   23.1075 N.2     1  UNL1       -0.1508
     47 N          -8.2591    5.9878   24.3833 N.2     1  UNL1       -0.1677
     48 C          -7.0605    5.5400   25.1661 C.3     1  UNL1        0.1672
@<TRIPOS>BOND
     1    39    40    1
     2    40    41    2
     3    41    42    1
     4    42    38    1
     5     1    38    1
     6     1     2    1
     7     2     3   am
     8     3     4    2
     9     3     5   am
    10     5     6    1
    11     6     7    1
    12     7     8    1
    13     8    12    1
    14    12    13    1
    15    13    14    2
    16    14    15   ar
    17    15    16   ar
    18    16    17   ar
    19    17    18   ar
    20    18    19   ar
    21    19    20    2
    22    20    21    1
    23    21    22    2
    24     8     9    1
    25     9    10    1
    26     1    23    1
    27    23    24    2
    28    23    25   am
    29    25    26    1
    30    26    27    1
    31    27    28    1
    32    28    31    1
    33    31    32    1
    34    32    33    1
    35    33    34    1
    36    34    35    1
    37    34    36    1
    38    36    37    1
    39    28    29    1
    40    29    30    1
    41    42    43    2
    42    43    44    1
    43    44    45    2
    44    45    46    1
    45    46    47    2
    46    47    48    1
    47    48    40    1
    48    10     5    1
    49    30    25    1
    50    48    44    1
    51    21    12    1
    52    37    31    1
    53    19    14   ar
    54     2    11    1
