@<TRIPOS>MOLECULE
*****
 28 30 0 0 0
SMALL
GASTEIGER

@<TRIPOS>ATOM
      1 C         -10.5807   -5.6047   18.8289 C.2     1  UNL1        0.2296
      2 O          -9.5495   -4.8646   19.6282 O.2     1  UNL1       -0.2745
      3 N         -12.0322   -5.2526   18.9679 N.am    1  UNL1       -0.2543
      4 C         -13.0634   -5.9927   18.1685 C.ar    1  UNL1        0.0542
      5 C         -13.4075   -5.5357   16.7819 C.ar    1  UNL1        0.0149
      6 C         -14.4386   -6.2759   15.9826 C.ar    1  UNL1        0.0014
      7 C         -15.1256   -7.4730   16.5699 C.ar    1  UNL1        0.0032
      8 C         -14.7815   -7.9300   17.9565 C.ar    1  UNL1        0.0384
      9 C         -13.7504   -7.1898   18.7558 C.ar    1  UNL1        0.0180
     10 C         -15.4685   -9.1271   18.5438 C.ar    1  UNL1        0.1806
     11 N         -15.6051  -10.4722   17.8942 N.ar    1  UNL1       -0.1083
     12 N         -16.3606  -11.3657   18.8328 N.ar    1  UNL1       -0.0229
     13 N         -16.6909  -10.5728   20.0625 N.ar    1  UNL1       -0.0464
     14 N         -16.1396   -9.1893   19.8839 N.ar    1  UNL1       -0.2388
     15 H         -16.2064   -8.4516   20.5324 H       1  UNL1        0.1923
     16 C          -9.6592   -8.0017   18.4347 C.3     1  UNL1        0.0101
     17 C         -10.1605   -6.6969   17.8904 C.3     1  UNL1        0.0856
     18 C         -12.4524   -4.1604   19.9062 C.3     1  UNL1        0.1247
     19 C         -12.7481   -2.7887   19.3761 C.ar    1  UNL1       -0.0020
     20 C         -11.6243   -1.8893   18.9544 C.ar    1  UNL1       -0.0027
     21 C         -11.9200   -0.5176   18.4243 C.ar    1  UNL1        0.0036
     22 C         -13.3396   -0.0453   18.3160 C.ar    1  UNL1        0.0714
     23 C         -14.4635   -0.9448   18.7378 C.ar    1  UNL1        0.0036
     24 C         -14.1677   -2.3164   19.2678 C.ar    1  UNL1       -0.0027
     25 C         -13.6353    1.3264   17.7859 C.3     1  UNL1        0.4186
     26 F         -13.9310    2.6981   17.2559 F       1  UNL1       -0.1659
     27 F         -12.8052    1.0358   16.5708 F       1  UNL1       -0.1659
     28 F         -14.4654    1.6170   19.0010 F       1  UNL1       -0.1659
@<TRIPOS>BOND
     1    16    17    1
     2    17     1    1
     3     1     2    2
     4     1     3   am
     5     3    18    1
     6    18    19    1
     7    19    20   ar
     8    20    21   ar
     9    21    22   ar
    10    22    25    1
    11    25    26    1
    12    25    27    1
    13    25    28    1
    14    22    23   ar
    15    23    24   ar
    16     3     4    1
    17     4     5   ar
    18     5     6   ar
    19     6     7   ar
    20     7     8   ar
    21     8    10    1
    22    10    11   ar
    23    11    12   ar
    24    12    13   ar
    25    13    14   ar
    26     8     9   ar
    27    24    19   ar
    28     9     4   ar
    29    14    10   ar
    30    14    15    1
@<TRIPOS>MOLECULE
*****
 28 30 0 0 0
SMALL
GASTEIGER

@<TRIPOS>ATOM
      1 C         -10.4307   -5.4724   18.9725 C.2     1  UNL1        0.2296
      2 O          -9.1961   -4.8591   19.5637 O.2     1  UNL1       -0.2745
      3 N         -11.5862   -4.6008   18.5784 N.am    1  UNL1       -0.2543
      4 C         -12.8208   -5.2142   17.9872 C.ar    1  UNL1        0.0542
      5 C         -13.2115   -4.8994   16.5736 C.ar    1  UNL1        0.0149
      6 C         -14.4461   -5.5128   15.9824 C.ar    1  UNL1        0.0014
      7 C         -15.2900   -6.4409   16.8049 C.ar    1  UNL1        0.0032
      8 C         -14.8994   -6.7556   18.2185 C.ar    1  UNL1        0.0384
      9 C         -13.6648   -6.1422   18.8096 C.ar    1  UNL1        0.0180
     10 C         -15.7433   -7.6837   19.0409 C.ar    1  UNL1        0.1806
     11 N         -17.1058   -7.3822   19.5911 N.ar    1  UNL1       -0.1083
     12 N         -17.5775   -8.5884   20.3478 N.ar    1  UNL1       -0.0229
     13 N         -16.5066   -9.6354   20.2653 N.ar    1  UNL1       -0.0464
     14 N         -15.3730   -9.0762   19.4576 N.ar    1  UNL1       -0.2388
     15 H         -14.5333   -9.5415   19.2393 H       1  UNL1        0.1923
     16 C          -9.2526   -7.7639   18.6393 C.3     1  UNL1        0.0101
     17 C         -10.5099   -6.9573   18.7754 C.3     1  UNL1        0.0856
     18 C         -11.5070   -3.1159   18.7754 C.3     1  UNL1        0.1247
     19 C         -12.7611   -2.3182   18.9777 C.ar    1  UNL1       -0.0020
     20 C         -13.7541   -2.7338   20.0223 C.ar    1  UNL1       -0.0027
     21 C         -15.0081   -1.9361   20.2245 C.ar    1  UNL1        0.0036
     22 C         -15.2693   -0.7228   19.3820 C.ar    1  UNL1        0.0714
     23 C         -14.2764   -0.3072   18.3374 C.ar    1  UNL1        0.0036
     24 C         -13.0223   -1.1049   18.1352 C.ar    1  UNL1       -0.0027
     25 C         -16.5235    0.0749   19.5843 C.3     1  UNL1        0.4186
     26 F         -17.7775    0.8725   19.7865 F       1  UNL1       -0.1659
     27 F         -16.7481    0.0978   18.1014 F       1  UNL1       -0.1659
     28 F         -16.2989    0.0520   21.0671 F       1  UNL1       -0.1659
@<TRIPOS>BOND
     1    16    17    1
     2    17     1    1
     3     1     2    2
     4     1     3   am
     5     3    18    1
     6    18    19    1
     7    19    20   ar
     8    20    21   ar
     9    21    22   ar
    10    22    25    1
    11    25    26    1
    12    25    27    1
    13    25    28    1
    14    22    23   ar
    15    23    24   ar
    16     3     4    1
    17     4     5   ar
    18     5     6   ar
    19     6     7   ar
    20     7     8   ar
    21     8    10    1
    22    10    11   ar
    23    11    12   ar
    24    12    13   ar
    25    13    14   ar
    26     8     9   ar
    27    24    19   ar
    28     9     4   ar
    29    14    10   ar
    30    14    15    1
@<TRIPOS>MOLECULE
*****
 28 30 0 0 0
SMALL
GASTEIGER

@<TRIPOS>ATOM
      1 C          -9.8342   -4.8232   17.7280 C.2     1  UNL1        0.2296
      2 O          -8.7017   -4.4054   16.8377 O.2     1  UNL1       -0.2745
      3 N         -11.2280   -4.3485   17.4414 N.am    1  UNL1       -0.2543
      4 C         -12.3606   -4.7663   18.3319 C.ar    1  UNL1        0.0542
      5 C         -12.7697   -3.8962   19.4831 C.ar    1  UNL1        0.0149
      6 C         -13.9022   -4.3140   20.3735 C.ar    1  UNL1        0.0014
      7 C         -14.6256   -5.6019   20.1126 C.ar    1  UNL1        0.0032
      8 C         -14.2164   -6.4720   18.9613 C.ar    1  UNL1        0.0384
      9 C         -13.0839   -6.0542   18.0709 C.ar    1  UNL1        0.0180
     10 C         -14.9398   -7.7599   18.7004 C.ar    1  UNL1        0.1806
     11 N         -16.3069   -7.8970   18.0985 N.ar    1  UNL1       -0.1083
     12 N         -16.6351   -9.3586   18.0217 N.ar    1  UNL1       -0.0229
     13 N         -15.4709  -10.1249   18.5760 N.ar    1  UNL1       -0.0464
     14 N         -14.4231   -9.1368   18.9955 N.ar    1  UNL1       -0.2388
     15 H         -13.5496   -9.3539   19.3944 H       1  UNL1        0.1923
     16 C          -9.5624   -7.2052   18.7290 C.3     1  UNL1        0.0101
     17 C          -9.5731   -5.7157   18.9051 C.3     1  UNL1        0.0856
     18 C         -11.4892   -3.4561   16.2644 C.3     1  UNL1        0.1247
     19 C         -11.9697   -2.0515   16.4802 C.ar    1  UNL1       -0.0020
     20 C         -10.9910   -0.9690   16.8269 C.ar    1  UNL1       -0.0027
     21 C         -11.4715    0.4355   17.0426 C.ar    1  UNL1        0.0036
     22 C         -12.9306    0.7574   16.9116 C.ar    1  UNL1        0.0714
     23 C         -13.9093   -0.3251   16.5649 C.ar    1  UNL1        0.0036
     24 C         -13.4288   -1.7296   16.3492 C.ar    1  UNL1       -0.0027
     25 C         -13.4111    2.1619   17.1274 C.3     1  UNL1        0.4186
     26 F         -13.8915    3.5664   17.3431 F       1  UNL1       -0.1659
     27 F         -14.2615    1.6954   18.2715 F       1  UNL1       -0.1659
     28 F         -12.5607    2.6285   15.9832 F       1  UNL1       -0.1659
@<TRIPOS>BOND
     1    16    17    1
     2    17     1    1
     3     1     2    2
     4     1     3   am
     5     3    18    1
     6    18    19    1
     7    19    20   ar
     8    20    21   ar
     9    21    22   ar
    10    22    25    1
    11    25    26    1
    12    25    27    1
    13    25    28    1
    14    22    23   ar
    15    23    24   ar
    16     3     4    1
    17     4     5   ar
    18     5     6   ar
    19     6     7   ar
    20     7     8   ar
    21     8    10    1
    22    10    11   ar
    23    11    12   ar
    24    12    13   ar
    25    13    14   ar
    26     8     9   ar
    27    24    19   ar
    28     9     4   ar
    29    14    10   ar
    30    14    15    1
@<TRIPOS>MOLECULE
*****
 28 30 0 0 0
SMALL
GASTEIGER

@<TRIPOS>ATOM
      1 C         -15.7044   -3.2285   19.4524 C.2     1  UNL1        0.2296
      2 O         -17.0908   -3.1756   20.0225 O.2     1  UNL1       -0.2745
      3 N         -15.4128   -4.1033   18.2693 N.am    1  UNL1       -0.2543
      4 C         -14.0263   -4.1561   17.6991 C.ar    1  UNL1        0.0542
      5 C         -13.5572   -3.0787   16.7668 C.ar    1  UNL1        0.0149
      6 C         -12.1708   -3.1315   16.1967 C.ar    1  UNL1        0.0014
      7 C         -11.2535   -4.2617   16.5590 C.ar    1  UNL1        0.0032
      8 C         -11.7226   -5.3390   17.4913 C.ar    1  UNL1        0.0384
      9 C         -13.1090   -5.2862   18.0614 C.ar    1  UNL1        0.0180
     10 C         -10.8052   -6.4692   17.8535 C.ar    1  UNL1        0.1806
     11 N          -9.6748   -6.4065   18.8375 N.ar    1  UNL1       -0.1083
     12 N          -9.0282   -7.7591   18.8875 N.ar    1  UNL1       -0.0229
     13 N          -9.7589   -8.6577   17.9343 N.ar    1  UNL1       -0.0464
     14 N         -10.8572   -7.8605   17.2953 N.ar    1  UNL1       -0.2388
     15 H         -11.4993   -8.1922   16.6269 H       1  UNL1        0.1923
     16 C         -13.6779   -3.0244   21.0653 C.3     1  UNL1        0.0101
     17 C         -14.6095   -2.4064   20.0653 C.3     1  UNL1        0.0856
     18 C         -16.5075   -4.9253   17.6564 C.3     1  UNL1        0.1247
     19 C         -16.5842   -6.3977   17.9325 C.ar    1  UNL1       -0.0020
     20 C         -16.0182   -7.3762   16.9466 C.ar    1  UNL1       -0.0027
     21 C         -16.0948   -8.8485   17.2228 C.ar    1  UNL1        0.0036
     22 C         -16.7376   -9.3424   18.4849 C.ar    1  UNL1        0.0714
     23 C         -17.3036   -8.3639   19.4709 C.ar    1  UNL1        0.0036
     24 C         -17.2269   -6.8916   19.1947 C.ar    1  UNL1       -0.0027
     25 C         -16.8142  -10.8148   18.7611 C.3     1  UNL1        0.4186
     26 F         -16.8909  -12.2871   19.0372 F       1  UNL1       -0.1659
     27 F         -15.6100  -11.0399   17.8956 F       1  UNL1       -0.1659
     28 F         -18.0185  -10.5897   19.6265 F       1  UNL1       -0.1659
@<TRIPOS>BOND
     1    16    17    1
     2    17     1    1
     3     1     2    2
     4     1     3   am
     5     3    18    1
     6    18    19    1
     7    19    20   ar
     8    20    21   ar
     9    21    22   ar
    10    22    25    1
    11    25    26    1
    12    25    27    1
    13    25    28    1
    14    22    23   ar
    15    23    24   ar
    16     3     4    1
    17     4     5   ar
    18     5     6   ar
    19     6     7   ar
    20     7     8   ar
    21     8    10    1
    22    10    11   ar
    23    11    12   ar
    24    12    13   ar
    25    13    14   ar
    26     8     9   ar
    27    24    19   ar
    28     9     4   ar
    29    14    10   ar
    30    14    15    1
@<TRIPOS>MOLECULE
*****
 28 30 0 0 0
SMALL
GASTEIGER

@<TRIPOS>ATOM
      1 C         -18.3513   -4.0942   19.8266 C.2     1  UNL1        0.2296
      2 O         -18.5489   -3.0117   20.8458 O.2     1  UNL1       -0.2745
      3 N         -16.9657   -4.5446   19.4697 N.am    1  UNL1       -0.2543
      4 C         -16.7682   -5.6272   18.4504 C.ar    1  UNL1        0.0542
      5 C         -16.6057   -5.2729   17.0019 C.ar    1  UNL1        0.0149
      6 C         -16.4082   -6.3555   15.9827 C.ar    1  UNL1        0.0014
      7 C         -16.3732   -7.7924   16.4119 C.ar    1  UNL1        0.0032
      8 C         -16.5357   -8.1466   17.8603 C.ar    1  UNL1        0.0384
      9 C         -16.7332   -7.0640   18.8796 C.ar    1  UNL1        0.0180
     10 C         -16.5006   -9.5835   18.2895 C.ar    1  UNL1        0.1806
     11 N         -15.4486  -10.5878   17.9229 N.ar    1  UNL1       -0.1083
     12 N         -15.8092  -11.8934   18.5675 N.ar    1  UNL1       -0.0229
     13 N         -17.0842  -11.6959   19.3326 N.ar    1  UNL1       -0.0464
     14 N         -17.5115  -10.2683   19.1608 N.ar    1  UNL1       -0.2388
     15 H         -18.3145   -9.8537   19.5513 H       1  UNL1        0.1923
     16 C         -20.0592   -4.1735   17.8703 C.3     1  UNL1        0.0101
     17 C         -19.5394   -4.7265   19.1641 C.3     1  UNL1        0.0856
     18 C         -15.7777   -3.9123   20.1321 C.3     1  UNL1        0.1247
     19 C         -14.3985   -4.1670   19.6000 C.ar    1  UNL1       -0.0020
     20 C         -13.7372   -3.1528   18.7146 C.ar    1  UNL1       -0.0027
     21 C         -12.3580   -3.4075   18.1826 C.ar    1  UNL1        0.0036
     22 C         -11.6403   -4.6763   18.5359 C.ar    1  UNL1        0.0714
     23 C         -12.3017   -5.6905   19.4213 C.ar    1  UNL1        0.0036
     24 C         -13.6808   -5.4358   19.9534 C.ar    1  UNL1       -0.0027
     25 C         -10.2611   -4.9310   18.0038 C.3     1  UNL1        0.4186
     26 F          -8.8820   -5.1856   17.4717 F       1  UNL1       -0.1659
     27 F          -9.7036   -4.8107   19.3911 F       1  UNL1       -0.1659
     28 F         -10.8186   -5.0513   16.6165 F       1  UNL1       -0.1659
@<TRIPOS>BOND
     1    16    17    1
     2    17     1    1
     3     1     2    2
     4     1     3   am
     5     3    18    1
     6    18    19    1
     7    19    20   ar
     8    20    21   ar
     9    21    22   ar
    10    22    25    1
    11    25    26    1
    12    25    27    1
    13    25    28    1
    14    22    23   ar
    15    23    24   ar
    16     3     4    1
    17     4     5   ar
    18     5     6   ar
    19     6     7   ar
    20     7     8   ar
    21     8    10    1
    22    10    11   ar
    23    11    12   ar
    24    12    13   ar
    25    13    14   ar
    26     8     9   ar
    27    24    19   ar
    28     9     4   ar
    29    14    10   ar
    30    14    15    1
@<TRIPOS>MOLECULE
*****
 28 30 0 0 0
SMALL
GASTEIGER

@<TRIPOS>ATOM
      1 C         -13.0031   -0.0101   18.1244 C.2     1  UNL1        0.2296
      2 O         -12.0627    0.9437   17.4491 O.2     1  UNL1       -0.2745
      3 N         -12.6658   -1.4699   18.1981 N.am    1  UNL1       -0.2543
      4 C         -13.6063   -2.4237   18.8734 C.ar    1  UNL1        0.0542
      5 C         -13.3836   -2.8085   20.3059 C.ar    1  UNL1        0.0149
      6 C         -14.3240   -3.7623   20.9812 C.ar    1  UNL1        0.0014
      7 C         -15.4870   -4.3312   20.2238 C.ar    1  UNL1        0.0032
      8 C         -15.7097   -3.9464   18.7913 C.ar    1  UNL1        0.0384
      9 C         -14.7693   -2.9926   18.1160 C.ar    1  UNL1        0.0180
     10 C         -16.8728   -4.5153   18.0339 C.ar    1  UNL1        0.1806
     11 N         -17.4121   -5.9091   18.1629 N.ar    1  UNL1       -0.1083
     12 N         -18.5734   -6.0456   17.2233 N.ar    1  UNL1       -0.0229
     13 N         -18.7518   -4.7362   16.5136 N.ar    1  UNL1       -0.0464
     14 N         -17.7007   -3.7905   17.0146 N.ar    1  UNL1       -0.2388
     15 H         -17.5762   -2.8578   16.7251 H       1  UNL1        0.1923
     16 C         -15.4744    0.7439   17.8522 C.3     1  UNL1        0.0101
     17 C         -14.2807    0.4958   18.7259 C.3     1  UNL1        0.0856
     18 C         -11.3883   -1.9758   17.5966 C.3     1  UNL1        0.1247
     19 C         -11.0147   -3.4219   17.7360 C.ar    1  UNL1       -0.0020
     20 C         -10.0958   -3.8561   18.8391 C.ar    1  UNL1       -0.0027
     21 C          -9.7223   -5.3022   18.9784 C.ar    1  UNL1        0.0036
     22 C         -10.2677   -6.3139   18.0147 C.ar    1  UNL1        0.0714
     23 C         -11.1867   -5.8797   16.9116 C.ar    1  UNL1        0.0036
     24 C         -11.5602   -4.4337   16.7722 C.ar    1  UNL1       -0.0027
     25 C          -9.8942   -7.7600   18.1541 C.3     1  UNL1        0.4186
     26 F          -9.5206   -9.2060   18.2936 F       1  UNL1       -0.1659
     27 F         -10.7470   -8.0949   16.9665 F       1  UNL1       -0.1659
     28 F          -9.0413   -7.4252   19.3418 F       1  UNL1       -0.1659
@<TRIPOS>BOND
     1    16    17    1
     2    17     1    1
     3     1     2    2
     4     1     3   am
     5     3    18    1
     6    18    19    1
     7    19    20   ar
     8    20    21   ar
     9    21    22   ar
    10    22    25    1
    11    25    26    1
    12    25    27    1
    13    25    28    1
    14    22    23   ar
    15    23    24   ar
    16     3     4    1
    17     4     5   ar
    18     5     6   ar
    19     6     7   ar
    20     7     8   ar
    21     8    10    1
    22    10    11   ar
    23    11    12   ar
    24    12    13   ar
    25    13    14   ar
    26     8     9   ar
    27    24    19   ar
    28     9     4   ar
    29    14    10   ar
    30    14    15    1
@<TRIPOS>MOLECULE
*****
 28 30 0 0 0
SMALL
GASTEIGER

@<TRIPOS>ATOM
      1 C           7.1636   -2.2367   18.8309 C.2     1  UNL1        0.2296
      2 O           6.9477   -2.2968   17.3478 O.2     1  UNL1       -0.2745
      3 N           6.0101   -2.4495   19.7660 N.am    1  UNL1       -0.2543
      4 C           6.2261   -2.3894   21.2492 C.ar    1  UNL1        0.0542
      5 C           6.1364   -1.0756   21.9675 C.ar    1  UNL1        0.0149
      6 C           6.3523   -1.0156   23.4506 C.ar    1  UNL1        0.0014
      7 C           6.6579   -2.2692   24.2154 C.ar    1  UNL1        0.0032
      8 C           6.7476   -3.5830   23.4971 C.ar    1  UNL1        0.0384
      9 C           6.5317   -3.6430   22.0140 C.ar    1  UNL1        0.0180
     10 C           7.0532   -4.8366   24.2619 C.ar    1  UNL1        0.1806
     11 N           7.7445   -6.0530   23.7211 N.ar    1  UNL1       -0.1083
     12 N           7.8397   -7.0622   24.8267 N.ar    1  UNL1       -0.0229
     13 N           7.2073   -6.4695   26.0510 N.ar    1  UNL1       -0.0464
     14 N           6.7212   -5.0941   25.7019 N.ar    1  UNL1       -0.2388
     15 H           6.2645   -4.4698   26.3110 H       1  UNL1        0.1923
     16 C           9.5093   -3.0892   19.5528 C.3     1  UNL1        0.0101
     17 C           8.5329   -1.9638   19.3791 C.3     1  UNL1        0.0856
     18 C           4.6408   -2.7224   19.2179 C.3     1  UNL1        0.1247
     19 C           3.6082   -1.6344   19.2034 C.ar    1  UNL1       -0.0020
     20 C           2.5999   -1.5427   20.3101 C.ar    1  UNL1       -0.0027
     21 C           1.5673   -0.4548   20.2956 C.ar    1  UNL1        0.0036
     22 C           1.5431    0.5414   19.1744 C.ar    1  UNL1        0.0714
     23 C           2.5514    0.4496   18.0677 C.ar    1  UNL1        0.0036
     24 C           3.5839   -0.6383   18.0822 C.ar    1  UNL1       -0.0027
     25 C           0.5104    1.6293   19.1599 C.3     1  UNL1        0.4186
     26 F          -0.5221    2.7172   19.1454 F       1  UNL1       -0.1659
     27 F          -0.2718    0.9009   20.2123 F       1  UNL1       -0.1659
     28 F           1.2927    2.3577   18.1075 F       1  UNL1       -0.1659
@<TRIPOS>BOND
     1    16    17    1
     2    17     1    1
     3     1     2    2
     4     1     3   am
     5     3    18    1
     6    18    19    1
     7    19    20   ar
     8    20    21   ar
     9    21    22   ar
    10    22    25    1
    11    25    26    1
    12    25    27    1
    13    25    28    1
    14    22    23   ar
    15    23    24   ar
    16     3     4    1
    17     4     5   ar
    18     5     6   ar
    19     6     7   ar
    20     7     8   ar
    21     8    10    1
    22    10    11   ar
    23    11    12   ar
    24    12    13   ar
    25    13    14   ar
    26     8     9   ar
    27    24    19   ar
    28     9     4   ar
    29    14    10   ar
    30    14    15    1
@<TRIPOS>MOLECULE
*****
 28 30 0 0 0
SMALL
GASTEIGER

@<TRIPOS>ATOM
      1 C           7.3224   -2.2763   18.7157 C.2     1  UNL1        0.2296
      2 O           7.0358   -1.8785   17.2981 O.2     1  UNL1       -0.2745
      3 N           6.2448   -2.9003   19.5519 N.am    1  UNL1       -0.2543
      4 C           6.5313   -3.2981   20.9696 C.ar    1  UNL1        0.0542
      5 C           7.5682   -4.3421   21.2607 C.ar    1  UNL1        0.0149
      6 C           7.8547   -4.7398   22.6783 C.ar    1  UNL1        0.0014
      7 C           7.1044   -4.0935   23.8049 C.ar    1  UNL1        0.0032
      8 C           6.0675   -3.0494   23.5138 C.ar    1  UNL1        0.0384
      9 C           5.7810   -2.6517   22.0962 C.ar    1  UNL1        0.0180
     10 C           5.3171   -2.4031   24.6404 C.ar    1  UNL1        0.1806
     11 N           4.1467   -1.4751   24.5024 N.ar    1  UNL1       -0.1083
     12 N           3.7116   -1.0697   25.8794 N.ar    1  UNL1       -0.0229
     13 N           4.6131   -1.7471   26.8686 N.ar    1  UNL1       -0.0464
     14 N           5.6054   -2.5712   26.1028 N.ar    1  UNL1       -0.2388
     15 H           6.3203   -3.1251   26.4917 H       1  UNL1        0.1923
     16 C           9.0437   -0.7118   19.8730 C.3     1  UNL1        0.0101
     17 C           8.6865   -2.0499   19.2971 C.3     1  UNL1        0.0856
     18 C           4.8807   -3.1267   18.9706 C.3     1  UNL1        0.1247
     19 C           3.8608   -2.0271   19.0003 C.ar    1  UNL1       -0.0020
     20 C           3.8355   -0.9980   17.9093 C.ar    1  UNL1       -0.0027
     21 C           2.8157    0.1016   17.9390 C.ar    1  UNL1        0.0036
     22 C           1.8212    0.1720   19.0597 C.ar    1  UNL1        0.0714
     23 C           1.8465   -0.8570   20.1507 C.ar    1  UNL1        0.0036
     24 C           2.8663   -1.9566   20.1210 C.ar    1  UNL1       -0.0027
     25 C           0.8014    1.2717   19.0894 C.3     1  UNL1        0.4186
     26 F          -0.2185    2.3712   19.1191 F       1  UNL1       -0.1659
     27 F           1.6551    2.0885   18.1654 F       1  UNL1       -0.1659
     28 F          -0.0524    0.4548   20.0134 F       1  UNL1       -0.1659
@<TRIPOS>BOND
     1    16    17    1
     2    17     1    1
     3     1     2    2
     4     1     3   am
     5     3    18    1
     6    18    19    1
     7    19    20   ar
     8    20    21   ar
     9    21    22   ar
    10    22    25    1
    11    25    26    1
    12    25    27    1
    13    25    28    1
    14    22    23   ar
    15    23    24   ar
    16     3     4    1
    17     4     5   ar
    18     5     6   ar
    19     6     7   ar
    20     7     8   ar
    21     8    10    1
    22    10    11   ar
    23    11    12   ar
    24    12    13   ar
    25    13    14   ar
    26     8     9   ar
    27    24    19   ar
    28     9     4   ar
    29    14    10   ar
    30    14    15    1
@<TRIPOS>MOLECULE
*****
 28 30 0 0 0
SMALL
GASTEIGER

@<TRIPOS>ATOM
      1 C           8.2669   -1.8131   20.8685 C.2     1  UNL1        0.2296
      2 O           9.4797   -1.4348   21.6659 O.2     1  UNL1       -0.2745
      3 N           7.0169   -2.2563   21.5693 N.am    1  UNL1       -0.2543
      4 C           5.8040   -2.6347   20.7718 C.ar    1  UNL1        0.0542
      5 C           5.6978   -4.0059   20.1732 C.ar    1  UNL1        0.0149
      6 C           4.4850   -4.3842   19.3758 C.ar    1  UNL1        0.0014
      7 C           3.3784   -3.3913   19.1770 C.ar    1  UNL1        0.0032
      8 C           3.4846   -2.0201   19.7756 C.ar    1  UNL1        0.0384
      9 C           4.6974   -1.6418   20.5730 C.ar    1  UNL1        0.0180
     10 C           2.3780   -1.0272   19.5769 C.ar    1  UNL1        0.1806
     11 N           1.2656   -0.7417   20.5418 N.ar    1  UNL1       -0.1083
     12 N           0.3896    0.3165   19.9396 N.ar    1  UNL1       -0.0229
     13 N           0.9605    0.6851   18.6024 N.ar    1  UNL1       -0.0464
     14 N           2.1894   -0.1453   18.3782 N.ar    1  UNL1       -0.2388
     15 H           2.7702   -0.1166   17.5838 H       1  UNL1        0.1923
     16 C           7.7609   -0.5452   18.6580 C.3     1  UNL1        0.0101
     17 C           8.3041   -1.7483   19.3703 C.3     1  UNL1        0.0856
     18 C           6.9797   -2.3212   23.0674 C.3     1  UNL1        0.1247
     19 C           7.2047   -3.6287   23.7673 C.ar    1  UNL1       -0.0020
     20 C           7.9843   -4.7171   23.0909 C.ar    1  UNL1       -0.0027
     21 C           8.2092   -6.0245   23.7909 C.ar    1  UNL1        0.0036
     22 C           7.6546   -6.2435   25.1673 C.ar    1  UNL1        0.0714
     23 C           6.8751   -5.1551   25.8437 C.ar    1  UNL1        0.0036
     24 C           6.6501   -3.8477   25.1437 C.ar    1  UNL1       -0.0027
     25 C           7.8797   -7.5510   25.8672 C.3     1  UNL1        0.4186
     26 F           8.1047   -8.8585   26.5671 F       1  UNL1       -0.1659
     27 F           7.1116   -7.0482   27.0535 F       1  UNL1       -0.1659
     28 F           8.6477   -8.0539   24.6810 F       1  UNL1       -0.1659
@<TRIPOS>BOND
     1    16    17    1
     2    17     1    1
     3     1     2    2
     4     1     3   am
     5     3    18    1
     6    18    19    1
     7    19    20   ar
     8    20    21   ar
     9    21    22   ar
    10    22    25    1
    11    25    26    1
    12    25    27    1
    13    25    28    1
    14    22    23   ar
    15    23    24   ar
    16     3     4    1
    17     4     5   ar
    18     5     6   ar
    19     6     7   ar
    20     7     8   ar
    21     8    10    1
    22    10    11   ar
    23    11    12   ar
    24    12    13   ar
    25    13    14   ar
    26     8     9   ar
    27    24    19   ar
    28     9     4   ar
    29    14    10   ar
    30    14    15    1
