@<TRIPOS>MOLECULE
*****
 32 34 0 0 0
SMALL
GASTEIGER

@<TRIPOS>ATOM
      1 N          -9.4507  -17.9479   21.6593 N.pl3   1  UNL1       -0.1816
      2 C         -11.9620  -17.2947   21.7888 C.ar    1  UNL1       -0.0073
      3 C         -13.1496  -16.5800   21.2154 C.ar    1  UNL1       -0.0030
      4 C         -13.0135  -15.8038   19.9391 C.ar    1  UNL1       -0.0002
      5 C         -11.6899  -15.7423   19.2362 C.ar    1  UNL1        0.0013
      6 C         -10.5023  -16.4570   19.8096 C.ar    1  UNL1        0.0158
      7 C         -10.6384  -17.2332   21.0859 C.ar    1  UNL1        0.0654
      8 C         -13.3876  -18.0358   23.8305 C.3     1  UNL1        0.0051
      9 C         -12.0981  -18.0709   23.0651 C.3     1  UNL1        0.0277
     10 S          -8.5836  -17.2657   22.6756 S.O2    1  UNL1        0.0770
     11 O          -9.0789  -18.2091   23.7314 O.2     1  UNL1       -0.1497
     12 O          -8.0883  -16.3224   21.6198 O.2     1  UNL1       -0.1497
     13 C          -7.7165  -16.5836   23.6918 C.ar    1  UNL1        0.1254
     14 C          -8.3002  -16.1442   25.0019 C.ar    1  UNL1        0.0199
     15 C          -7.4331  -15.4620   26.0182 C.ar    1  UNL1       -0.0029
     16 C          -5.9823  -15.2193   25.7244 C.ar    1  UNL1       -0.0218
     17 C          -5.1152  -14.5371   26.7406 C.3     1  UNL1        0.0310
     18 C          -5.3986  -15.6586   24.4143 C.ar    1  UNL1       -0.0029
     19 C          -6.2657  -16.3408   23.3981 C.ar    1  UNL1        0.0199
     20 C          -9.1302  -19.3447   21.2164 C.3     1  UNL1        0.2002
     21 C          -7.8254  -19.6349   20.5357 C.2     1  UNL1        0.2448
     22 O          -7.6181  -19.2281   19.1068 O.2     1  UNL1       -0.2732
     23 N          -6.7278  -20.3318   21.2838 N.am    1  UNL1       -0.2990
     24 H          -6.8638  -20.5988   22.2216 H       1  UNL1        0.1498
     25 C          -5.4231  -20.6219   20.6031 C.3     1  UNL1        0.1164
     26 C          -4.3178  -19.6084   20.6370 C.ar    1  UNL1       -0.0025
     27 C          -3.9874  -18.9015   21.9180 C.ar    1  UNL1       -0.0018
     28 C          -2.8821  -17.8880   21.9518 C.ar    1  UNL1        0.0111
     29 C          -2.1072  -17.5815   20.7046 C.ar    1  UNL1        0.0577
     30 CL         -1.0018  -16.5680   20.7385 Cl      1  UNL1       -0.0822
     31 C          -2.4375  -18.2884   19.4236 C.ar    1  UNL1        0.0111
     32 C          -3.5428  -19.3019   19.3898 C.ar    1  UNL1       -0.0018
@<TRIPOS>BOND
     1     8     9    1
     2     9     2    1
     3     2     3   ar
     4     3     4   ar
     5     4     5   ar
     6     5     6   ar
     7     6     7   ar
     8     7     1    1
     9     1    20    1
    10    20    21    1
    11    21    22    2
    12    21    23   am
    13    23    25    1
    14    25    26    1
    15    26    27   ar
    16    27    28   ar
    17    28    29   ar
    18    29    30    1
    19    29    31   ar
    20    31    32   ar
    21     1    10    1
    22    10    11    2
    23    10    12    2
    24    10    13    1
    25    13    14   ar
    26    14    15   ar
    27    15    16   ar
    28    16    17    1
    29    16    18   ar
    30    18    19   ar
    31     7     2   ar
    32    32    26   ar
    33    19    13   ar
    34    23    24    1
@<TRIPOS>MOLECULE
*****
 32 34 0 0 0
SMALL
GASTEIGER

@<TRIPOS>ATOM
      1 N          -9.0704  -18.0884   22.8672 N.pl3   1  UNL1       -0.1816
      2 C         -10.1885  -16.3487   21.2944 C.ar    1  UNL1       -0.0073
      3 C         -11.3799  -15.8822   20.5116 C.ar    1  UNL1       -0.0030
      4 C         -12.6447  -16.6885   20.5187 C.ar    1  UNL1       -0.0002
      5 C         -12.7181  -17.9615   21.3087 C.ar    1  UNL1        0.0013
      6 C         -11.5267  -18.4281   22.0915 C.ar    1  UNL1        0.0158
      7 C         -10.2619  -17.6217   22.0844 C.ar    1  UNL1        0.0654
      8 C          -8.8659  -14.2446   20.5372 C.3     1  UNL1        0.0051
      9 C          -8.9237  -15.5424   21.2872 C.3     1  UNL1        0.0277
     10 S          -8.5120  -17.2320   23.9648 S.O2    1  UNL1        0.0770
     11 O          -9.8421  -17.2528   24.6578 O.2     1  UNL1       -0.1497
     12 O          -7.1818  -17.2112   23.2718 O.2     1  UNL1       -0.1497
     13 C          -7.9535  -16.3756   25.0624 C.ar    1  UNL1        0.1254
     14 C          -6.6366  -15.6820   24.8762 C.ar    1  UNL1        0.0199
     15 C          -6.0781  -14.8256   25.9738 C.ar    1  UNL1       -0.0029
     16 C          -6.8366  -14.6628   27.2576 C.ar    1  UNL1       -0.0218
     17 C          -6.2782  -13.8064   28.3552 C.3     1  UNL1        0.0310
     18 C          -8.1535  -15.3564   27.4438 C.ar    1  UNL1       -0.0029
     19 C          -8.7120  -16.2128   26.3462 C.ar    1  UNL1        0.0199
     20 C          -8.4375  -19.4113   22.5525 C.3     1  UNL1        0.2002
     21 C          -7.4783  -19.5299   21.4053 C.2     1  UNL1        0.2448
     22 O          -7.7914  -18.8710   20.0947 O.2     1  UNL1       -0.2732
     23 N          -6.2059  -20.3072   21.5689 N.am    1  UNL1       -0.2990
     24 H          -6.0004  -20.7396   22.4292 H       1  UNL1        0.1498
     25 C          -5.2467  -20.4257   20.4218 C.3     1  UNL1        0.1164
     26 C          -4.0112  -19.5758   20.3864 C.ar    1  UNL1       -0.0025
     27 C          -3.7122  -18.7372   19.1792 C.ar    1  UNL1       -0.0018
     28 C          -2.4767  -17.8873   19.1438 C.ar    1  UNL1        0.0111
     29 C          -1.5403  -17.8761   20.3156 C.ar    1  UNL1        0.0577
     30 CL         -0.3047  -17.0262   20.2801 Cl      1  UNL1       -0.0822
     31 C          -1.8393  -18.7147   21.5227 C.ar    1  UNL1        0.0111
     32 C          -3.0748  -19.5646   21.5581 C.ar    1  UNL1       -0.0018
@<TRIPOS>BOND
     1     8     9    1
     2     9     2    1
     3     2     3   ar
     4     3     4   ar
     5     4     5   ar
     6     5     6   ar
     7     6     7   ar
     8     7     1    1
     9     1    20    1
    10    20    21    1
    11    21    22    2
    12    21    23   am
    13    23    25    1
    14    25    26    1
    15    26    27   ar
    16    27    28   ar
    17    28    29   ar
    18    29    30    1
    19    29    31   ar
    20    31    32   ar
    21     1    10    1
    22    10    11    2
    23    10    12    2
    24    10    13    1
    25    13    14   ar
    26    14    15   ar
    27    15    16   ar
    28    16    17    1
    29    16    18   ar
    30    18    19   ar
    31     7     2   ar
    32    32    26   ar
    33    19    13   ar
    34    23    24    1
@<TRIPOS>MOLECULE
*****
 32 34 0 0 0
SMALL
GASTEIGER

@<TRIPOS>ATOM
      1 N          -4.7539  -18.1954   22.3677 N.pl3   1  UNL1       -0.1816
      2 C          -2.5846  -18.6667   21.0177 C.ar    1  UNL1       -0.0073
      3 C          -1.2616  -18.2051   20.4826 C.ar    1  UNL1       -0.0030
      4 C          -0.7846  -16.8107   20.7621 C.ar    1  UNL1       -0.0002
      5 C          -1.6307  -15.8779   21.5769 C.ar    1  UNL1        0.0013
      6 C          -2.9538  -16.3394   22.1120 C.ar    1  UNL1        0.0158
      7 C          -3.4307  -17.7338   21.8325 C.ar    1  UNL1        0.0654
      8 C          -3.5475  -20.4268   19.3670 C.3     1  UNL1        0.0051
      9 C          -3.0616  -20.0611   20.7382 C.3     1  UNL1        0.0277
     10 S          -5.4160  -17.4416   23.4828 S.O2    1  UNL1        0.0770
     11 O          -6.4797  -16.9732   22.5346 O.2     1  UNL1       -0.1497
     12 O          -4.3523  -17.9100   24.4310 O.2     1  UNL1       -0.1497
     13 C          -6.0781  -16.6878   24.5979 C.ar    1  UNL1        0.1254
     14 C          -7.5745  -16.6066   24.6634 C.ar    1  UNL1        0.0199
     15 C          -8.2366  -15.8529   25.7785 C.ar    1  UNL1       -0.0029
     16 C          -7.4023  -15.1803   26.8281 C.ar    1  UNL1       -0.0218
     17 C          -8.0644  -14.4265   27.9432 C.3     1  UNL1        0.0310
     18 C          -5.9060  -15.2614   26.7626 C.ar    1  UNL1       -0.0029
     19 C          -5.2439  -16.0152   25.6475 C.ar    1  UNL1        0.0199
     20 C          -5.4148  -19.4106   21.7879 C.3     1  UNL1        0.2002
     21 C          -6.7515  -19.2898   21.1180 C.2     1  UNL1        0.2448
     22 O          -6.8310  -18.9666   19.6554 O.2     1  UNL1       -0.2732
     23 N          -8.0087  -19.4921   21.9108 N.am    1  UNL1       -0.2990
     24 H          -7.9566  -19.7042   22.8707 H       1  UNL1        0.1498
     25 C          -9.3453  -19.3712   21.2409 C.3     1  UNL1        0.1164
     26 C         -10.5549  -18.9929   22.0433 C.ar    1  UNL1       -0.0025
     27 C         -11.7129  -18.3102   21.3778 C.ar    1  UNL1       -0.0018
     28 C         -12.9225  -17.9319   22.1802 C.ar    1  UNL1        0.0111
     29 C         -12.9740  -18.2362   23.6481 C.ar    1  UNL1        0.0577
     30 CL        -14.1836  -17.8579   24.4505 Cl      1  UNL1       -0.0822
     31 C         -11.8160  -18.9189   24.3136 C.ar    1  UNL1        0.0111
     32 C         -10.6065  -19.2972   23.5112 C.ar    1  UNL1       -0.0018
@<TRIPOS>BOND
     1     8     9    1
     2     9     2    1
     3     2     3   ar
     4     3     4   ar
     5     4     5   ar
     6     5     6   ar
     7     6     7   ar
     8     7     1    1
     9     1    20    1
    10    20    21    1
    11    21    22    2
    12    21    23   am
    13    23    25    1
    14    25    26    1
    15    26    27   ar
    16    27    28   ar
    17    28    29   ar
    18    29    30    1
    19    29    31   ar
    20    31    32   ar
    21     1    10    1
    22    10    11    2
    23    10    12    2
    24    10    13    1
    25    13    14   ar
    26    14    15   ar
    27    15    16   ar
    28    16    17    1
    29    16    18   ar
    30    18    19   ar
    31     7     2   ar
    32    32    26   ar
    33    19    13   ar
    34    23    24    1
@<TRIPOS>MOLECULE
*****
 32 34 0 0 0
SMALL
GASTEIGER

@<TRIPOS>ATOM
      1 N         -13.8426   -4.9927   18.0552 N.pl3   1  UNL1       -0.1816
      2 C         -11.4362   -4.5282   18.9177 C.ar    1  UNL1       -0.0073
      3 C         -10.0357   -4.9987   19.1765 C.ar    1  UNL1       -0.0030
      4 C          -9.6408   -6.4042   18.8318 C.ar    1  UNL1       -0.0002
      5 C         -10.6465   -7.3391   18.2282 C.ar    1  UNL1        0.0013
      6 C         -12.0471   -6.8686   17.9693 C.ar    1  UNL1        0.0158
      7 C         -12.4419   -5.4632   18.3141 C.ar    1  UNL1        0.0654
      8 C         -11.1192   -1.9662   18.6257 C.3     1  UNL1        0.0051
      9 C         -11.8310   -3.1228   19.2624 C.3     1  UNL1        0.0277
     10 S         -15.0073   -5.7888   18.5645 S.O2    1  UNL1        0.0770
     11 O         -14.7225   -5.3137   19.9585 O.2     1  UNL1       -0.1497
     12 O         -15.2922   -6.2639   17.1705 O.2     1  UNL1       -0.1497
     13 C         -16.1721   -6.5850   19.0738 C.ar    1  UNL1        0.1254
     14 C         -15.9858   -8.0216   19.4630 C.ar    1  UNL1        0.0199
     15 C         -17.1506   -8.8178   19.9724 C.ar    1  UNL1       -0.0029
     16 C         -18.5017   -8.1772   20.0925 C.ar    1  UNL1       -0.0218
     17 C         -19.6665   -8.9734   20.6019 C.3     1  UNL1        0.0310
     18 C         -18.6879   -6.7407   19.7034 C.ar    1  UNL1       -0.0029
     19 C         -17.5232   -5.9445   19.1940 C.ar    1  UNL1        0.0199
     20 C         -14.0783   -3.7261   17.2870 C.3     1  UNL1        0.2002
     21 C         -15.2295   -2.8341   17.6465 C.2     1  UNL1        0.2448
     22 O         -16.1521   -2.3319   16.5758 O.2     1  UNL1       -0.2732
     23 N         -15.4579   -2.4442   19.0768 N.am    1  UNL1       -0.2990
     24 H         -14.8523   -2.7738   19.7796 H       1  UNL1        0.1498
     25 C         -16.6090   -1.5522   19.4364 C.3     1  UNL1        0.1164
     26 C         -16.3748   -0.0934   19.6958 C.ar    1  UNL1       -0.0025
     27 C         -15.3298    0.6487   18.9166 C.ar    1  UNL1       -0.0018
     28 C         -15.0957    2.1074   19.1761 C.ar    1  UNL1        0.0111
     29 C         -15.9067    2.8240   20.2148 C.ar    1  UNL1        0.0577
     30 CL        -15.6726    4.2827   20.4742 Cl      1  UNL1       -0.0822
     31 C         -16.9517    2.0819   20.9939 C.ar    1  UNL1        0.0111
     32 C         -17.1858    0.6232   20.7345 C.ar    1  UNL1       -0.0018
@<TRIPOS>BOND
     1     8     9    1
     2     9     2    1
     3     2     3   ar
     4     3     4   ar
     5     4     5   ar
     6     5     6   ar
     7     6     7   ar
     8     7     1    1
     9     1    20    1
    10    20    21    1
    11    21    22    2
    12    21    23   am
    13    23    25    1
    14    25    26    1
    15    26    27   ar
    16    27    28   ar
    17    28    29   ar
    18    29    30    1
    19    29    31   ar
    20    31    32   ar
    21     1    10    1
    22    10    11    2
    23    10    12    2
    24    10    13    1
    25    13    14   ar
    26    14    15   ar
    27    15    16   ar
    28    16    17    1
    29    16    18   ar
    30    18    19   ar
    31     7     2   ar
    32    32    26   ar
    33    19    13   ar
    34    23    24    1
@<TRIPOS>MOLECULE
*****
 32 34 0 0 0
SMALL
GASTEIGER

@<TRIPOS>ATOM
      1 N           7.0421   -2.9004   20.8130 N.pl3   1  UNL1       -0.1816
      2 C           4.5150   -2.7260   20.2352 C.ar    1  UNL1       -0.0073
      3 C           3.2006   -2.0139   20.3579 C.ar    1  UNL1       -0.0030
      4 C           3.0986   -0.7641   21.1811 C.ar    1  UNL1       -0.0002
      5 C           4.3111   -0.2265   21.8816 C.ar    1  UNL1        0.0013
      6 C           5.6256   -0.9385   21.7589 C.ar    1  UNL1        0.0158
      7 C           5.7275   -2.1883   20.9357 C.ar    1  UNL1        0.0654
      8 C           3.5397   -5.0165   19.4919 C.3     1  UNL1        0.0051
      9 C           4.6170   -3.9758   19.4120 C.3     1  UNL1        0.0277
     10 S           7.4311   -3.9366   21.8255 S.O2    1  UNL1        0.0770
     11 O           7.4953   -2.8769   22.8852 O.2     1  UNL1       -0.1497
     12 O           7.3669   -4.9962   20.7657 O.2     1  UNL1       -0.1497
     13 C           7.8201   -4.9727   22.8379 C.ar    1  UNL1        0.1254
     14 C           7.3030   -4.8797   24.2429 C.ar    1  UNL1        0.0199
     15 C           7.6920   -5.9159   25.2554 C.ar    1  UNL1       -0.0029
     16 C           8.5982   -7.0450   24.8629 C.ar    1  UNL1       -0.0218
     17 C           8.9872   -8.0811   25.8753 C.3     1  UNL1        0.0310
     18 C           9.1153   -7.1379   23.4579 C.ar    1  UNL1       -0.0029
     19 C           8.7263   -6.1017   22.4455 C.ar    1  UNL1        0.0199
     20 C           7.9675   -2.5764   19.6779 C.3     1  UNL1        0.2002
     21 C           7.5209   -1.6477   18.5878 C.2     1  UNL1        0.2448
     22 O           6.8695   -2.1981   17.3538 O.2     1  UNL1       -0.2732
     23 N           7.7258   -0.1688   18.7317 N.am    1  UNL1       -0.2990
     24 H           8.1534    0.1924   19.5416 H       1  UNL1        0.1498
     25 C           7.2792    0.7598   17.6417 C.3     1  UNL1        0.1164
     26 C           6.0196    1.5577   17.8054 C.ar    1  UNL1       -0.0025
     27 C           6.0248    3.0322   17.5304 C.ar    1  UNL1       -0.0018
     28 C           4.7652    3.8300   17.6941 C.ar    1  UNL1        0.0111
     29 C           3.5004    3.1533   18.1327 C.ar    1  UNL1        0.0577
     30 CL          2.2407    3.9512   18.2964 Cl      1  UNL1       -0.0822
     31 C           3.4952    1.6788   18.4077 C.ar    1  UNL1        0.0111
     32 C           4.7548    0.8810   18.2440 C.ar    1  UNL1       -0.0018
@<TRIPOS>BOND
     1     8     9    1
     2     9     2    1
     3     2     3   ar
     4     3     4   ar
     5     4     5   ar
     6     5     6   ar
     7     6     7   ar
     8     7     1    1
     9     1    20    1
    10    20    21    1
    11    21    22    2
    12    21    23   am
    13    23    25    1
    14    25    26    1
    15    26    27   ar
    16    27    28   ar
    17    28    29   ar
    18    29    30    1
    19    29    31   ar
    20    31    32   ar
    21     1    10    1
    22    10    11    2
    23    10    12    2
    24    10    13    1
    25    13    14   ar
    26    14    15   ar
    27    15    16   ar
    28    16    17    1
    29    16    18   ar
    30    18    19   ar
    31     7     2   ar
    32    32    26   ar
    33    19    13   ar
    34    23    24    1
@<TRIPOS>MOLECULE
*****
 32 34 0 0 0
SMALL
GASTEIGER

@<TRIPOS>ATOM
      1 N           6.9226   -3.1676   22.0485 N.pl3   1  UNL1       -0.1816
      2 C           4.4413   -2.8276   21.3574 C.ar    1  UNL1       -0.0073
      3 C           3.3356   -3.0005   20.3587 C.ar    1  UNL1       -0.0030
      4 C           3.6054   -3.6863   19.0522 C.ar    1  UNL1       -0.0002
      5 C           4.9810   -4.1992   18.7445 C.ar    1  UNL1        0.0013
      6 C           6.0867   -4.0263   19.7432 C.ar    1  UNL1        0.0158
      7 C           5.8168   -3.3405   21.0497 C.ar    1  UNL1        0.0654
      8 C           3.3332   -0.8984   22.6992 C.3     1  UNL1        0.0051
      9 C           4.1714   -2.1418   22.6639 C.3     1  UNL1        0.0277
     10 S           7.2165   -4.2561   23.0379 S.O2    1  UNL1        0.0770
     11 O           6.7094   -3.3840   24.1479 O.2     1  UNL1       -0.1497
     12 O           7.7236   -5.1282   21.9278 O.2     1  UNL1       -0.1497
     13 C           7.5104   -5.3445   24.0273 C.ar    1  UNL1        0.1254
     14 C           8.3490   -6.5203   23.6217 C.ar    1  UNL1        0.0199
     15 C           8.6429   -7.6087   24.6111 C.ar    1  UNL1       -0.0029
     16 C           8.0982   -7.5214   26.0061 C.ar    1  UNL1       -0.0218
     17 C           8.3921   -8.6098   26.9955 C.3     1  UNL1        0.0310
     18 C           7.2597   -6.3457   26.4115 C.ar    1  UNL1       -0.0029
     19 C           6.9658   -5.2572   25.4221 C.ar    1  UNL1        0.0199
     20 C           7.7344   -1.9064   22.0578 C.3     1  UNL1        0.2002
     21 C           7.2123   -0.6734   21.3815 C.2     1  UNL1        0.2448
     22 O           6.6074    0.4304   22.1974 O.2     1  UNL1       -0.2732
     23 N           7.2952   -0.5442   19.8894 N.am    1  UNL1       -0.2990
     24 H           7.6923   -1.2686   19.3539 H       1  UNL1        0.1498
     25 C           6.7732    0.6887   19.2133 C.3     1  UNL1        0.1164
     26 C           5.3016    0.8427   18.9664 C.ar    1  UNL1       -0.0025
     27 C           4.5778   -0.1494   18.1052 C.ar    1  UNL1       -0.0018
     28 C           3.1063    0.0046   17.8583 C.ar    1  UNL1        0.0111
     29 C           2.3586    1.1508   18.4726 C.ar    1  UNL1        0.0577
     30 CL          0.8871    1.3047   18.2257 Cl      1  UNL1       -0.0822
     31 C           3.0825    2.1429   19.3338 C.ar    1  UNL1        0.0111
     32 C           4.5540    1.9889   19.5807 C.ar    1  UNL1       -0.0018
@<TRIPOS>BOND
     1     8     9    1
     2     9     2    1
     3     2     3   ar
     4     3     4   ar
     5     4     5   ar
     6     5     6   ar
     7     6     7   ar
     8     7     1    1
     9     1    20    1
    10    20    21    1
    11    21    22    2
    12    21    23   am
    13    23    25    1
    14    25    26    1
    15    26    27   ar
    16    27    28   ar
    17    28    29   ar
    18    29    30    1
    19    29    31   ar
    20    31    32   ar
    21     1    10    1
    22    10    11    2
    23    10    12    2
    24    10    13    1
    25    13    14   ar
    26    14    15   ar
    27    15    16   ar
    28    16    17    1
    29    16    18   ar
    30    18    19   ar
    31     7     2   ar
    32    32    26   ar
    33    19    13   ar
    34    23    24    1
@<TRIPOS>MOLECULE
*****
 32 34 0 0 0
SMALL
GASTEIGER

@<TRIPOS>ATOM
      1 N           4.2962   -2.1657   21.6237 N.pl3   1  UNL1       -0.1816
      2 C           4.9109   -2.6382   19.1440 C.ar    1  UNL1       -0.0073
      3 C           5.6939   -2.2946   17.9116 C.ar    1  UNL1       -0.0030
      4 C           6.6453   -1.1350   17.9265 C.ar    1  UNL1       -0.0002
      5 C           6.8136   -0.3190   19.1738 C.ar    1  UNL1        0.0013
      6 C           6.0306   -0.6626   20.4061 C.ar    1  UNL1        0.0158
      7 C           5.0792   -1.8222   20.3912 C.ar    1  UNL1        0.0654
      8 C           4.4751   -5.1880   18.9018 C.3     1  UNL1        0.0051
      9 C           3.9596   -3.7978   19.1291 C.3     1  UNL1        0.0277
     10 S           3.3381   -1.1690   22.2057 S.O2    1  UNL1        0.0770
     11 O           2.5118   -1.2334   20.9555 O.2     1  UNL1       -0.1497
     12 O           4.1645   -1.1047   23.4559 O.2     1  UNL1       -0.1497
     13 C           2.3801   -0.1723   22.7876 C.ar    1  UNL1        0.1254
     14 C           2.3355    0.0476   24.2708 C.ar    1  UNL1        0.0199
     15 C           1.3775    1.0443   24.8527 C.ar    1  UNL1       -0.0029
     16 C           0.4640    1.8211   23.9515 C.ar    1  UNL1       -0.0218
     17 C          -0.4941    2.8179   24.5335 C.3     1  UNL1        0.0310
     18 C           0.5085    1.6012   22.4684 C.ar    1  UNL1       -0.0029
     19 C           1.4666    0.6045   21.8865 C.ar    1  UNL1        0.0199
     20 C           4.4713   -3.5060   22.2742 C.3     1  UNL1        0.2002
     21 C           5.8066   -3.9001   22.8323 C.2     1  UNL1        0.2448
     22 O           6.7932   -4.6316   21.9712 O.2     1  UNL1       -0.2732
     23 N           6.1554   -3.5627   24.2516 N.am    1  UNL1       -0.2990
     24 H           5.5079   -3.0826   24.8169 H       1  UNL1        0.1498
     25 C           7.4908   -3.9568   24.8097 C.3     1  UNL1        0.1164
     26 C           7.6575   -5.2834   25.4898 C.ar    1  UNL1       -0.0025
     27 C           8.0091   -6.4996   24.6853 C.ar    1  UNL1       -0.0018
     28 C           8.1759   -7.8262   25.3653 C.ar    1  UNL1        0.0111
     29 C           7.9910   -7.9365   26.8498 C.ar    1  UNL1        0.0577
     30 CL          8.1577   -9.2631   27.5298 Cl      1  UNL1       -0.0822
     31 C           7.6393   -6.7203   27.6542 C.ar    1  UNL1        0.0111
     32 C           7.4726   -5.3938   26.9742 C.ar    1  UNL1       -0.0018
@<TRIPOS>BOND
     1     8     9    1
     2     9     2    1
     3     2     3   ar
     4     3     4   ar
     5     4     5   ar
     6     5     6   ar
     7     6     7   ar
     8     7     1    1
     9     1    20    1
    10    20    21    1
    11    21    22    2
    12    21    23   am
    13    23    25    1
    14    25    26    1
    15    26    27   ar
    16    27    28   ar
    17    28    29   ar
    18    29    30    1
    19    29    31   ar
    20    31    32   ar
    21     1    10    1
    22    10    11    2
    23    10    12    2
    24    10    13    1
    25    13    14   ar
    26    14    15   ar
    27    15    16   ar
    28    16    17    1
    29    16    18   ar
    30    18    19   ar
    31     7     2   ar
    32    32    26   ar
    33    19    13   ar
    34    23    24    1
@<TRIPOS>MOLECULE
*****
 32 34 0 0 0
SMALL
GASTEIGER

@<TRIPOS>ATOM
      1 N           6.4475   -3.1669   22.6210 N.pl3   1  UNL1       -0.1816
      2 C           6.4206   -2.9916   20.0290 C.ar    1  UNL1       -0.0073
      3 C           5.7645   -3.2901   18.7135 C.ar    1  UNL1       -0.0030
      4 C           4.4791   -4.0624   18.6746 C.ar    1  UNL1       -0.0002
      5 C           3.8499   -4.5362   19.9512 C.ar    1  UNL1        0.0013
      6 C           4.5060   -4.2377   21.2666 C.ar    1  UNL1        0.0158
      7 C           5.7913   -3.4654   21.3055 C.ar    1  UNL1        0.0654
      8 C           8.9722   -2.8447   19.5628 C.3     1  UNL1        0.0051
      9 C           7.7059   -2.2193   20.0679 C.3     1  UNL1        0.0277
     10 S           6.9070   -4.2906   23.5019 S.O2    1  UNL1        0.0770
     11 O           7.7574   -4.8187   22.3848 O.2     1  UNL1       -0.1497
     12 O           6.0566   -3.7626   24.6191 O.2     1  UNL1       -0.1497
     13 C           7.3665   -5.4144   24.3829 C.ar    1  UNL1        0.1254
     14 C           8.2076   -6.5181   23.8133 C.ar    1  UNL1        0.0199
     15 C           8.6672   -7.6418   24.6942 C.ar    1  UNL1       -0.0029
     16 C           8.2856   -7.6618   26.1448 C.ar    1  UNL1       -0.0218
     17 C           8.7451   -8.7855   27.0258 C.3     1  UNL1        0.0310
     18 C           7.4445   -6.5581   26.7143 C.ar    1  UNL1       -0.0029
     19 C           6.9850   -5.4344   25.8334 C.ar    1  UNL1        0.0199
     20 C           6.6440   -1.7448   23.0555 C.3     1  UNL1        0.2002
     21 C           5.4835   -0.7943   23.0589 C.2     1  UNL1        0.2448
     22 O           5.6827    0.6341   22.6467 O.2     1  UNL1       -0.2732
     23 N           4.1238   -1.2724   23.4745 N.am    1  UNL1       -0.2990
     24 H           3.9930   -2.2099   23.7451 H       1  UNL1        0.1498
     25 C           2.9634   -0.3219   23.4779 C.3     1  UNL1        0.1164
     26 C           2.3741    0.1470   22.1806 C.ar    1  UNL1       -0.0025
     27 C           1.8212    1.5367   22.0669 C.ar    1  UNL1       -0.0018
     28 C           1.2320    2.0055   20.7696 C.ar    1  UNL1        0.0111
     29 C           1.1958    1.0847   19.5860 C.ar    1  UNL1        0.0577
     30 CL          0.6065    1.5536   18.2887 Cl      1  UNL1       -0.0822
     31 C           1.7488   -0.3050   19.6997 C.ar    1  UNL1        0.0111
     32 C           2.3379   -0.7738   20.9970 C.ar    1  UNL1       -0.0018
@<TRIPOS>BOND
     1     8     9    1
     2     9     2    1
     3     2     3   ar
     4     3     4   ar
     5     4     5   ar
     6     5     6   ar
     7     6     7   ar
     8     7     1    1
     9     1    20    1
    10    20    21    1
    11    21    22    2
    12    21    23   am
    13    23    25    1
    14    25    26    1
    15    26    27   ar
    16    27    28   ar
    17    28    29   ar
    18    29    30    1
    19    29    31   ar
    20    31    32   ar
    21     1    10    1
    22    10    11    2
    23    10    12    2
    24    10    13    1
    25    13    14   ar
    26    14    15   ar
    27    15    16   ar
    28    16    17    1
    29    16    18   ar
    30    18    19   ar
    31     7     2   ar
    32    32    26   ar
    33    19    13   ar
    34    23    24    1
@<TRIPOS>MOLECULE
*****
 32 34 0 0 0
SMALL
GASTEIGER

@<TRIPOS>ATOM
      1 N          -4.8065  -19.2868   20.6529 N.pl3   1  UNL1       -0.1816
      2 C          -2.3673  -18.5541   21.1662 C.ar    1  UNL1       -0.0073
      3 C          -1.0438  -18.0259   20.6979 C.ar    1  UNL1       -0.0030
      4 C          -0.8359  -17.7022   19.2480 C.ar    1  UNL1       -0.0002
      5 C          -1.9516  -17.9067   18.2665 C.ar    1  UNL1        0.0013
      6 C          -3.2751  -18.4349   18.7348 C.ar    1  UNL1        0.0158
      7 C          -3.4829  -18.7586   20.1846 C.ar    1  UNL1        0.0654
      8 C          -2.4475  -17.7996   23.6510 C.3     1  UNL1        0.0051
      9 C          -2.5751  -18.8778   22.6160 C.3     1  UNL1        0.0277
     10 S          -5.6121  -18.5114   21.6528 S.O2    1  UNL1        0.0770
     11 O          -5.3018  -19.5396   22.7000 O.2     1  UNL1       -0.1497
     12 O          -5.9224  -17.4833   20.6056 O.2     1  UNL1       -0.1497
     13 C          -6.4177  -17.7361   22.6527 C.ar    1  UNL1        0.1254
     14 C          -5.7654  -16.6598   23.4688 C.ar    1  UNL1        0.0199
     15 C          -6.5710  -15.8844   24.4688 C.ar    1  UNL1       -0.0029
     16 C          -8.0290  -16.1854   24.6526 C.ar    1  UNL1       -0.0218
     17 C          -8.8346  -15.4101   25.6525 C.3     1  UNL1        0.0310
     18 C          -8.6813  -17.2617   23.8365 C.ar    1  UNL1       -0.0029
     19 C          -7.8757  -18.0371   22.8366 C.ar    1  UNL1        0.0199
     20 C          -5.3244  -20.5903   20.1213 C.3     1  UNL1        0.2002
     21 C          -6.7615  -20.7145   19.7096 C.2     1  UNL1        0.2448
     22 O          -7.3159  -22.0514   19.3156 O.2     1  UNL1       -0.2732
     23 N          -7.6440  -19.5018   19.6918 N.am    1  UNL1       -0.2990
     24 H          -7.2802  -18.6243   19.9504 H       1  UNL1        0.1498
     25 C          -9.0810  -19.6260   19.2801 C.3     1  UNL1        0.1164
     26 C         -10.1677  -19.1433   20.1946 C.ar    1  UNL1       -0.0025
     27 C         -10.9439  -17.9070   19.8499 C.ar    1  UNL1       -0.0018
     28 C         -12.0305  -17.4243   20.7644 C.ar    1  UNL1        0.0111
     29 C         -12.3409  -18.1780   22.0236 C.ar    1  UNL1        0.0577
     30 CL        -13.4275  -17.6953   22.9381 Cl      1  UNL1       -0.0822
     31 C         -11.5647  -19.4144   22.3683 C.ar    1  UNL1        0.0111
     32 C         -10.4781  -19.8970   21.4538 C.ar    1  UNL1       -0.0018
@<TRIPOS>BOND
     1     8     9    1
     2     9     2    1
     3     2     3   ar
     4     3     4   ar
     5     4     5   ar
     6     5     6   ar
     7     6     7   ar
     8     7     1    1
     9     1    20    1
    10    20    21    1
    11    21    22    2
    12    21    23   am
    13    23    25    1
    14    25    26    1
    15    26    27   ar
    16    27    28   ar
    17    28    29   ar
    18    29    30    1
    19    29    31   ar
    20    31    32   ar
    21     1    10    1
    22    10    11    2
    23    10    12    2
    24    10    13    1
    25    13    14   ar
    26    14    15   ar
    27    15    16   ar
    28    16    17    1
    29    16    18   ar
    30    18    19   ar
    31     7     2   ar
    32    32    26   ar
    33    19    13   ar
    34    23    24    1
