@<TRIPOS>MOLECULE
*****
 17 17 0 0 0
SMALL
GASTEIGER

@<TRIPOS>ATOM
      1 S          -9.1166  -16.7111   22.2403 S.O2    1  UNL1        0.1010
      2 O         -10.4689  -16.6121   22.8818 O.2     1  UNL1       -0.1463
      3 O          -7.7644  -16.8101   21.5987 O.2     1  UNL1       -0.1463
      4 C          -8.4728  -16.3166   23.5364 C.ar    1  UNL1        0.1292
      5 C          -7.1524  -15.6051   23.5319 C.ar    1  UNL1        0.0201
      6 C          -6.5086  -15.2106   24.8280 C.ar    1  UNL1       -0.0029
      7 C          -7.1853  -15.5277   26.1286 C.ar    1  UNL1       -0.0218
      8 C          -6.5415  -15.1332   27.4247 C.3     1  UNL1        0.0310
      9 C          -8.5057  -16.2392   26.1331 C.ar    1  UNL1       -0.0029
     10 C          -9.1495  -16.6337   24.8370 C.ar    1  UNL1        0.0201
     11 C         -10.1315  -18.5376   20.6963 C.2     1  UNL1        0.1527
     12 CL        -10.7753  -18.9321   19.4002 Cl      1  UNL1       -0.0630
     13 N          -9.7604  -17.1056   20.9441 N.2     1  UNL1       -0.1193
     14 C          -9.8587  -19.5753   21.7446 C.3     1  UNL1        0.1289
     15 C         -10.3588  -20.1263   24.2338 C.3     1  UNL1        0.0862
     16 N         -10.8444  -19.7990   22.8528 N.3     1  UNL1       -0.2905
     17 H         -11.3991  -18.9465   22.9301 H       1  UNL1        0.1237
@<TRIPOS>BOND
     1    15    16    1
     2    16    14    1
     3    14    11    1
     4    11    12    1
     5    11    13    2
     6    13     1    1
     7     1     2    2
     8     1     3    2
     9     1     4    1
    10     4     5   ar
    11     5     6   ar
    12     6     7   ar
    13     7     8    1
    14     7     9   ar
    15     9    10   ar
    16    10     4   ar
    17    16    17    1
@<TRIPOS>MOLECULE
*****
 17 17 0 0 0
SMALL
GASTEIGER

@<TRIPOS>ATOM
      1 S          -9.1443  -16.6986   22.2445 S.O2    1  UNL1        0.1010
      2 O          -7.7982  -16.7539   21.5851 O.2     1  UNL1       -0.1463
      3 O         -10.4904  -16.6433   22.9040 O.2     1  UNL1       -0.1463
      4 C          -8.4942  -16.3080   23.5387 C.ar    1  UNL1        0.1292
      5 C          -9.1558  -16.6450   24.8420 C.ar    1  UNL1        0.0201
      6 C          -8.5058  -16.2544   26.1362 C.ar    1  UNL1       -0.0029
      7 C          -7.1941  -15.5268   26.1270 C.ar    1  UNL1       -0.0218
      8 C          -6.5441  -15.1363   27.4212 C.3     1  UNL1        0.0310
      9 C          -6.5325  -15.1898   24.8237 C.ar    1  UNL1       -0.0029
     10 C          -7.1826  -15.5804   23.5296 C.ar    1  UNL1        0.0201
     11 C         -10.1399  -18.5250   20.6880 C.2     1  UNL1        0.1527
     12 CL        -10.7899  -18.9156   19.3938 Cl      1  UNL1       -0.0630
     13 N          -9.7943  -17.0892   20.9503 N.2     1  UNL1       -0.1193
     14 C          -9.8354  -19.5704   21.7198 C.3     1  UNL1        0.1289
     15 C         -10.3028  -20.1612   24.2063 C.3     1  UNL1        0.0862
     16 N         -10.8068  -19.8313   22.8325 N.3     1  UNL1       -0.2905
     17 H         -11.3824  -18.9941   22.9232 H       1  UNL1        0.1237
@<TRIPOS>BOND
     1    15    16    1
     2    16    14    1
     3    14    11    1
     4    11    12    1
     5    11    13    2
     6    13     1    1
     7     1     2    2
     8     1     3    2
     9     1     4    1
    10     4     5   ar
    11     5     6   ar
    12     6     7   ar
    13     7     8    1
    14     7     9   ar
    15     9    10   ar
    16    10     4   ar
    17    16    17    1
@<TRIPOS>MOLECULE
*****
 17 17 0 0 0
SMALL
GASTEIGER

@<TRIPOS>ATOM
      1 S          -8.3823  -18.1399   22.1885 S.O2    1  UNL1        0.1010
      2 O          -8.1039  -19.3695   23.0011 O.2     1  UNL1       -0.1463
      3 O          -8.6607  -16.9102   21.3759 O.2     1  UNL1       -0.1463
      4 C          -9.7936  -18.1238   22.6963 C.ar    1  UNL1        0.1292
      5 C         -10.1634  -18.9248   23.9094 C.ar    1  UNL1        0.0201
      6 C         -11.5748  -18.9088   24.4171 C.ar    1  UNL1       -0.0029
      7 C         -12.6163  -18.0918   23.7118 C.ar    1  UNL1       -0.0218
      8 C         -14.0277  -18.0757   24.2195 C.3     1  UNL1        0.0310
      9 C         -12.2466  -17.2908   22.4987 C.ar    1  UNL1       -0.0029
     10 C         -10.8352  -17.3068   21.9909 C.ar    1  UNL1        0.0201
     11 C          -6.6087  -19.0054   20.4988 C.2     1  UNL1        0.1527
     12 CL         -5.1973  -19.0214   19.9910 Cl      1  UNL1       -0.0630
     13 N          -6.9709  -18.1559   21.6808 N.2     1  UNL1       -0.1193
     14 C          -7.6578  -19.8389   19.8245 C.3     1  UNL1        0.1289
     15 C         -10.1805  -19.5949   19.2528 C.3     1  UNL1        0.0862
     16 N          -8.7549  -19.1769   19.0447 N.3     1  UNL1       -0.2905
     17 H          -8.7065  -18.1803   19.2562 H       1  UNL1        0.1237
@<TRIPOS>BOND
     1    15    16    1
     2    16    14    1
     3    14    11    1
     4    11    12    1
     5    11    13    2
     6    13     1    1
     7     1     2    2
     8     1     3    2
     9     1     4    1
    10     4     5   ar
    11     5     6   ar
    12     6     7   ar
    13     7     8    1
    14     7     9   ar
    15     9    10   ar
    16    10     4   ar
    17    16    17    1
@<TRIPOS>MOLECULE
*****
 17 17 0 0 0
SMALL
GASTEIGER

@<TRIPOS>ATOM
      1 S          -8.5287  -17.2624   22.3354 S.O2    1  UNL1        0.1010
      2 O          -8.2224  -15.9699   21.6386 O.2     1  UNL1       -0.1463
      3 O          -8.8350  -18.5549   23.0322 O.2     1  UNL1       -0.1463
      4 C          -8.0415  -16.6804   23.6292 C.ar    1  UNL1        0.1292
      5 C          -8.9460  -16.6490   24.8252 C.ar    1  UNL1        0.0201
      6 C          -8.4588  -16.0670   26.1190 C.ar    1  UNL1       -0.0029
      7 C          -7.0670  -15.5164   26.2167 C.ar    1  UNL1       -0.0218
      8 C          -6.5797  -14.9344   27.5105 C.3     1  UNL1        0.0310
      9 C          -6.1624  -15.5478   25.0206 C.ar    1  UNL1       -0.0029
     10 C          -6.6496  -16.1298   23.7268 C.ar    1  UNL1        0.0201
     11 C         -10.4849  -17.8770   20.7400 C.2     1  UNL1        0.1527
     12 CL        -10.9722  -18.4590   19.4462 Cl      1  UNL1       -0.0630
     13 N          -9.0160  -17.8444   21.0416 N.2     1  UNL1       -0.1193
     14 C         -11.4667  -17.3276   21.7321 C.3     1  UNL1        0.1289
     15 C         -13.2983  -17.9283   23.4742 C.3     1  UNL1        0.0862
     16 N         -11.9548  -18.1882   22.8596 N.3     1  UNL1       -0.2905
     17 H         -11.9702  -19.1472   22.5127 H       1  UNL1        0.1237
@<TRIPOS>BOND
     1    15    16    1
     2    16    14    1
     3    14    11    1
     4    11    12    1
     5    11    13    2
     6    13     1    1
     7     1     2    2
     8     1     3    2
     9     1     4    1
    10     4     5   ar
    11     5     6   ar
    12     6     7   ar
    13     7     8    1
    14     7     9   ar
    15     9    10   ar
    16    10     4   ar
    17    16    17    1
@<TRIPOS>MOLECULE
*****
 17 17 0 0 0
SMALL
GASTEIGER

@<TRIPOS>ATOM
      1 S          -6.2548  -19.0235   21.9971 S.O2    1  UNL1        0.1010
      2 O          -5.9467  -17.5911   22.3186 O.2     1  UNL1       -0.1463
      3 O          -6.5628  -20.4559   21.6757 O.2     1  UNL1       -0.1463
      4 C          -7.6672  -18.6447   21.6630 C.ar    1  UNL1        0.1292
      5 C          -8.3877  -19.3442   20.5488 C.ar    1  UNL1        0.0201
      6 C          -9.8001  -18.9654   20.2146 C.ar    1  UNL1       -0.0029
      7 C         -10.4920  -17.8872   20.9947 C.ar    1  UNL1       -0.0218
      8 C         -11.9044  -17.5085   20.6606 C.3     1  UNL1        0.0310
      9 C          -9.7715  -17.1877   22.1090 C.ar    1  UNL1       -0.0029
     10 C          -8.3591  -17.5665   22.4431 C.ar    1  UNL1        0.0201
     11 C          -3.8142  -19.4981   21.2433 C.2     1  UNL1        0.1527
     12 CL         -2.4018  -19.8769   21.5775 Cl      1  UNL1       -0.0630
     13 N          -4.8423  -19.4022   22.3313 N.2     1  UNL1       -0.1193
     14 C          -4.1984  -19.2152   19.8212 C.3     1  UNL1        0.1289
     15 C          -2.4888  -17.4973   18.8852 C.3     1  UNL1        0.0862
     16 N          -3.9022  -17.8748   19.2167 N.3     1  UNL1       -0.2905
     17 H          -4.4333  -17.8199   18.3476 H       1  UNL1        0.1237
@<TRIPOS>BOND
     1    15    16    1
     2    16    14    1
     3    14    11    1
     4    11    12    1
     5    11    13    2
     6    13     1    1
     7     1     2    2
     8     1     3    2
     9     1     4    1
    10     4     5   ar
    11     5     6   ar
    12     6     7   ar
    13     7     8    1
    14     7     9   ar
    15     9    10   ar
    16    10     4   ar
    17    16    17    1
@<TRIPOS>MOLECULE
*****
 17 17 0 0 0
SMALL
GASTEIGER

@<TRIPOS>ATOM
      1 S          -8.6135  -19.2412   21.0471 S.O2    1  UNL1        0.1010
      2 O          -8.4630  -18.9136   19.5911 O.2     1  UNL1       -0.1463
      3 O          -8.7640  -19.5687   22.5031 O.2     1  UNL1       -0.1463
      4 C          -7.1238  -19.3623   21.1738 C.ar    1  UNL1        0.1292
      5 C          -6.3960  -18.5898   22.2337 C.ar    1  UNL1        0.0201
      6 C          -4.9063  -18.7109   22.3605 C.ar    1  UNL1       -0.0029
      7 C          -4.1444  -19.6045   21.4273 C.ar    1  UNL1       -0.0218
      8 C          -2.6546  -19.7256   21.5540 C.3     1  UNL1        0.0310
      9 C          -4.8722  -20.3770   20.3674 C.ar    1  UNL1       -0.0029
     10 C          -6.3619  -20.2559   20.2407 C.ar    1  UNL1        0.0201
     11 C         -10.7825  -17.8275   21.2638 C.2     1  UNL1        0.1527
     12 CL        -12.2723  -17.7064   21.1371 Cl      1  UNL1       -0.0630
     13 N         -10.1032  -19.1200   20.9204 N.2     1  UNL1       -0.1193
     14 C          -9.9721  -16.6561   21.7339 C.3     1  UNL1        0.1289
     15 C          -9.2474  -16.3042   24.2040 C.3     1  UNL1        0.0862
     16 N         -10.2233  -16.0662   23.0900 N.3     1  UNL1       -0.2905
     17 H         -10.2862  -15.0559   22.9645 H       1  UNL1        0.1237
@<TRIPOS>BOND
     1    15    16    1
     2    16    14    1
     3    14    11    1
     4    11    12    1
     5    11    13    2
     6    13     1    1
     7     1     2    2
     8     1     3    2
     9     1     4    1
    10     4     5   ar
    11     5     6   ar
    12     6     7   ar
    13     7     8    1
    14     7     9   ar
    15     9    10   ar
    16    10     4   ar
    17    16    17    1
@<TRIPOS>MOLECULE
*****
 17 17 0 0 0
SMALL
GASTEIGER

@<TRIPOS>ATOM
      1 S          -5.8435  -19.4618   21.0831 S.O2    1  UNL1        0.1010
      2 O          -5.3931  -20.2853   22.2532 O.2     1  UNL1       -0.1463
      3 O          -6.2939  -18.6384   19.9130 O.2     1  UNL1       -0.1463
      4 C          -4.4273  -19.0310   20.8411 C.ar    1  UNL1        0.1292
      5 C          -3.5272  -18.7266   22.0018 C.ar    1  UNL1        0.0201
      6 C          -2.1109  -18.2958   21.7598 C.ar    1  UNL1       -0.0029
      7 C          -1.5947  -18.1693   20.3571 C.ar    1  UNL1       -0.0218
      8 C          -0.1784  -17.7385   20.1151 C.3     1  UNL1        0.0310
      9 C          -2.4948  -18.4737   19.1965 C.ar    1  UNL1       -0.0029
     10 C          -3.9110  -18.9045   19.4384 C.ar    1  UNL1        0.0201
     11 C          -8.1790  -19.0273   22.1350 C.2     1  UNL1        0.1527
     12 CL         -9.5953  -19.4581   22.3770 Cl      1  UNL1       -0.0630
     13 N          -7.2598  -19.8927   21.3251 N.2     1  UNL1       -0.1193
     14 C          -7.6820  -17.7309   22.7030 C.3     1  UNL1        0.1289
     15 C          -7.7977  -15.1380   22.5867 C.3     1  UNL1        0.0862
     16 N          -7.7861  -16.4701   21.8971 N.3     1  UNL1       -0.2905
     17 H          -6.9920  -16.4633   21.2570 H       1  UNL1        0.1237
@<TRIPOS>BOND
     1    15    16    1
     2    16    14    1
     3    14    11    1
     4    11    12    1
     5    11    13    2
     6    13     1    1
     7     1     2    2
     8     1     3    2
     9     1     4    1
    10     4     5   ar
    11     5     6   ar
    12     6     7   ar
    13     7     8    1
    14     7     9   ar
    15     9    10   ar
    16    10     4   ar
    17    16    17    1
@<TRIPOS>MOLECULE
*****
 17 17 0 0 0
SMALL
GASTEIGER

@<TRIPOS>ATOM
      1 S          -8.2571  -18.2367   21.6955 S.O2    1  UNL1        0.1010
      2 O          -7.8745  -16.7879   21.6282 O.2     1  UNL1       -0.1463
      3 O          -8.6397  -19.6855   21.7628 O.2     1  UNL1       -0.1463
      4 C          -6.8114  -18.6233   21.5928 C.ar    1  UNL1        0.1292
      5 C          -5.8547  -18.2457   22.6845 C.ar    1  UNL1        0.0201
      6 C          -4.4090  -18.6322   22.5818 C.ar    1  UNL1       -0.0029
      7 C          -3.9201  -19.3964   21.3872 C.ar    1  UNL1       -0.0218
      8 C          -2.4744  -19.7829   21.2844 C.3     1  UNL1        0.0310
      9 C          -4.8768  -19.7739   20.2954 C.ar    1  UNL1       -0.0029
     10 C          -6.3225  -19.3874   20.3982 C.ar    1  UNL1        0.0201
     11 C         -10.3305  -17.6455   23.1451 C.2     1  UNL1        0.1527
     12 CL        -11.7762  -17.2589   23.2479 Cl      1  UNL1       -0.0630
     13 N          -9.7028  -17.8501   21.7983 N.2     1  UNL1       -0.1193
     14 C          -9.5125  -17.8273   24.3893 C.3     1  UNL1        0.1289
     15 C         -10.1475  -20.3085   24.8263 C.3     1  UNL1        0.0862
     16 N          -9.8387  -18.9356   25.3460 N.3     1  UNL1       -0.2905
     17 H          -9.0380  -19.0305   25.9707 H       1  UNL1        0.1237
@<TRIPOS>BOND
     1    15    16    1
     2    16    14    1
     3    14    11    1
     4    11    12    1
     5    11    13    2
     6    13     1    1
     7     1     2    2
     8     1     3    2
     9     1     4    1
    10     4     5   ar
    11     5     6   ar
    12     6     7   ar
    13     7     8    1
    14     7     9   ar
    15     9    10   ar
    16    10     4   ar
    17    16    17    1
@<TRIPOS>MOLECULE
*****
 17 17 0 0 0
SMALL
GASTEIGER

@<TRIPOS>ATOM
      1 S          -7.0828  -19.0975   21.6755 S.O2    1  UNL1        0.1010
      2 O          -7.0534  -20.4351   22.3536 O.2     1  UNL1       -0.1463
      3 O          -7.1122  -17.7598   20.9974 O.2     1  UNL1       -0.1463
      4 C          -8.4597  -18.8527   22.2179 C.ar    1  UNL1        0.1292
      5 C          -8.6858  -17.7673   23.2281 C.ar    1  UNL1        0.0201
      6 C         -10.0627  -17.5226   23.7706 C.ar    1  UNL1       -0.0029
      7 C         -11.2135  -18.3633   23.3028 C.ar    1  UNL1       -0.0218
      8 C         -12.5904  -18.1186   23.8452 C.3     1  UNL1        0.0310
      9 C         -10.9873  -19.4488   22.2925 C.ar    1  UNL1       -0.0029
     10 C          -9.6104  -19.6935   21.7501 C.ar    1  UNL1        0.0201
     11 C          -4.5068  -18.8192   21.8669 C.2     1  UNL1        0.1527
     12 CL         -3.1298  -19.0639   21.3245 Cl      1  UNL1       -0.0630
     13 N          -5.7058  -19.3422   21.1331 N.2     1  UNL1       -0.1193
     14 C          -4.6845  -18.0514   23.1433 C.3     1  UNL1        0.1289
     15 C          -5.5218  -15.8654   24.2705 C.3     1  UNL1        0.0862
     16 N          -4.8940  -16.5667   23.1024 N.3     1  UNL1       -0.2905
     17 H          -3.9764  -16.1436   22.9634 H       1  UNL1        0.1237
@<TRIPOS>BOND
     1    15    16    1
     2    16    14    1
     3    14    11    1
     4    11    12    1
     5    11    13    2
     6    13     1    1
     7     1     2    2
     8     1     3    2
     9     1     4    1
    10     4     5   ar
    11     5     6   ar
    12     6     7   ar
    13     7     8    1
    14     7     9   ar
    15     9    10   ar
    16    10     4   ar
    17    16    17    1
