@<TRIPOS>MOLECULE
*****
 30 33 0 0 0
SMALL
GASTEIGER

@<TRIPOS>ATOM
      1 C          -3.9738  -17.2656   23.3010 C.3     1  UNL1        0.2506
      2 C          -8.1402  -20.7986   19.1285 C.2     1  UNL1        0.1350
      3 C          -8.9411  -19.7626   19.8600 C.2     1  UNL1        0.0171
      4 C          -8.2681  -18.8488   20.8408 C.3     1  UNL1        0.0750
      5 C          -6.7940  -18.9710   21.0901 C.2     1  UNL1        0.0663
      6 N          -6.1210  -18.0572   22.0709 N.2     1  UNL1       -0.2501
      7 C          -4.6469  -18.1794   22.3202 C.2     1  UNL1        0.1013
      8 C          -3.8458  -19.2154   21.5886 C.2     1  UNL1        0.0342
      9 C          -2.3718  -19.3375   21.8379 C.3     1  UNL1        0.0358
     10 C          -4.5189  -20.1292   20.6078 C.2     1  UNL1        0.1941
     11 O          -3.7179  -21.1651   19.8763 O.2     1  UNL1       -0.2868
     12 C          -5.9930  -20.0070   20.3586 C.2     1  UNL1        0.0555
     13 C          -6.6661  -20.9208   19.3778 C.2     1  UNL1        0.0409
     14 C          -9.1658  -21.2134   16.7778 C.3     1  UNL1        0.2525
     15 O          -8.8132  -21.7124   18.1477 O.2     1  UNL1       -0.4717
     16 O          -4.5450  -15.9055   23.5728 O.3     1  UNL1       -0.4689
     17 C          -5.6487  -15.7423   24.5754 C.ar    1  UNL1        0.1422
     18 C          -5.3220  -15.4430   26.0084 C.ar    1  UNL1        0.0371
     19 C          -6.4257  -15.2798   27.0110 C.ar    1  UNL1        0.0062
     20 C          -7.8561  -15.4159   26.5806 C.ar    1  UNL1        0.0371
     21 C          -8.1829  -15.7152   25.1476 C.ar    1  UNL1        0.1416
     22 C          -7.0792  -15.8784   24.1450 C.ar    1  UNL1        0.0738
     23 O          -9.6134  -15.8513   24.7171 O.3     1  UNL1       -0.4754
     24 C         -10.0760  -17.1062   24.0380 C.3     1  UNL1        0.2054
     25 C         -10.8935  -17.0222   22.7832 C.3     1  UNL1        0.0487
     26 C         -10.4406  -16.1502   21.6499 C.3     1  UNL1        0.0359
     27 C         -11.2582  -16.0663   20.3950 C.3     1  UNL1        0.1423
     28 O         -12.5286  -16.8544   20.2735 O.3     1  UNL1       -0.3538
     29 C         -12.9815  -17.7264   21.4068 C.3     1  UNL1        0.1423
     30 C         -12.1640  -17.8104   22.6616 C.3     1  UNL1        0.0359
@<TRIPOS>BOND
     1    14    15    1
     2    15     2    1
     3     2     3    2
     4     3     4    1
     5     4     5    1
     6     5     6    2
     7     6     7    1
     8     7     1    1
     9     1    16    1
    10    16    17    1
    11    17    18   ar
    12    18    19   ar
    13    19    20   ar
    14    20    21   ar
    15    21    23    1
    16    23    24    1
    17    24    25    1
    18    25    26    1
    19    26    27    1
    20    27    28    1
    21    28    29    1
    22    29    30    1
    23    21    22   ar
    24     7     8    2
    25     8     9    1
    26     8    10    1
    27    10    11    2
    28    10    12    1
    29    12    13    2
    30    13     2    1
    31    12     5    1
    32    22    17   ar
    33    30    25    1
@<TRIPOS>MOLECULE
*****
 30 33 0 0 0
SMALL
GASTEIGER

@<TRIPOS>ATOM
      1 C          -9.9280  -16.1445   24.4533 C.3     1  UNL1        0.2506
      2 C          -8.7886  -20.0275   18.8969 C.2     1  UNL1        0.1350
      3 C          -7.6014  -20.1158   19.8095 C.2     1  UNL1        0.0171
      4 C          -7.5919  -19.3569   21.1033 C.3     1  UNL1        0.0750
      5 C          -8.7695  -18.5096   21.4845 C.2     1  UNL1        0.0663
      6 N          -8.7600  -17.7507   22.7783 N.2     1  UNL1       -0.2501
      7 C          -9.9376  -16.9034   23.1595 C.2     1  UNL1        0.1013
      8 C         -11.1248  -16.8151   22.2469 C.2     1  UNL1        0.0342
      9 C         -12.3024  -15.9678   22.6281 C.3     1  UNL1        0.0358
     10 C         -11.1343  -17.5740   20.9531 C.2     1  UNL1        0.1941
     11 O         -12.3215  -17.4857   20.0405 O.2     1  UNL1       -0.2868
     12 C          -9.9566  -18.4213   20.5719 C.2     1  UNL1        0.0555
     13 C          -9.9662  -19.1803   19.2781 C.2     1  UNL1        0.0409
     14 C          -8.8644  -22.2849   17.6131 C.3     1  UNL1        0.2525
     15 O          -8.7981  -20.7865   17.6031 O.2     1  UNL1       -0.4717
     16 O          -8.9399  -15.0361   24.6654 O.3     1  UNL1       -0.4689
     17 C          -7.5196  -15.3564   25.0265 C.ar    1  UNL1        0.1422
     18 C          -7.1175  -15.4607   26.4678 C.ar    1  UNL1        0.0371
     19 C          -5.6973  -15.7810   26.8289 C.ar    1  UNL1        0.0062
     20 C          -4.6792  -15.9969   25.7487 C.ar    1  UNL1        0.0371
     21 C          -5.0813  -15.8926   24.3074 C.ar    1  UNL1        0.1416
     22 C          -6.5016  -15.5723   23.9463 C.ar    1  UNL1        0.0738
     23 O          -4.0633  -16.1086   23.2271 O.3     1  UNL1       -0.4754
     24 C          -3.5277  -17.4851   22.9656 C.3     1  UNL1        0.2054
     25 C          -3.0060  -17.8409   21.6050 C.3     1  UNL1        0.0487
     26 C          -3.6684  -18.9251   20.8077 C.3     1  UNL1        0.0359
     27 C          -3.1466  -19.2809   19.4471 C.3     1  UNL1        0.1423
     28 O          -1.9625  -18.5525   18.8838 O.3     1  UNL1       -0.3538
     29 C          -1.3001  -17.4683   19.6812 C.3     1  UNL1        0.1423
     30 C          -1.8218  -17.1125   21.0417 C.3     1  UNL1        0.0359
@<TRIPOS>BOND
     1    14    15    1
     2    15     2    1
     3     2     3    2
     4     3     4    1
     5     4     5    1
     6     5     6    2
     7     6     7    1
     8     7     1    1
     9     1    16    1
    10    16    17    1
    11    17    18   ar
    12    18    19   ar
    13    19    20   ar
    14    20    21   ar
    15    21    23    1
    16    23    24    1
    17    24    25    1
    18    25    26    1
    19    26    27    1
    20    27    28    1
    21    28    29    1
    22    29    30    1
    23    21    22   ar
    24     7     8    2
    25     8     9    1
    26     8    10    1
    27    10    11    2
    28    10    12    1
    29    12    13    2
    30    13     2    1
    31    12     5    1
    32    22    17   ar
    33    30    25    1
@<TRIPOS>MOLECULE
*****
 30 33 0 0 0
SMALL
GASTEIGER

@<TRIPOS>ATOM
      1 C           0.3664    0.5381   19.8126 C.3     1  UNL1        0.2506
      2 C           4.7036   -1.8988   24.5560 C.2     1  UNL1        0.1350
      3 C           4.8206   -2.7279   23.3115 C.2     1  UNL1        0.0171
      4 C           3.9766   -2.4063   22.1139 C.3     1  UNL1        0.0750
      5 C           3.0155   -1.2557   22.1609 C.2     1  UNL1        0.0663
      6 N           2.1715   -0.9341   20.9633 N.2     1  UNL1       -0.2501
      7 C           1.2104    0.2166   21.0102 C.2     1  UNL1        0.1013
      8 C           1.0933    1.0457   22.2548 C.2     1  UNL1        0.0342
      9 C           0.1322    2.1964   22.3017 C.3     1  UNL1        0.0358
     10 C           1.9373    0.7241   23.4524 C.2     1  UNL1        0.1941
     11 O           1.8203    1.5532   24.6969 O.2     1  UNL1       -0.2868
     12 C           2.8985   -0.4266   23.4054 C.2     1  UNL1        0.0555
     13 C           3.7425   -0.7482   24.6030 C.2     1  UNL1        0.0409
     14 C           6.6493   -1.2900   26.1664 C.3     1  UNL1        0.2525
     15 O           5.5476   -2.2204   25.7536 O.2     1  UNL1       -0.4717
     16 O           0.9754    0.5302   18.4419 O.3     1  UNL1       -0.4689
     17 C           2.3881    0.9951   18.2461 C.ar    1  UNL1        0.1422
     18 C           2.7649    2.4090   18.5760 C.ar    1  UNL1        0.0371
     19 C           4.1775    2.8739   18.3802 C.ar    1  UNL1        0.0062
     20 C           5.2134    1.9249   17.8545 C.ar    1  UNL1        0.0371
     21 C           4.8365    0.5110   17.5246 C.ar    1  UNL1        0.1416
     22 C           3.4239    0.0461   17.7204 C.ar    1  UNL1        0.0738
     23 O           5.8724   -0.4381   16.9988 O.3     1  UNL1       -0.4754
     24 C           6.8627   -1.0622   17.9368 C.3     1  UNL1        0.2054
     25 C           6.5019   -2.3100   18.6868 C.3     1  UNL1        0.0487
     26 C           5.2983   -3.1077   18.2807 C.3     1  UNL1        0.0359
     27 C           4.9375   -4.3556   19.0308 C.3     1  UNL1        0.1423
     28 O           5.7804   -4.8058   20.1871 O.3     1  UNL1       -0.3538
     29 C           6.9840   -4.0081   20.5932 C.3     1  UNL1        0.1423
     30 C           7.3448   -2.7602   19.8432 C.3     1  UNL1        0.0359
@<TRIPOS>BOND
     1    14    15    1
     2    15     2    1
     3     2     3    2
     4     3     4    1
     5     4     5    1
     6     5     6    2
     7     6     7    1
     8     7     1    1
     9     1    16    1
    10    16    17    1
    11    17    18   ar
    12    18    19   ar
    13    19    20   ar
    14    20    21   ar
    15    21    23    1
    16    23    24    1
    17    24    25    1
    18    25    26    1
    19    26    27    1
    20    27    28    1
    21    28    29    1
    22    29    30    1
    23    21    22   ar
    24     7     8    2
    25     8     9    1
    26     8    10    1
    27    10    11    2
    28    10    12    1
    29    12    13    2
    30    13     2    1
    31    12     5    1
    32    22    17   ar
    33    30    25    1
@<TRIPOS>MOLECULE
*****
 30 33 0 0 0
SMALL
GASTEIGER

@<TRIPOS>ATOM
      1 C           6.3958   -2.2031   18.0562 C.3     1  UNL1        0.2506
      2 C           5.4316   -1.7309   24.8457 C.2     1  UNL1        0.1350
      3 C           6.2984   -0.5937   24.3926 C.2     1  UNL1        0.0171
      4 C           6.6646   -0.4607   22.9441 C.3     1  UNL1        0.0750
      5 C           6.1640   -1.4649   21.9486 C.2     1  UNL1        0.0663
      6 N           6.5302   -1.3319   20.5001 N.2     1  UNL1       -0.2501
      7 C           6.0296   -2.3361   19.5047 C.2     1  UNL1        0.1013
      8 C           5.1627   -3.4734   19.9577 C.2     1  UNL1        0.0342
      9 C           4.6621   -4.4775   18.9623 C.3     1  UNL1        0.0358
     10 C           4.7965   -3.6064   21.4063 C.2     1  UNL1        0.1941
     11 O           3.9296   -4.7436   21.8593 O.2     1  UNL1       -0.2868
     12 C           5.2972   -2.6021   22.4017 C.2     1  UNL1        0.0555
     13 C           4.9309   -2.7351   23.8502 C.2     1  UNL1        0.0409
     14 C           3.7707   -1.2961   26.7957 C.3     1  UNL1        0.2525
     15 O           5.0653   -1.8639   26.2942 O.2     1  UNL1       -0.4717
     16 O           5.4810   -1.4772   17.1149 O.3     1  UNL1       -0.4689
     17 C           4.7041   -0.2865   17.5930 C.ar    1  UNL1        0.1422
     18 C           5.3855    1.0409   17.7474 C.ar    1  UNL1        0.0371
     19 C           4.6086    2.2316   18.2256 C.ar    1  UNL1        0.0062
     20 C           3.1504    2.0950   18.5493 C.ar    1  UNL1        0.0371
     21 C           2.4690    0.7677   18.3948 C.ar    1  UNL1        0.1416
     22 C           3.2459   -0.4230   17.9167 C.ar    1  UNL1        0.0738
     23 O           1.0107    0.6311   18.7186 O.3     1  UNL1       -0.4754
     24 C           0.5852   -0.0042   20.0091 C.3     1  UNL1        0.2054
     25 C           1.1281    0.5060   21.3110 C.3     1  UNL1        0.0487
     26 C           0.4425    1.6378   22.0174 C.3     1  UNL1        0.0359
     27 C           0.9853    2.1480   23.3193 C.3     1  UNL1        0.1423
     28 O           2.2138    1.5265   23.9148 O.3     1  UNL1       -0.3538
     29 C           2.8994    0.3948   23.2084 C.3     1  UNL1        0.1423
     30 C           2.3566   -0.1155   21.9065 C.3     1  UNL1        0.0359
@<TRIPOS>BOND
     1    14    15    1
     2    15     2    1
     3     2     3    2
     4     3     4    1
     5     4     5    1
     6     5     6    2
     7     6     7    1
     8     7     1    1
     9     1    16    1
    10    16    17    1
    11    17    18   ar
    12    18    19   ar
    13    19    20   ar
    14    20    21   ar
    15    21    23    1
    16    23    24    1
    17    24    25    1
    18    25    26    1
    19    26    27    1
    20    27    28    1
    21    28    29    1
    22    29    30    1
    23    21    22   ar
    24     7     8    2
    25     8     9    1
    26     8    10    1
    27    10    11    2
    28    10    12    1
    29    12    13    2
    30    13     2    1
    31    12     5    1
    32    22    17   ar
    33    30    25    1
@<TRIPOS>MOLECULE
*****
 30 33 0 0 0
SMALL
GASTEIGER

@<TRIPOS>ATOM
      1 C           6.3686   -0.2858   17.3736 C.3     1  UNL1        0.2506
      2 C           0.3441    1.3280   20.2633 C.2     1  UNL1        0.1350
      3 C           0.5445   -0.1565   20.3420 C.2     1  UNL1        0.0171
      4 C           1.7894   -0.7761   19.7798 C.3     1  UNL1        0.0750
      5 C           2.8341    0.0887   19.1389 C.2     1  UNL1        0.0663
      6 N           4.0790   -0.5310   18.5767 N.2     1  UNL1       -0.2501
      7 C           5.1237    0.3338   17.9358 C.2     1  UNL1        0.1013
      8 C           4.9233    1.8183   17.8570 C.2     1  UNL1        0.0342
      9 C           5.9680    2.6831   17.2160 C.3     1  UNL1        0.0358
     10 C           3.6783    2.4380   18.4192 C.2     1  UNL1        0.1941
     11 O           3.4780    3.9224   18.3404 O.2     1  UNL1       -0.2868
     12 C           2.6337    1.5731   19.0601 C.2     1  UNL1        0.0555
     13 C           1.3887    2.1927   19.6223 C.2     1  UNL1        0.0409
     14 C          -1.4885    3.1677   20.1805 C.3     1  UNL1        0.2525
     15 O          -0.9009    1.9476   20.8255 O.2     1  UNL1       -0.4717
     16 O           6.5653   -1.7711   17.4451 O.3     1  UNL1       -0.4689
     17 C           7.1677   -2.3898   18.6716 C.ar    1  UNL1        0.1422
     18 C           8.6499   -2.3266   18.8927 C.ar    1  UNL1        0.0371
     19 C           9.2524   -2.9452   20.1192 C.ar    1  UNL1        0.0062
     20 C           8.3725   -3.6270   21.1247 C.ar    1  UNL1        0.0371
     21 C           6.8903   -3.6903   20.9036 C.ar    1  UNL1        0.1416
     22 C           6.2879   -3.0716   19.6770 C.ar    1  UNL1        0.0738
     23 O           6.0104   -4.3721   21.9090 O.3     1  UNL1       -0.4754
     24 C           4.6416   -3.8306   22.1973 C.3     1  UNL1        0.2054
     25 C           4.4814   -2.6271   23.0782 C.3     1  UNL1        0.0487
     26 C           3.5789   -1.5050   22.6582 C.3     1  UNL1        0.0359
     27 C           3.4187   -0.3015   23.5392 C.3     1  UNL1        0.1423
     28 O           4.1610   -0.2202   24.8401 O.3     1  UNL1       -0.3538
     29 C           5.0634   -1.3423   25.2601 C.3     1  UNL1        0.1423
     30 C           5.2237   -2.5458   24.3792 C.3     1  UNL1        0.0359
@<TRIPOS>BOND
     1    14    15    1
     2    15     2    1
     3     2     3    2
     4     3     4    1
     5     4     5    1
     6     5     6    2
     7     6     7    1
     8     7     1    1
     9     1    16    1
    10    16    17    1
    11    17    18   ar
    12    18    19   ar
    13    19    20   ar
    14    20    21   ar
    15    21    23    1
    16    23    24    1
    17    24    25    1
    18    25    26    1
    19    26    27    1
    20    27    28    1
    21    28    29    1
    22    29    30    1
    23    21    22   ar
    24     7     8    2
    25     8     9    1
    26     8    10    1
    27    10    11    2
    28    10    12    1
    29    12    13    2
    30    13     2    1
    31    12     5    1
    32    22    17   ar
    33    30    25    1
@<TRIPOS>MOLECULE
*****
 30 33 0 0 0
SMALL
GASTEIGER

@<TRIPOS>ATOM
      1 C          -1.1697    2.8782   20.1862 C.3     1  UNL1        0.2506
      2 C          -7.1485    4.4954   23.1675 C.2     1  UNL1        0.1350
      3 C          -6.2029    3.9797   24.2115 C.2     1  UNL1        0.0171
      4 C          -4.8180    3.5531   23.8240 C.3     1  UNL1        0.0750
      5 C          -4.3787    3.6422   22.3926 C.2     1  UNL1        0.0663
      6 N          -2.9939    3.2156   22.0051 N.2     1  UNL1       -0.2501
      7 C          -2.5546    3.3048   20.5736 C.2     1  UNL1        0.1013
      8 C          -3.5002    3.8205   19.5296 C.2     1  UNL1        0.0342
      9 C          -3.0609    3.9096   18.0982 C.3     1  UNL1        0.0358
     10 C          -4.8850    4.2471   19.9171 C.2     1  UNL1        0.1941
     11 O          -5.8306    4.7628   18.8732 O.2     1  UNL1       -0.2868
     12 C          -5.3243    4.1579   21.3486 C.2     1  UNL1        0.0555
     13 C          -6.7092    4.5845   21.7361 C.2     1  UNL1        0.0409
     14 C          -8.7333    5.8705   24.6996 C.3     1  UNL1        0.2525
     15 O          -8.5334    4.9220   23.5550 O.2     1  UNL1       -0.4717
     16 O          -0.7357    1.4580   20.3973 O.3     1  UNL1       -0.4689
     17 C           0.5747    0.9838   19.8425 C.ar    1  UNL1        0.1422
     18 C           1.3631    1.8673   18.9218 C.ar    1  UNL1        0.0371
     19 C           2.6736    1.3931   18.3670 C.ar    1  UNL1        0.0062
     20 C           3.1957    0.0354   18.7329 C.ar    1  UNL1        0.0371
     21 C           2.4073   -0.8481   19.6536 C.ar    1  UNL1        0.1416
     22 C           1.0968   -0.3739   20.2084 C.ar    1  UNL1        0.0738
     23 O           2.9294   -2.2059   20.0196 O.3     1  UNL1       -0.4754
     24 C           3.8317   -2.9423   19.0743 C.3     1  UNL1        0.2054
     25 C           5.3123   -2.9629   19.3135 C.3     1  UNL1        0.0487
     26 C           6.2246   -2.1549   18.4389 C.3     1  UNL1        0.0359
     27 C           7.7054   -2.1755   18.6782 C.3     1  UNL1        0.1423
     28 O           8.2737   -3.0041   19.7919 O.3     1  UNL1       -0.3538
     29 C           7.3614   -3.8120   20.6665 C.3     1  UNL1        0.1423
     30 C           5.8807   -3.7915   20.4273 C.3     1  UNL1        0.0359
@<TRIPOS>BOND
     1    14    15    1
     2    15     2    1
     3     2     3    2
     4     3     4    1
     5     4     5    1
     6     5     6    2
     7     6     7    1
     8     7     1    1
     9     1    16    1
    10    16    17    1
    11    17    18   ar
    12    18    19   ar
    13    19    20   ar
    14    20    21   ar
    15    21    23    1
    16    23    24    1
    17    24    25    1
    18    25    26    1
    19    26    27    1
    20    27    28    1
    21    28    29    1
    22    29    30    1
    23    21    22   ar
    24     7     8    2
    25     8     9    1
    26     8    10    1
    27    10    11    2
    28    10    12    1
    29    12    13    2
    30    13     2    1
    31    12     5    1
    32    22    17   ar
    33    30    25    1
@<TRIPOS>MOLECULE
*****
 30 33 0 0 0
SMALL
GASTEIGER

@<TRIPOS>ATOM
      1 C           0.9048    0.2144   19.3993 C.3     1  UNL1        0.2506
      2 C           0.8913    2.3310   25.9391 C.2     1  UNL1        0.1350
      3 C          -0.1500    3.0930   25.1743 C.2     1  UNL1        0.0171
      4 C          -0.3556    2.8220   23.7133 C.3     1  UNL1        0.0750
      5 C           0.4802    1.7891   23.0172 C.2     1  UNL1        0.0663
      6 N           0.2746    1.5182   21.5563 N.2     1  UNL1       -0.2501
      7 C           1.1104    0.4853   20.8602 C.2     1  UNL1        0.1013
      8 C           2.1517   -0.2767   21.6250 C.2     1  UNL1        0.0342
      9 C           2.9875   -1.3096   20.9290 C.3     1  UNL1        0.0358
     10 C           2.3573   -0.0058   23.0860 C.2     1  UNL1        0.1941
     11 O           3.3986   -0.7678   23.8508 O.2     1  UNL1       -0.2868
     12 C           1.5215    1.0272   23.7821 C.2     1  UNL1        0.0555
     13 C           1.7270    1.2981   25.2430 C.2     1  UNL1        0.0409
     14 C           0.0865    2.1246   28.4008 C.3     1  UNL1        0.2525
     15 O           1.0968    2.6019   27.4001 O.2     1  UNL1       -0.4717
     16 O           1.5539    1.0965   18.3743 O.3     1  UNL1       -0.4689
     17 C           3.0487    1.1334   18.2550 C.ar    1  UNL1        0.1422
     18 C           3.8015    2.3718   18.6416 C.ar    1  UNL1        0.0371
     19 C           5.2963    2.4087   18.5223 C.ar    1  UNL1        0.0062
     20 C           6.0383    1.2072   18.0165 C.ar    1  UNL1        0.0371
     21 C           5.2854   -0.0312   17.6300 C.ar    1  UNL1        0.1416
     22 C           3.7906   -0.0681   17.7492 C.ar    1  UNL1        0.0738
     23 O           6.0273   -1.2328   17.1241 O.3     1  UNL1       -0.4754
     24 C           6.7648   -2.1180   18.0846 C.3     1  UNL1        0.2054
     25 C           6.0038   -2.9472   19.0761 C.3     1  UNL1        0.0487
     26 C           4.8527   -3.7936   18.6193 C.3     1  UNL1        0.0359
     27 C           4.0916   -4.6229   19.6109 C.3     1  UNL1        0.1423
     28 O           4.4816   -4.6057   21.0592 O.3     1  UNL1       -0.3538
     29 C           5.6327   -3.7593   21.5160 C.3     1  UNL1        0.1423
     30 C           6.3938   -2.9301   20.5245 C.3     1  UNL1        0.0359
@<TRIPOS>BOND
     1    14    15    1
     2    15     2    1
     3     2     3    2
     4     3     4    1
     5     4     5    1
     6     5     6    2
     7     6     7    1
     8     7     1    1
     9     1    16    1
    10    16    17    1
    11    17    18   ar
    12    18    19   ar
    13    19    20   ar
    14    20    21   ar
    15    21    23    1
    16    23    24    1
    17    24    25    1
    18    25    26    1
    19    26    27    1
    20    27    28    1
    21    28    29    1
    22    29    30    1
    23    21    22   ar
    24     7     8    2
    25     8     9    1
    26     8    10    1
    27    10    11    2
    28    10    12    1
    29    12    13    2
    30    13     2    1
    31    12     5    1
    32    22    17   ar
    33    30    25    1
@<TRIPOS>MOLECULE
*****
 30 33 0 0 0
SMALL
GASTEIGER

@<TRIPOS>ATOM
      1 C           6.6579   -1.9667   23.0315 C.3     1  UNL1        0.2506
      2 C           7.8093   -7.7933   26.4921 C.2     1  UNL1        0.1350
      3 C           7.1216   -6.8132   27.3957 C.2     1  UNL1        0.0171
      4 C           6.7538   -5.4519   26.8843 C.3     1  UNL1        0.0750
      5 C           7.0737   -5.0706   25.4693 C.2     1  UNL1        0.0663
      6 N           6.7058   -3.7093   24.9579 N.2     1  UNL1       -0.2501
      7 C           7.0257   -3.3280   23.5429 C.2     1  UNL1        0.1013
      8 C           7.7134   -4.3081   22.6392 C.2     1  UNL1        0.0342
      9 C           8.0333   -3.9269   21.2242 C.3     1  UNL1        0.0358
     10 C           8.0813   -5.6694   23.1506 C.2     1  UNL1        0.1941
     11 O           8.7689   -6.6495   22.2470 O.2     1  UNL1       -0.2868
     12 C           7.7613   -6.0507   24.5657 C.2     1  UNL1        0.0555
     13 C           8.1292   -7.4120   25.0771 C.2     1  UNL1        0.0409
     14 C           9.5355   -9.3923   27.5937 C.3     1  UNL1        0.2525
     15 O           8.1771   -9.1546   27.0035 O.2     1  UNL1       -0.4717
     16 O           5.3020   -1.7307   22.4351 O.3     1  UNL1       -0.4689
     17 C           4.8895   -2.4673   21.1951 C.ar    1  UNL1        0.1422
     18 C           4.3017   -3.8432   21.3007 C.ar    1  UNL1        0.0371
     19 C           3.8892   -4.5797   20.0608 C.ar    1  UNL1        0.0062
     20 C           4.0646   -3.9403   18.7153 C.ar    1  UNL1        0.0371
     21 C           4.6525   -2.5644   18.6098 C.ar    1  UNL1        0.1416
     22 C           5.0650   -1.8279   19.8497 C.ar    1  UNL1        0.0738
     23 O           4.8280   -1.9250   17.2642 O.3     1  UNL1       -0.4754
     24 C           3.8615   -0.8756   16.8008 C.3     1  UNL1        0.2054
     25 C           3.5830    0.3204   17.6622 C.3     1  UNL1        0.0487
     26 C           2.2236    0.5083   18.2679 C.3     1  UNL1        0.0359
     27 C           1.9452    1.7043   19.1293 C.3     1  UNL1        0.1423
     28 O           3.0260    2.7125   19.3849 O.3     1  UNL1       -0.3538
     29 C           4.3854    2.5246   18.7792 C.3     1  UNL1        0.1423
     30 C           4.6639    1.3286   17.9178 C.3     1  UNL1        0.0359
@<TRIPOS>BOND
     1    14    15    1
     2    15     2    1
     3     2     3    2
     4     3     4    1
     5     4     5    1
     6     5     6    2
     7     6     7    1
     8     7     1    1
     9     1    16    1
    10    16    17    1
    11    17    18   ar
    12    18    19   ar
    13    19    20   ar
    14    20    21   ar
    15    21    23    1
    16    23    24    1
    17    24    25    1
    18    25    26    1
    19    26    27    1
    20    27    28    1
    21    28    29    1
    22    29    30    1
    23    21    22   ar
    24     7     8    2
    25     8     9    1
    26     8    10    1
    27    10    11    2
    28    10    12    1
    29    12    13    2
    30    13     2    1
    31    12     5    1
    32    22    17   ar
    33    30    25    1
@<TRIPOS>MOLECULE
*****
 30 33 0 0 0
SMALL
GASTEIGER

@<TRIPOS>ATOM
      1 C           7.5097   -3.1341   21.7243 C.3     1  UNL1        0.2506
      2 C           1.9901   -0.0713   19.0036 C.2     1  UNL1        0.1350
      3 C           1.6995   -0.4289   20.4310 C.2     1  UNL1        0.0171
      4 C           2.7453   -1.1129   21.2607 C.3     1  UNL1        0.0750
      5 C           4.0817   -1.4394   20.6628 C.2     1  UNL1        0.0663
      6 N           5.1275   -2.1235   21.4925 N.2     1  UNL1       -0.2501
      7 C           6.4639   -2.4500   20.8947 C.2     1  UNL1        0.1013
      8 C           6.7545   -2.0924   19.4671 C.2     1  UNL1        0.0342
      9 C           8.0909   -2.4189   18.8693 C.3     1  UNL1        0.0358
     10 C           5.7087   -1.4084   18.6375 C.2     1  UNL1        0.1941
     11 O           5.9993   -1.0508   17.2100 O.2     1  UNL1       -0.2868
     12 C           4.3723   -1.0819   19.2354 C.2     1  UNL1        0.0555
     13 C           3.3265   -0.3978   18.4058 C.2     1  UNL1        0.0409
     14 C           0.5775    2.0395   18.4566 C.3     1  UNL1        0.2525
     15 O           0.9442    0.6128   18.1739 O.2     1  UNL1       -0.4717
     16 O           7.1744   -3.6183   23.1038 O.3     1  UNL1       -0.4689
     17 C           7.6446   -4.9677   23.5600 C.ar    1  UNL1        0.1422
     18 C           8.5483   -5.7829   22.6832 C.ar    1  UNL1        0.0371
     19 C           9.0185   -7.1323   23.1394 C.ar    1  UNL1        0.0062
     20 C           8.5849   -7.6664   24.4723 C.ar    1  UNL1        0.0371
     21 C           7.6812   -6.8512   25.3490 C.ar    1  UNL1        0.1416
     22 C           7.2111   -5.5018   24.8929 C.ar    1  UNL1        0.0738
     23 O           7.2476   -7.3854   26.6820 O.3     1  UNL1       -0.4754
     24 C           8.2317   -7.4737   27.8107 C.3     1  UNL1        0.2054
     25 C           8.0972   -6.5642   28.9958 C.3     1  UNL1        0.0487
     26 C           9.0688   -6.6667   30.1340 C.3     1  UNL1        0.0359
     27 C           8.9343   -5.7571   31.3192 C.3     1  UNL1        0.1423
     28 O           7.8281   -4.7452   31.3662 O.3     1  UNL1       -0.3538
     29 C           6.8564   -4.6427   30.2281 C.3     1  UNL1        0.1423
     30 C           6.9910   -5.5522   29.0429 C.3     1  UNL1        0.0359
@<TRIPOS>BOND
     1    14    15    1
     2    15     2    1
     3     2     3    2
     4     3     4    1
     5     4     5    1
     6     5     6    2
     7     6     7    1
     8     7     1    1
     9     1    16    1
    10    16    17    1
    11    17    18   ar
    12    18    19   ar
    13    19    20   ar
    14    20    21   ar
    15    21    23    1
    16    23    24    1
    17    24    25    1
    18    25    26    1
    19    26    27    1
    20    27    28    1
    21    28    29    1
    22    29    30    1
    23    21    22   ar
    24     7     8    2
    25     8     9    1
    26     8    10    1
    27    10    11    2
    28    10    12    1
    29    12    13    2
    30    13     2    1
    31    12     5    1
    32    22    17   ar
    33    30    25    1
