@<TRIPOS>MOLECULE
*****
 19 20 0 0 0
SMALL
GASTEIGER

@<TRIPOS>ATOM
      1 C         -11.1177  -16.9676   22.5801 C.ar    1  UNL1        0.1858
      2 N         -10.3306  -16.8727   23.8535 N.ar    1  UNL1       -0.2022
      3 C          -9.0202  -16.2133   23.5404 C.ar    1  UNL1        0.2314
      4 O          -8.9974  -15.9006   22.0736 O.2     1  UNL1       -0.4213
      5 C         -10.2937  -16.3667   21.4800 C.ar    1  UNL1        0.2169
      6 N         -10.6955  -16.2521   20.0394 N.pl3   1  UNL1       -0.3273
      7 H         -10.0826  -15.8397   19.3887 H       1  UNL1        0.1452
      8 H         -11.5722  -16.5893   19.7446 H       1  UNL1        0.1452
      9 C          -7.9248  -15.9184   24.5219 C.ar    1  UNL1        0.0536
     10 C          -8.2314  -15.8460   25.9885 C.ar    1  UNL1        0.0047
     11 C          -7.1360  -15.5511   26.9699 C.ar    1  UNL1        0.0002
     12 C          -5.7342  -15.3286   26.4848 C.ar    1  UNL1        0.0000
     13 C          -5.4276  -15.4010   25.0183 C.ar    1  UNL1        0.0002
     14 C          -6.5230  -15.6959   24.0368 C.ar    1  UNL1        0.0047
     15 N         -13.2410  -18.0192   23.6458 N.am    1  UNL1       -0.3239
     16 C         -12.4881  -17.5593   22.4327 C.2     1  UNL1        0.2650
     17 O         -13.1056  -17.6912   21.0721 O.2     1  UNL1       -0.2686
     18 H         -14.1405  -18.4075   23.5490 H       1  UNL1        0.1453
     19 H         -12.8357  -17.9326   24.5388 H       1  UNL1        0.1453
@<TRIPOS>BOND
     1    15    16   am
     2    16    17    2
     3    16     1    1
     4     1     2   ar
     5     2     3   ar
     6     3     9    1
     7     9    10   ar
     8    10    11   ar
     9    11    12   ar
    10    12    13   ar
    11    13    14   ar
    12     3     4   ar
    13     4     5   ar
    14     5     6    1
    15     5     1   ar
    16    14     9   ar
    17    15    18    1
    18    15    19    1
    19     6     7    1
    20     6     8    1
@<TRIPOS>MOLECULE
*****
 19 20 0 0 0
SMALL
GASTEIGER

@<TRIPOS>ATOM
      1 C          -9.0700  -17.4943   22.0239 C.ar    1  UNL1        0.1858
      2 N          -7.6554  -17.4623   21.5260 N.ar    1  UNL1       -0.2022
      3 C          -7.0111  -18.7709   21.8760 C.ar    1  UNL1        0.2314
      4 O          -8.0275  -19.6117   22.5902 O.2     1  UNL1       -0.4213
      5 C          -9.2999  -18.8227   22.6816 C.ar    1  UNL1        0.2169
      6 N         -10.5780  -19.2815   23.3189 N.pl3   1  UNL1       -0.3273
      7 H         -10.6312  -20.1759   23.7269 H       1  UNL1        0.1452
      8 H         -11.3636  -18.6883   23.3290 H       1  UNL1        0.1452
      9 C          -5.5984  -19.1689   21.5662 C.ar    1  UNL1        0.0536
     10 C          -5.3034  -20.0089   20.3590 C.ar    1  UNL1        0.0047
     11 C          -3.8907  -20.4068   20.0493 C.ar    1  UNL1        0.0002
     12 C          -2.7730  -19.9648   20.9467 C.ar    1  UNL1        0.0000
     13 C          -3.0680  -19.1248   22.1539 C.ar    1  UNL1        0.0002
     14 C          -4.4807  -18.7268   22.4636 C.ar    1  UNL1        0.0047
     15 N          -9.8485  -15.2834   20.9033 N.am    1  UNL1       -0.3239
     16 C         -10.0776  -16.3915   21.8879 C.2     1  UNL1        0.2650
     17 O         -11.3145  -16.3970   22.7366 O.2     1  UNL1       -0.2686
     18 H         -10.5099  -14.5596   20.8140 H       1  UNL1        0.1453
     19 H          -9.0367  -15.2798   20.3463 H       1  UNL1        0.1453
@<TRIPOS>BOND
     1    15    16   am
     2    16    17    2
     3    16     1    1
     4     1     2   ar
     5     2     3   ar
     6     3     9    1
     7     9    10   ar
     8    10    11   ar
     9    11    12   ar
    10    12    13   ar
    11    13    14   ar
    12     3     4   ar
    13     4     5   ar
    14     5     6    1
    15     5     1   ar
    16    14     9   ar
    17    15    18    1
    18    15    19    1
    19     6     7    1
    20     6     8    1
@<TRIPOS>MOLECULE
*****
 19 20 0 0 0
SMALL
GASTEIGER

@<TRIPOS>ATOM
      1 C         -10.7320  -16.4993   21.9469 C.ar    1  UNL1        0.1858
      2 N          -9.4127  -15.9104   22.3503 N.ar    1  UNL1       -0.2022
      3 C          -9.1006  -16.3808   23.7400 C.ar    1  UNL1        0.2314
      4 O         -10.2269  -17.2604   24.1956 O.2     1  UNL1       -0.4213
      5 C         -11.2352  -17.3337   23.0874 C.ar    1  UNL1        0.2169
      6 N         -12.5209  -18.1058   23.1149 N.pl3   1  UNL1       -0.3273
      7 H         -12.7654  -18.6266   23.9138 H       1  UNL1        0.1452
      8 H         -13.1203  -18.0919   22.3340 H       1  UNL1        0.1452
      9 C          -7.8768  -16.0326   24.5346 C.ar    1  UNL1        0.0536
     10 C          -6.5542  -15.8758   23.8448 C.ar    1  UNL1        0.0047
     11 C          -5.3305  -15.5277   24.6394 C.ar    1  UNL1        0.0002
     12 C          -5.4296  -15.3363   26.1239 C.ar    1  UNL1        0.0000
     13 C          -6.7523  -15.4930   26.8137 C.ar    1  UNL1        0.0002
     14 C          -7.9759  -15.8412   26.0190 C.ar    1  UNL1        0.0047
     15 N         -10.7125  -15.5999   19.5096 N.am    1  UNL1       -0.3239
     16 C         -11.4262  -16.2906   20.6337 C.2     1  UNL1        0.2650
     17 O         -12.8340  -16.7725   20.4447 O.2     1  UNL1       -0.2686
     18 H         -11.1682  -15.4629   18.6477 H       1  UNL1        0.1453
     19 H          -9.7885  -15.2836   19.6337 H       1  UNL1        0.1453
@<TRIPOS>BOND
     1    15    16   am
     2    16    17    2
     3    16     1    1
     4     1     2   ar
     5     2     3   ar
     6     3     9    1
     7     9    10   ar
     8    10    11   ar
     9    11    12   ar
    10    12    13   ar
    11    13    14   ar
    12     3     4   ar
    13     4     5   ar
    14     5     6    1
    15     5     1   ar
    16    14     9   ar
    17    15    18    1
    18    15    19    1
    19     6     7    1
    20     6     8    1
@<TRIPOS>MOLECULE
*****
 19 20 0 0 0
SMALL
GASTEIGER

@<TRIPOS>ATOM
      1 C          -9.4999  -18.4239   23.0533 C.ar    1  UNL1        0.1858
      2 N          -8.2903  -19.2985   22.9059 N.ar    1  UNL1       -0.2022
      3 C          -7.2984  -18.5762   22.0431 C.ar    1  UNL1        0.2314
      4 O          -7.8950  -17.2552   21.6572 O.2     1  UNL1       -0.4213
      5 C          -9.2556  -17.1610   22.2815 C.ar    1  UNL1        0.2169
      6 N         -10.2053  -16.0067   22.1562 N.pl3   1  UNL1       -0.3273
      7 H          -9.9532  -15.2174   21.6246 H       1  UNL1        0.1452
      8 H         -11.0807  -16.0384   22.6055 H       1  UNL1        0.1452
      9 C          -5.9470  -19.0856   21.6373 C.ar    1  UNL1        0.0536
     10 C          -4.7329  -18.7064   22.4323 C.ar    1  UNL1        0.0047
     11 C          -3.3817  -19.2157   22.0265 C.ar    1  UNL1        0.0002
     12 C          -3.2446  -20.1043   20.8258 C.ar    1  UNL1        0.0000
     13 C          -4.4588  -20.4835   20.0309 C.ar    1  UNL1        0.0002
     14 C          -5.8100  -19.9742   20.4366 C.ar    1  UNL1        0.0047
     15 N         -10.6720  -19.7485   24.9564 N.am    1  UNL1       -0.3239
     16 C         -10.7367  -18.7541   23.8352 C.2     1  UNL1        0.2650
     17 O         -12.0381  -18.0899   23.4959 O.2     1  UNL1       -0.2686
     18 H         -11.4838  -19.9653   25.4695 H       1  UNL1        0.1453
     19 H          -9.8179  -20.1845   25.1791 H       1  UNL1        0.1453
@<TRIPOS>BOND
     1    15    16   am
     2    16    17    2
     3    16     1    1
     4     1     2   ar
     5     2     3   ar
     6     3     9    1
     7     9    10   ar
     8    10    11   ar
     9    11    12   ar
    10    12    13   ar
    11    13    14   ar
    12     3     4   ar
    13     4     5   ar
    14     5     6    1
    15     5     1   ar
    16    14     9   ar
    17    15    18    1
    18    15    19    1
    19     6     7    1
    20     6     8    1
@<TRIPOS>MOLECULE
*****
 19 20 0 0 0
SMALL
GASTEIGER

@<TRIPOS>ATOM
      1 C          -6.7276  -16.3242   23.6697 C.ar    1  UNL1        0.1858
      2 N          -8.1790  -16.1185   23.9877 N.ar    1  UNL1       -0.2022
      3 C          -8.9549  -17.2359   23.3555 C.ar    1  UNL1        0.2314
      4 O          -7.9830  -18.1321   22.6469 O.2     1  UNL1       -0.4213
      5 C          -6.6065  -17.5687   22.8410 C.ar    1  UNL1        0.2169
      6 N          -5.3325  -18.1480   22.3013 N.pl3   1  UNL1       -0.3273
      7 H          -5.3554  -18.9732   21.7649 H       1  UNL1        0.1452
      8 H          -4.4734  -17.7030   22.4835 H       1  UNL1        0.1452
      9 C         -10.4417  -17.4240   23.4206 C.ar    1  UNL1        0.0536
     10 C         -11.3425  -16.5795   22.5690 C.ar    1  UNL1        0.0047
     11 C         -12.8292  -16.7676   22.6341 C.ar    1  UNL1        0.0002
     12 C         -13.4151  -17.8002   23.5509 C.ar    1  UNL1        0.0000
     13 C         -12.5143  -18.6446   24.4026 C.ar    1  UNL1        0.0002
     14 C         -11.0276  -18.4565   24.3374 C.ar    1  UNL1        0.0047
     15 N          -5.3057  -15.2570   25.5643 N.am    1  UNL1       -0.3239
     16 C          -5.5961  -15.4405   24.1041 C.2     1  UNL1        0.2650
     17 O          -4.7549  -14.7404   23.0784 O.2     1  UNL1       -0.2686
     18 H          -4.5630  -14.6770   25.8494 H       1  UNL1        0.1453
     19 H          -5.8579  -15.7165   26.2375 H       1  UNL1        0.1453
@<TRIPOS>BOND
     1    15    16   am
     2    16    17    2
     3    16     1    1
     4     1     2   ar
     5     2     3   ar
     6     3     9    1
     7     9    10   ar
     8    10    11   ar
     9    11    12   ar
    10    12    13   ar
    11    13    14   ar
    12     3     4   ar
    13     4     5   ar
    14     5     6    1
    15     5     1   ar
    16    14     9   ar
    17    15    18    1
    18    15    19    1
    19     6     7    1
    20     6     8    1
@<TRIPOS>MOLECULE
*****
 19 20 0 0 0
SMALL
GASTEIGER

@<TRIPOS>ATOM
      1 C          -4.2756  -18.8155   21.6723 C.ar    1  UNL1        0.1858
      2 N          -5.6886  -18.4658   22.0346 N.ar    1  UNL1       -0.2022
      3 C          -6.5945  -19.4767   21.3963 C.ar    1  UNL1        0.2314
      4 O          -5.7415  -20.4511   20.6394 O.2     1  UNL1       -0.4213
      5 C          -4.3083  -20.0424   20.8100 C.ar    1  UNL1        0.2169
      6 N          -3.1170  -20.7386   20.2215 N.pl3   1  UNL1       -0.3273
      7 H          -3.2410  -21.5416   19.6656 H       1  UNL1        0.1452
      8 H          -2.2111  -20.3924   20.3913 H       1  UNL1        0.1452
      9 C          -8.0909  -19.5077   21.4972 C.ar    1  UNL1        0.0536
     10 C          -8.7488  -19.7018   22.8311 C.ar    1  UNL1        0.0047
     11 C         -10.2450  -19.7327   22.9319 C.ar    1  UNL1        0.0002
     12 C         -11.0834  -19.5696   21.6988 C.ar    1  UNL1        0.0000
     13 C         -10.4254  -19.3755   20.3648 C.ar    1  UNL1        0.0002
     14 C          -8.9292  -19.3445   20.2640 C.ar    1  UNL1        0.0047
     15 N          -3.1397  -16.6191   22.4697 N.am    1  UNL1       -0.3239
     16 C          -3.0459  -18.0692   22.0976 C.2     1  UNL1        0.2650
     17 O          -1.7224  -18.7731   22.1507 O.2     1  UNL1       -0.2686
     18 H          -2.3326  -16.1293   22.7488 H       1  UNL1        0.1453
     19 H          -4.0084  -16.1572   22.4348 H       1  UNL1        0.1453
@<TRIPOS>BOND
     1    15    16   am
     2    16    17    2
     3    16     1    1
     4     1     2   ar
     5     2     3   ar
     6     3     9    1
     7     9    10   ar
     8    10    11   ar
     9    11    12   ar
    10    12    13   ar
    11    13    14   ar
    12     3     4   ar
    13     4     5   ar
    14     5     6    1
    15     5     1   ar
    16    14     9   ar
    17    15    18    1
    18    15    19    1
    19     6     7    1
    20     6     8    1
@<TRIPOS>MOLECULE
*****
 19 20 0 0 0
SMALL
GASTEIGER

@<TRIPOS>ATOM
      1 C          -8.5317  -19.3760   22.4041 C.ar    1  UNL1        0.1858
      2 N          -7.1159  -19.8696   22.3610 N.ar    1  UNL1       -0.2022
      3 C          -6.3329  -18.9545   21.4668 C.ar    1  UNL1        0.2314
      4 O          -7.2648  -17.8954   20.9572 O.2     1  UNL1       -0.4213
      5 C          -8.6237  -18.1558   21.5364 C.ar    1  UNL1        0.2169
      6 N          -9.8579  -17.3394   21.2911 N.pl3   1  UNL1       -0.3273
      7 H          -9.8179  -16.5514   20.7023 H       1  UNL1        0.1452
      8 H         -10.7080  -17.5917   21.7189 H       1  UNL1        0.1452
      9 C          -4.8741  -19.0771   21.1397 C.ar    1  UNL1        0.0536
     10 C          -4.4096  -18.9394   19.7201 C.ar    1  UNL1        0.0047
     11 C          -2.9509  -19.0621   19.3930 C.ar    1  UNL1        0.0002
     12 C          -1.9566  -19.3224   20.4856 C.ar    1  UNL1        0.0000
     13 C          -2.4211  -19.4601   21.9051 C.ar    1  UNL1        0.0002
     14 C          -3.8798  -19.3375   22.2322 C.ar    1  UNL1        0.0047
     15 N         -10.9786  -20.2424   22.5127 N.am    1  UNL1       -0.3239
     16 C          -9.6577  -19.9940   23.1787 C.2     1  UNL1        0.2650
     17 O          -9.4629  -20.3636   24.6193 O.2     1  UNL1       -0.2686
     18 H         -11.7177  -20.6480   23.0211 H       1  UNL1        0.1453
     19 H         -11.1065  -19.9999   21.5672 H       1  UNL1        0.1453
@<TRIPOS>BOND
     1    15    16   am
     2    16    17    2
     3    16     1    1
     4     1     2   ar
     5     2     3   ar
     6     3     9    1
     7     9    10   ar
     8    10    11   ar
     9    11    12   ar
    10    12    13   ar
    11    13    14   ar
    12     3     4   ar
    13     4     5   ar
    14     5     6    1
    15     5     1   ar
    16    14     9   ar
    17    15    18    1
    18    15    19    1
    19     6     7    1
    20     6     8    1
@<TRIPOS>MOLECULE
*****
 19 20 0 0 0
SMALL
GASTEIGER

@<TRIPOS>ATOM
      1 C          -6.5460  -15.9067   23.7775 C.ar    1  UNL1        0.1858
      2 N          -7.5939  -16.4870   22.8746 N.ar    1  UNL1       -0.2022
      3 C          -8.9257  -16.3235   23.5451 C.ar    1  UNL1        0.2314
      4 O          -8.7009  -15.6421   24.8624 O.2     1  UNL1       -0.4213
      5 C          -7.2302  -15.3845   25.0060 C.ar    1  UNL1        0.2169
      6 N          -6.5612  -14.7212   26.1732 N.pl3   1  UNL1       -0.3273
      7 H          -7.0986  -14.4105   26.9373 H       1  UNL1        0.1452
      8 H          -5.5846  -14.5964   26.1751 H       1  UNL1        0.1452
      9 C         -10.2498  -16.7641   22.9949 C.ar    1  UNL1        0.0536
     10 C         -11.0417  -17.8228   23.7035 C.ar    1  UNL1        0.0047
     11 C         -12.3657  -18.2633   23.1532 C.ar    1  UNL1        0.0002
     12 C         -12.8979  -17.6451   21.8944 C.ar    1  UNL1        0.0000
     13 C         -12.1061  -16.5864   21.1859 C.ar    1  UNL1        0.0002
     14 C         -10.7821  -16.1459   21.7361 C.ar    1  UNL1        0.0047
     15 N          -4.2065  -17.0352   23.8355 N.am    1  UNL1       -0.3239
     16 C          -5.0726  -15.8573   23.5005 C.2     1  UNL1        0.2650
     17 O          -4.4654  -14.6298   22.8884 O.2     1  UNL1       -0.2686
     18 H          -3.2395  -17.0028   23.6537 H       1  UNL1        0.1453
     19 H          -4.6051  -17.8409   24.2372 H       1  UNL1        0.1453
@<TRIPOS>BOND
     1    15    16   am
     2    16    17    2
     3    16     1    1
     4     1     2   ar
     5     2     3   ar
     6     3     9    1
     7     9    10   ar
     8    10    11   ar
     9    11    12   ar
    10    12    13   ar
    11    13    14   ar
    12     3     4   ar
    13     4     5   ar
    14     5     6    1
    15     5     1   ar
    16    14     9   ar
    17    15    18    1
    18    15    19    1
    19     6     7    1
    20     6     8    1
@<TRIPOS>MOLECULE
*****
 19 20 0 0 0
SMALL
GASTEIGER

@<TRIPOS>ATOM
      1 C          -7.7299  -16.7105   23.6138 C.ar    1  UNL1        0.1858
      2 N          -6.3378  -17.0239   23.1514 N.ar    1  UNL1       -0.2022
      3 C          -6.3826  -18.3140   22.3874 C.ar    1  UNL1        0.2314
      4 O          -7.8023  -18.7979   22.3776 O.2     1  UNL1       -0.4213
      5 C          -8.6351  -17.8069   23.1355 C.ar    1  UNL1        0.2169
      6 N         -10.1134  -17.8965   23.3735 N.pl3   1  UNL1       -0.3273
      7 H         -10.6239  -18.6592   23.0173 H       1  UNL1        0.1452
      8 H         -10.5731  -17.1927   23.8858 H       1  UNL1        0.1452
      9 C          -5.2128  -18.9997   21.7458 C.ar    1  UNL1        0.0536
     10 C          -5.4201  -19.8621   20.5361 C.ar    1  UNL1        0.0047
     11 C          -4.2504  -20.5478   19.8946 C.ar    1  UNL1        0.0002
     12 C          -2.8735  -20.3711   20.4628 C.ar    1  UNL1        0.0000
     13 C          -2.6662  -19.5087   21.6724 C.ar    1  UNL1        0.0002
     14 C          -3.8359  -18.8231   22.3140 C.ar    1  UNL1        0.0047
     15 N          -7.7469  -14.1363   23.9649 N.am    1  UNL1       -0.3239
     16 C          -8.1442  -15.5112   24.4140 C.2     1  UNL1        0.2650
     17 O          -8.9557  -15.6870   25.6632 O.2     1  UNL1       -0.2686
     18 H          -8.0188  -13.3492   24.4901 H       1  UNL1        0.1453
     19 H          -7.2143  -14.0209   23.1450 H       1  UNL1        0.1453
@<TRIPOS>BOND
     1    15    16   am
     2    16    17    2
     3    16     1    1
     4     1     2   ar
     5     2     3   ar
     6     3     9    1
     7     9    10   ar
     8    10    11   ar
     9    11    12   ar
    10    12    13   ar
    11    13    14   ar
    12     3     4   ar
    13     4     5   ar
    14     5     6    1
    15     5     1   ar
    16    14     9   ar
    17    15    18    1
    18    15    19    1
    19     6     7    1
    20     6     8    1
