@<TRIPOS>MOLECULE
*****
 31 35 0 0 0
SMALL
GASTEIGER

@<TRIPOS>ATOM
      1 C           6.5336   -3.7949   24.9249 C.3     1  UNL1        0.0896
      2 N           5.7582   -3.3298   23.7282 N.3     1  UNL1       -0.2721
      3 C           6.0200   -3.9378   22.3821 C.3     1  UNL1        0.0738
      4 C           5.2445   -3.4726   21.1853 C.3     1  UNL1        0.0361
      5 C           4.2072   -2.3995   21.3346 C.3     1  UNL1        0.0088
      6 C           3.9454   -1.7915   22.6806 C.3     1  UNL1        0.0374
      7 C           2.9080   -0.7183   22.8298 C.ar    1  UNL1       -0.0200
      8 C           2.1326   -0.2531   21.6330 C.ar    1  UNL1       -0.0041
      9 C           1.0953    0.8200   21.7822 C.ar    1  UNL1        0.0012
     10 C           0.8334    1.4280   23.1283 C.ar    1  UNL1        0.0172
     11 C           1.6089    0.9629   24.3250 C.ar    1  UNL1        0.0594
     12 C           2.6462   -0.1102   24.1758 C.ar    1  UNL1        0.0094
     13 C           3.4217   -0.5754   25.3726 C.ar    1  UNL1       -0.0025
     14 C           2.8492    0.2773   26.4658 C.ar    1  UNL1        0.0716
     15 N           1.8026    1.1655   25.8610 N.ar    1  UNL1       -0.3243
     16 C           0.9756    2.1794   26.5944 C.3     1  UNL1        0.1305
     17 C           4.4590   -1.6485   25.2234 C.3     1  UNL1        0.0442
     18 C           4.7208   -2.2566   23.8773 C.3     1  UNL1        0.0659
     19 C           5.5064   -4.0807   19.8393 C.3     1  UNL1        0.0940
     20 N           5.4685   -3.2235   18.6089 N.am    1  UNL1       -0.2706
     21 C           6.6265   -2.3275   18.2831 C.2     1  UNL1        0.4020
     22 O           7.8225   -2.2888   19.1877 O.2     1  UNL1       -0.2264
     23 H           4.6835   -3.2489   18.0153 H       1  UNL1        0.1527
     24 O           6.5887   -1.4703   17.0528 O.3     1  UNL1       -0.4297
     25 C           6.4152    0.0143   17.1781 C.3     1  UNL1        0.2367
     26 C           5.0991    0.5809   17.6216 C.ar    1  UNL1        0.0213
     27 C           3.8532   -0.2485   17.5206 C.ar    1  UNL1       -0.0007
     28 C           2.5371    0.3181   17.9641 C.ar    1  UNL1       -0.0002
     29 C           2.4667    1.7139   18.5087 C.ar    1  UNL1       -0.0000
     30 C           3.7125    2.5433   18.6097 C.ar    1  UNL1       -0.0002
     31 C           5.0287    1.9767   18.1662 C.ar    1  UNL1       -0.0007
@<TRIPOS>BOND
     1     1     2    1
     2     2     3    1
     3     3     4    1
     4     4    19    1
     5    19    20    1
     6    20    21   am
     7    21    22    2
     8    21    24    1
     9    24    25    1
    10    25    26    1
    11    26    27   ar
    12    27    28   ar
    13    28    29   ar
    14    29    30   ar
    15    30    31   ar
    16     4     5    1
    17     6     5    1
    18     6     7    1
    19     7     8   ar
    20     8     9   ar
    21     9    10   ar
    22    10    11   ar
    23    11    12   ar
    24    12    13   ar
    25    13    14   ar
    26    14    15   ar
    27    15    16    1
    28    13    17    1
    29    18    17    1
    30    18     2    1
    31    31    26   ar
    32    18     6    1
    33    12     7   ar
    34    15    11   ar
    35    20    23    1
@<TRIPOS>MOLECULE
*****
 31 35 0 0 0
SMALL
GASTEIGER

@<TRIPOS>ATOM
      1 C           5.4766   -0.6844   24.3668 C.3     1  UNL1        0.0896
      2 N           6.0258   -2.0070   23.9207 N.3     1  UNL1       -0.2721
      3 C           6.2103   -2.2879   22.4589 C.3     1  UNL1        0.0738
      4 C           6.7595   -3.6106   22.0128 C.3     1  UNL1        0.0361
      5 C           7.1241   -4.6523   23.0285 C.3     1  UNL1        0.0088
      6 C           6.9396   -4.3714   24.4904 C.3     1  UNL1        0.0374
      7 C           7.3043   -5.4132   25.5062 C.ar    1  UNL1       -0.0200
      8 C           7.8535   -6.7358   25.0601 C.ar    1  UNL1       -0.0041
      9 C           8.2181   -7.7775   26.0758 C.ar    1  UNL1        0.0012
     10 C           8.0336   -7.4966   27.5377 C.ar    1  UNL1        0.0172
     11 C           7.4844   -6.1740   27.9838 C.ar    1  UNL1        0.0594
     12 C           7.1198   -5.1323   26.9681 C.ar    1  UNL1        0.0094
     13 C           6.5706   -3.8096   27.4141 C.ar    1  UNL1       -0.0025
     14 C           6.5581   -3.9642   28.9061 C.ar    1  UNL1        0.0716
     15 N           7.0857   -5.3293   29.2350 N.ar    1  UNL1       -0.3243
     16 C           7.2466   -5.9045   30.6110 C.3     1  UNL1        0.1305
     17 C           6.2059   -2.7679   26.3984 C.3     1  UNL1        0.0442
     18 C           6.3904   -3.0488   24.9365 C.3     1  UNL1        0.0659
     19 C           6.9440   -3.8915   20.5509 C.3     1  UNL1        0.0940
     20 N           6.5381   -2.8669   19.5332 N.am    1  UNL1       -0.2706
     21 C           5.4722   -3.1894   18.5283 C.2     1  UNL1        0.4020
     22 O           4.8123   -4.5364   18.5410 O.2     1  UNL1       -0.2264
     23 H           6.9712   -1.9828   19.5249 H       1  UNL1        0.1527
     24 O           5.0663   -2.1649   17.5106 O.3     1  UNL1       -0.4297
     25 C           4.7260   -0.7701   17.9450 C.3     1  UNL1        0.2367
     26 C           3.4182   -0.4948   18.6261 C.ar    1  UNL1        0.0213
     27 C           3.1189   -1.1203   19.9563 C.ar    1  UNL1       -0.0007
     28 C           1.8112   -0.8450   20.6374 C.ar    1  UNL1       -0.0002
     29 C           0.8027    0.0560   19.9884 C.ar    1  UNL1       -0.0000
     30 C           1.1019    0.6815   18.6583 C.ar    1  UNL1       -0.0002
     31 C           2.4097    0.4062   17.9772 C.ar    1  UNL1       -0.0007
@<TRIPOS>BOND
     1     1     2    1
     2     2     3    1
     3     3     4    1
     4     4    19    1
     5    19    20    1
     6    20    21   am
     7    21    22    2
     8    21    24    1
     9    24    25    1
    10    25    26    1
    11    26    27   ar
    12    27    28   ar
    13    28    29   ar
    14    29    30   ar
    15    30    31   ar
    16     4     5    1
    17     6     5    1
    18     6     7    1
    19     7     8   ar
    20     8     9   ar
    21     9    10   ar
    22    10    11   ar
    23    11    12   ar
    24    12    13   ar
    25    13    14   ar
    26    14    15   ar
    27    15    16    1
    28    13    17    1
    29    18    17    1
    30    18     2    1
    31    31    26   ar
    32    18     6    1
    33    12     7   ar
    34    15    11   ar
    35    20    23    1
@<TRIPOS>MOLECULE
*****
 31 35 0 0 0
SMALL
GASTEIGER

@<TRIPOS>ATOM
      1 C          -6.5957  -14.7944   26.0048 C.3     1  UNL1        0.0896
      2 N          -6.1834  -15.8172   24.9881 N.3     1  UNL1       -0.2721
      3 C          -4.7595  -16.2854   24.9300 C.3     1  UNL1        0.0738
      4 C          -4.3472  -17.3083   23.9133 C.3     1  UNL1        0.0361
      5 C          -5.3587  -17.8630   22.9546 C.3     1  UNL1        0.0088
      6 C          -6.7826  -17.3949   23.0127 C.3     1  UNL1        0.0374
      7 C          -7.7942  -17.9496   22.0540 C.ar    1  UNL1       -0.0200
      8 C          -7.3818  -18.9725   21.0373 C.ar    1  UNL1       -0.0041
      9 C          -8.3934  -19.5272   20.0787 C.ar    1  UNL1        0.0012
     10 C          -9.8173  -19.0591   20.1368 C.ar    1  UNL1        0.0172
     11 C         -10.2296  -18.0362   21.1535 C.ar    1  UNL1        0.0594
     12 C          -9.2181  -17.4815   22.1121 C.ar    1  UNL1        0.0094
     13 C          -9.6304  -16.4586   23.1289 C.ar    1  UNL1       -0.0025
     14 C         -11.0915  -16.2948   22.8317 C.ar    1  UNL1        0.0716
     15 N         -11.4375  -17.2057   21.6912 N.ar    1  UNL1       -0.3243
     16 C         -12.7928  -17.3623   21.0679 C.3     1  UNL1        0.1305
     17 C          -8.6188  -15.9039   24.0875 C.3     1  UNL1        0.0442
     18 C          -7.1949  -16.3720   24.0294 C.3     1  UNL1        0.0659
     19 C          -2.9233  -17.7764   23.8552 C.3     1  UNL1        0.0940
     20 N          -2.1530  -17.6773   22.5718 N.am    1  UNL1       -0.2706
     21 C          -2.1676  -16.4003   21.7850 C.2     1  UNL1        0.4020
     22 O          -2.9525  -15.2224   22.2815 O.2     1  UNL1       -0.2264
     23 H          -1.6378  -18.4504   22.2460 H       1  UNL1        0.1527
     24 O          -1.3974  -16.3012   20.5017 O.3     1  UNL1       -0.4297
     25 C          -1.4848  -17.4029   19.4875 C.3     1  UNL1        0.2367
     26 C          -2.5138  -18.4835   19.6407 C.ar    1  UNL1        0.0213
     27 C          -3.9149  -18.2594   19.1542 C.ar    1  UNL1       -0.0007
     28 C          -4.9439  -19.3400   19.3075 C.ar    1  UNL1       -0.0002
     29 C          -4.5718  -20.6447   19.9472 C.ar    1  UNL1       -0.0000
     30 C          -3.1707  -20.8688   20.4338 C.ar    1  UNL1       -0.0002
     31 C          -2.1417  -19.7882   20.2805 C.ar    1  UNL1       -0.0007
@<TRIPOS>BOND
     1     1     2    1
     2     2     3    1
     3     3     4    1
     4     4    19    1
     5    19    20    1
     6    20    21   am
     7    21    22    2
     8    21    24    1
     9    24    25    1
    10    25    26    1
    11    26    27   ar
    12    27    28   ar
    13    28    29   ar
    14    29    30   ar
    15    30    31   ar
    16     4     5    1
    17     6     5    1
    18     6     7    1
    19     7     8   ar
    20     8     9   ar
    21     9    10   ar
    22    10    11   ar
    23    11    12   ar
    24    12    13   ar
    25    13    14   ar
    26    14    15   ar
    27    15    16    1
    28    13    17    1
    29    18    17    1
    30    18     2    1
    31    31    26   ar
    32    18     6    1
    33    12     7   ar
    34    15    11   ar
    35    20    23    1
@<TRIPOS>MOLECULE
*****
 31 35 0 0 0
SMALL
GASTEIGER

@<TRIPOS>ATOM
      1 C           4.6710   -3.7575   19.0443 C.3     1  UNL1        0.0896
      2 N           3.9369   -2.7652   19.8966 N.3     1  UNL1       -0.2721
      3 C           2.8517   -1.9202   19.2980 C.3     1  UNL1        0.0738
      4 C           2.1176   -0.9278   20.1504 C.3     1  UNL1        0.0361
      5 C           2.4688   -0.7804   21.6012 C.3     1  UNL1        0.0088
      6 C           3.5540   -1.6255   22.1997 C.3     1  UNL1        0.0374
      7 C           3.9052   -1.4781   23.6506 C.ar    1  UNL1       -0.0200
      8 C           3.1711   -0.4857   24.5029 C.ar    1  UNL1       -0.0041
      9 C           3.5223   -0.3384   25.9537 C.ar    1  UNL1        0.0012
     10 C           4.6075   -1.1834   26.5523 C.ar    1  UNL1        0.0172
     11 C           5.3416   -2.1757   25.7000 C.ar    1  UNL1        0.0594
     12 C           4.9904   -2.3231   24.2492 C.ar    1  UNL1        0.0094
     13 C           5.7245   -3.3155   23.3969 C.ar    1  UNL1       -0.0025
     14 C           6.6883   -3.9158   24.3770 C.ar    1  UNL1        0.0716
     15 N           6.4672   -3.2578   25.7067 N.ar    1  UNL1       -0.3243
     16 C           7.2152   -3.5546   26.9726 C.3     1  UNL1        0.1305
     17 C           5.3733   -3.4628   21.9460 C.3     1  UNL1        0.0442
     18 C           4.2881   -2.6178   21.3475 C.3     1  UNL1        0.0659
     19 C           1.0324   -0.0828   19.5518 C.3     1  UNL1        0.0940
     20 N          -0.0556    0.4694   20.4244 N.am    1  UNL1       -0.2706
     21 C          -0.0581    1.9241   20.7900 C.2     1  UNL1        0.4020
     22 O           1.0274    2.8267   20.2830 O.2     1  UNL1       -0.2264
     23 H          -0.7680   -0.1230   20.7572 H       1  UNL1        0.1527
     24 O          -1.1460    2.4763   21.6626 O.3     1  UNL1       -0.4297
     25 C          -0.8032    3.3932   22.7991 C.3     1  UNL1        0.2367
     26 C          -0.7999    2.8744   24.2065 C.ar    1  UNL1        0.0213
     27 C           0.1394    1.7720   24.5973 C.ar    1  UNL1       -0.0007
     28 C           0.1427    1.2532   26.0047 C.ar    1  UNL1       -0.0002
     29 C          -0.7932    1.8367   27.0214 C.ar    1  UNL1       -0.0000
     30 C          -1.7325    2.9390   26.6306 C.ar    1  UNL1       -0.0002
     31 C          -1.7358    3.4579   25.2232 C.ar    1  UNL1       -0.0007
@<TRIPOS>BOND
     1     1     2    1
     2     2     3    1
     3     3     4    1
     4     4    19    1
     5    19    20    1
     6    20    21   am
     7    21    22    2
     8    21    24    1
     9    24    25    1
    10    25    26    1
    11    26    27   ar
    12    27    28   ar
    13    28    29   ar
    14    29    30   ar
    15    30    31   ar
    16     4     5    1
    17     6     5    1
    18     6     7    1
    19     7     8   ar
    20     8     9   ar
    21     9    10   ar
    22    10    11   ar
    23    11    12   ar
    24    12    13   ar
    25    13    14   ar
    26    14    15   ar
    27    15    16    1
    28    13    17    1
    29    18    17    1
    30    18     2    1
    31    31    26   ar
    32    18     6    1
    33    12     7   ar
    34    15    11   ar
    35    20    23    1
@<TRIPOS>MOLECULE
*****
 31 35 0 0 0
SMALL
GASTEIGER

@<TRIPOS>ATOM
      1 C           5.3100   -1.3460   24.5447 C.3     1  UNL1        0.0896
      2 N           6.0149   -2.3832   23.7218 N.3     1  UNL1       -0.2721
      3 C           6.0160   -2.2798   22.2254 C.3     1  UNL1        0.0738
      4 C           6.7209   -3.3171   21.4024 C.3     1  UNL1        0.0361
      5 C           7.4246   -4.4578   22.0759 C.3     1  UNL1        0.0088
      6 C           7.4235   -4.5612   23.5724 C.3     1  UNL1        0.0374
      7 C           8.1272   -5.7019   24.2459 C.ar    1  UNL1       -0.0200
      8 C           8.8321   -6.7392   23.4230 C.ar    1  UNL1       -0.0041
      9 C           9.5358   -7.8798   24.0965 C.ar    1  UNL1        0.0012
     10 C           9.5347   -7.9832   25.5929 C.ar    1  UNL1        0.0172
     11 C           8.8298   -6.9460   26.4158 C.ar    1  UNL1        0.0594
     12 C           8.1261   -5.8053   25.7423 C.ar    1  UNL1        0.0094
     13 C           7.4212   -4.7680   26.5652 C.ar    1  UNL1       -0.0025
     14 C           7.6714   -5.2549   27.9618 C.ar    1  UNL1        0.0716
     15 N           8.4846   -6.5123   27.8755 N.ar    1  UNL1       -0.3243
     16 C           8.9617   -7.3351   29.0354 C.3     1  UNL1        0.1305
     17 C           6.7175   -3.6273   25.8917 C.3     1  UNL1        0.0442
     18 C           6.7186   -3.5239   24.3953 C.3     1  UNL1        0.0659
     19 C           6.7221   -3.2137   19.9060 C.3     1  UNL1        0.0940
     20 N           5.4861   -2.7647   19.1843 N.am    1  UNL1       -0.2706
     21 C           5.6034   -2.0317   17.8808 C.2     1  UNL1        0.4020
     22 O           6.9565   -1.7478   17.2991 O.2     1  UNL1       -0.2264
     23 H           4.5980   -2.9510   19.5661 H       1  UNL1        0.1527
     24 O           4.3675   -1.5826   17.1591 O.3     1  UNL1       -0.4297
     25 C           3.8251   -0.2029   17.3875 C.3     1  UNL1        0.2367
     26 C           2.7094    0.0118   18.3668 C.ar    1  UNL1        0.0213
     27 C           2.4885   -0.9701   19.4791 C.ar    1  UNL1       -0.0007
     28 C           1.3727   -0.7554   20.4584 C.ar    1  UNL1       -0.0002
     29 C           0.4780    0.4411   20.3255 C.ar    1  UNL1       -0.0000
     30 C           0.6989    1.4230   19.2132 C.ar    1  UNL1       -0.0002
     31 C           1.8146    1.2083   18.2339 C.ar    1  UNL1       -0.0007
@<TRIPOS>BOND
     1     1     2    1
     2     2     3    1
     3     3     4    1
     4     4    19    1
     5    19    20    1
     6    20    21   am
     7    21    22    2
     8    21    24    1
     9    24    25    1
    10    25    26    1
    11    26    27   ar
    12    27    28   ar
    13    28    29   ar
    14    29    30   ar
    15    30    31   ar
    16     4     5    1
    17     6     5    1
    18     6     7    1
    19     7     8   ar
    20     8     9   ar
    21     9    10   ar
    22    10    11   ar
    23    11    12   ar
    24    12    13   ar
    25    13    14   ar
    26    14    15   ar
    27    15    16    1
    28    13    17    1
    29    18    17    1
    30    18     2    1
    31    31    26   ar
    32    18     6    1
    33    12     7   ar
    34    15    11   ar
    35    20    23    1
@<TRIPOS>MOLECULE
*****
 31 35 0 0 0
SMALL
GASTEIGER

@<TRIPOS>ATOM
      1 C          -1.1203    2.8515   21.0590 C.3     1  UNL1        0.0896
      2 N           0.0500    1.9181   21.1537 N.3     1  UNL1       -0.2721
      3 C           0.6476    1.3357   19.9073 C.3     1  UNL1        0.0738
      4 C           1.8181    0.4023   20.0021 C.3     1  UNL1        0.0361
      5 C           2.3908    0.0513   21.3432 C.3     1  UNL1        0.0088
      6 C           1.7931    0.6337   22.5897 C.3     1  UNL1        0.0374
      7 C           2.3659    0.2827   23.9309 C.ar    1  UNL1       -0.0200
      8 C           3.5362   -0.6507   24.0256 C.ar    1  UNL1       -0.0041
      9 C           4.1090   -1.0017   25.3668 C.ar    1  UNL1        0.0012
     10 C           3.5113   -0.4193   26.6132 C.ar    1  UNL1        0.0172
     11 C           2.3410    0.5141   26.5185 C.ar    1  UNL1        0.0594
     12 C           1.7683    0.8651   25.1773 C.ar    1  UNL1        0.0094
     13 C           0.5978    1.7985   25.0826 C.ar    1  UNL1       -0.0025
     14 C           0.3404    2.1233   26.5242 C.ar    1  UNL1        0.0716
     15 N           1.3468    1.3818   27.3532 N.ar    1  UNL1       -0.3243
     16 C           1.4549    1.4171   28.8489 C.3     1  UNL1        0.1305
     17 C           0.0251    2.1495   23.7414 C.3     1  UNL1        0.0442
     18 C           0.6228    1.5671   22.4949 C.3     1  UNL1        0.0659
     19 C           2.4157   -0.1802   18.7556 C.3     1  UNL1        0.0940
     20 N           3.4513   -1.2609   18.8546 N.am    1  UNL1       -0.2706
     21 C           4.2412   -1.6559   17.6421 C.2     1  UNL1        0.4020
     22 O           3.9954   -0.9704   16.3307 O.2     1  UNL1       -0.2264
     23 H           3.6126   -1.7108   19.7153 H       1  UNL1        0.1527
     24 O           5.2767   -2.7366   17.7410 O.3     1  UNL1       -0.4297
     25 C           5.0550   -3.9067   18.6530 C.3     1  UNL1        0.2367
     26 C           5.4559   -3.8197   20.0957 C.ar    1  UNL1        0.0213
     27 C           6.9079   -3.7672   20.4688 C.ar    1  UNL1       -0.0007
     28 C           7.3089   -3.6802   21.9115 C.ar    1  UNL1       -0.0002
     29 C           6.2580   -3.6458   22.9813 C.ar    1  UNL1       -0.0000
     30 C           4.8061   -3.6983   22.6083 C.ar    1  UNL1       -0.0002
     31 C           4.4050   -3.7853   21.1655 C.ar    1  UNL1       -0.0007
@<TRIPOS>BOND
     1     1     2    1
     2     2     3    1
     3     3     4    1
     4     4    19    1
     5    19    20    1
     6    20    21   am
     7    21    22    2
     8    21    24    1
     9    24    25    1
    10    25    26    1
    11    26    27   ar
    12    27    28   ar
    13    28    29   ar
    14    29    30   ar
    15    30    31   ar
    16     4     5    1
    17     6     5    1
    18     6     7    1
    19     7     8   ar
    20     8     9   ar
    21     9    10   ar
    22    10    11   ar
    23    11    12   ar
    24    12    13   ar
    25    13    14   ar
    26    14    15   ar
    27    15    16    1
    28    13    17    1
    29    18    17    1
    30    18     2    1
    31    31    26   ar
    32    18     6    1
    33    12     7   ar
    34    15    11   ar
    35    20    23    1
@<TRIPOS>MOLECULE
*****
 31 35 0 0 0
SMALL
GASTEIGER

@<TRIPOS>ATOM
      1 C           8.1080   -4.7240   24.8008 C.3     1  UNL1        0.0896
      2 N           7.1156   -4.0068   23.9344 N.3     1  UNL1       -0.2721
      3 C           7.0987   -4.2495   22.4543 C.3     1  UNL1        0.0738
      4 C           6.1062   -3.5322   21.5879 C.3     1  UNL1        0.0361
      5 C           5.1306   -2.5724   22.2017 C.3     1  UNL1        0.0088
      6 C           5.1474   -2.3297   23.6819 C.3     1  UNL1        0.0374
      7 C           4.1717   -1.3698   24.2957 C.ar    1  UNL1       -0.0200
      8 C           3.1792   -0.6526   23.4294 C.ar    1  UNL1       -0.0041
      9 C           2.2036    0.3072   24.0432 C.ar    1  UNL1        0.0012
     10 C           2.2204    0.5498   25.5233 C.ar    1  UNL1        0.0172
     11 C           3.2129   -0.1674   26.3897 C.ar    1  UNL1        0.0594
     12 C           4.1885   -1.1272   25.7759 C.ar    1  UNL1        0.0094
     13 C           5.1811   -1.8445   26.6422 C.ar    1  UNL1       -0.0025
     14 C           4.8460   -1.3145   28.0049 C.ar    1  UNL1        0.0716
     15 N           3.7096   -0.3463   27.8591 N.ar    1  UNL1       -0.3243
     16 C           3.0553    0.4192   28.9708 C.3     1  UNL1        0.1305
     17 C           6.1567   -2.8043   26.0284 C.3     1  UNL1        0.0442
     18 C           6.1399   -3.0469   24.5482 C.3     1  UNL1        0.0659
     19 C           6.0894   -3.7748   20.1078 C.3     1  UNL1        0.0940
     20 N           5.0531   -3.1103   19.2506 N.am    1  UNL1       -0.2706
     21 C           5.4678   -2.3534   18.0237 C.2     1  UNL1        0.4020
     22 O           6.9187   -2.2610   17.6541 O.2     1  UNL1       -0.2264
     23 H           4.1009   -3.1709   19.4932 H       1  UNL1        0.1527
     24 O           4.4317   -1.6888   17.1665 O.3     1  UNL1       -0.4297
     25 C           4.0021   -0.2827   17.4634 C.3     1  UNL1        0.2367
     26 C           2.8429   -0.0305   18.3813 C.ar    1  UNL1        0.0213
     27 C           2.4554   -1.0606   19.4006 C.ar    1  UNL1       -0.0007
     28 C           1.2962   -0.8085   20.3185 C.ar    1  UNL1       -0.0002
     29 C           0.5245    0.4737   20.2172 C.ar    1  UNL1       -0.0000
     30 C           0.9119    1.5038   19.1981 C.ar    1  UNL1       -0.0002
     31 C           2.0712    1.2517   18.2801 C.ar    1  UNL1       -0.0007
@<TRIPOS>BOND
     1     1     2    1
     2     2     3    1
     3     3     4    1
     4     4    19    1
     5    19    20    1
     6    20    21   am
     7    21    22    2
     8    21    24    1
     9    24    25    1
    10    25    26    1
    11    26    27   ar
    12    27    28   ar
    13    28    29   ar
    14    29    30   ar
    15    30    31   ar
    16     4     5    1
    17     6     5    1
    18     6     7    1
    19     7     8   ar
    20     8     9   ar
    21     9    10   ar
    22    10    11   ar
    23    11    12   ar
    24    12    13   ar
    25    13    14   ar
    26    14    15   ar
    27    15    16    1
    28    13    17    1
    29    18    17    1
    30    18     2    1
    31    31    26   ar
    32    18     6    1
    33    12     7   ar
    34    15    11   ar
    35    20    23    1
@<TRIPOS>MOLECULE
*****
 31 35 0 0 0
SMALL
GASTEIGER

@<TRIPOS>ATOM
      1 C           3.0242    0.2550   27.0674 C.3     1  UNL1        0.0896
      2 N           3.2173   -0.2654   25.6739 N.3     1  UNL1       -0.2721
      3 C           4.2323   -1.3372   25.4075 C.3     1  UNL1        0.0738
      4 C           4.4254   -1.8576   24.0140 C.3     1  UNL1        0.0361
      5 C           3.6034   -1.3062   22.8869 C.3     1  UNL1        0.0088
      6 C           2.5884   -0.2344   23.1533 C.3     1  UNL1        0.0374
      7 C           1.7664    0.3169   22.0261 C.ar    1  UNL1       -0.0200
      8 C           1.9595   -0.2035   20.6326 C.ar    1  UNL1       -0.0041
      9 C           1.1375    0.3479   19.5056 C.ar    1  UNL1        0.0012
     10 C           0.1225    1.4197   19.7720 C.ar    1  UNL1        0.0172
     11 C          -0.0706    1.9401   21.1655 C.ar    1  UNL1        0.0594
     12 C           0.7514    1.3887   22.2925 C.ar    1  UNL1        0.0094
     13 C           0.5583    1.9091   23.6861 C.ar    1  UNL1       -0.0025
     14 C          -0.5193    2.9340   23.4898 C.ar    1  UNL1        0.0716
     15 N          -0.8824    2.9518   22.0345 N.ar    1  UNL1       -0.3243
     16 C          -1.9169    3.8294   21.3946 C.3     1  UNL1        0.1305
     17 C           1.3803    1.3578   24.8132 C.3     1  UNL1        0.0442
     18 C           2.3953    0.2860   24.5468 C.3     1  UNL1        0.0659
     19 C           5.4404   -2.9294   23.7475 C.3     1  UNL1        0.0940
     20 N           6.1147   -3.0080   22.4099 N.am    1  UNL1       -0.2706
     21 C           5.5021   -3.8206   21.3078 C.2     1  UNL1        0.4020
     22 O           4.2153   -4.5545   21.5435 O.2     1  UNL1       -0.2264
     23 H           6.9592   -2.5262   22.2552 H       1  UNL1        0.1527
     24 O           6.1763   -3.8992   19.9702 O.3     1  UNL1       -0.4297
     25 C           5.4715   -3.3983   18.7445 C.3     1  UNL1        0.2367
     26 C           5.1814   -1.9347   18.5915 C.ar    1  UNL1        0.0213
     27 C           5.8053   -0.9443   19.5297 C.ar    1  UNL1       -0.0007
     28 C           5.5152    0.5193   19.3767 C.ar    1  UNL1       -0.0002
     29 C           4.6012    0.9928   18.2857 C.ar    1  UNL1       -0.0000
     30 C           3.9772    0.0025   17.3476 C.ar    1  UNL1       -0.0002
     31 C           4.2673   -1.4612   17.5005 C.ar    1  UNL1       -0.0007
@<TRIPOS>BOND
     1     1     2    1
     2     2     3    1
     3     3     4    1
     4     4    19    1
     5    19    20    1
     6    20    21   am
     7    21    22    2
     8    21    24    1
     9    24    25    1
    10    25    26    1
    11    26    27   ar
    12    27    28   ar
    13    28    29   ar
    14    29    30   ar
    15    30    31   ar
    16     4     5    1
    17     6     5    1
    18     6     7    1
    19     7     8   ar
    20     8     9   ar
    21     9    10   ar
    22    10    11   ar
    23    11    12   ar
    24    12    13   ar
    25    13    14   ar
    26    14    15   ar
    27    15    16    1
    28    13    17    1
    29    18    17    1
    30    18     2    1
    31    31    26   ar
    32    18     6    1
    33    12     7   ar
    34    15    11   ar
    35    20    23    1
@<TRIPOS>MOLECULE
*****
 31 35 0 0 0
SMALL
GASTEIGER

@<TRIPOS>ATOM
      1 C           4.8736   -2.4634   24.1957 C.3     1  UNL1        0.0896
      2 N           4.1697   -2.0639   22.9328 N.3     1  UNL1       -0.2721
      3 C           4.4818   -2.7675   21.6454 C.3     1  UNL1        0.0738
      4 C           3.7779   -2.3679   20.3825 C.3     1  UNL1        0.0361
      5 C           2.7619   -1.2646   20.4071 C.3     1  UNL1        0.0088
      6 C           2.4499   -0.5610   21.6945 C.3     1  UNL1        0.0374
      7 C           1.4339    0.5424   21.7190 C.ar    1  UNL1       -0.0200
      8 C           0.7300    0.9419   20.4561 C.ar    1  UNL1       -0.0041
      9 C          -0.2859    2.0452   20.4807 C.ar    1  UNL1        0.0012
     10 C          -0.5980    2.7489   21.7681 C.ar    1  UNL1        0.0172
     11 C           0.1059    2.3493   23.0310 C.ar    1  UNL1        0.0594
     12 C           1.1218    1.2461   23.0064 C.ar    1  UNL1        0.0094
     13 C           1.8257    0.8464   24.2693 C.ar    1  UNL1       -0.0025
     14 C           1.2221    1.7838   25.2728 C.ar    1  UNL1        0.0716
     15 N           0.2292    2.6515   24.5578 N.ar    1  UNL1       -0.3243
     16 C          -0.6069    3.7308   25.1791 C.3     1  UNL1        0.1305
     17 C           2.8417   -0.2568   24.2448 C.3     1  UNL1        0.0442
     18 C           3.1537   -0.9605   22.9573 C.3     1  UNL1        0.0659
     19 C           4.0899   -3.0716   19.0951 C.3     1  UNL1        0.0940
     20 N           4.6511   -2.3017   17.9365 N.am    1  UNL1       -0.2706
     21 C           6.0428   -1.7468   18.0083 C.2     1  UNL1        0.4020
     22 O           6.8734   -1.9618   19.2388 O.2     1  UNL1       -0.2264
     23 H           4.1060   -2.1606   17.1289 H       1  UNL1        0.1527
     24 O           6.6040   -0.9769   16.8497 O.3     1  UNL1       -0.4297
     25 C           6.5231    0.5208   16.8347 C.3     1  UNL1        0.2367
     26 C           5.9545    1.2530   18.0140 C.ar    1  UNL1        0.0213
     27 C           6.8593    1.7136   19.1182 C.ar    1  UNL1       -0.0007
     28 C           6.2908    2.4458   20.2975 C.ar    1  UNL1       -0.0002
     29 C           4.8175    2.7175   20.3725 C.ar    1  UNL1       -0.0000
     30 C           3.9127    2.2569   19.2684 C.ar    1  UNL1       -0.0002
     31 C           4.4812    1.5247   18.0890 C.ar    1  UNL1       -0.0007
@<TRIPOS>BOND
     1     1     2    1
     2     2     3    1
     3     3     4    1
     4     4    19    1
     5    19    20    1
     6    20    21   am
     7    21    22    2
     8    21    24    1
     9    24    25    1
    10    25    26    1
    11    26    27   ar
    12    27    28   ar
    13    28    29   ar
    14    29    30   ar
    15    30    31   ar
    16     4     5    1
    17     6     5    1
    18     6     7    1
    19     7     8   ar
    20     8     9   ar
    21     9    10   ar
    22    10    11   ar
    23    11    12   ar
    24    12    13   ar
    25    13    14   ar
    26    14    15   ar
    27    15    16    1
    28    13    17    1
    29    18    17    1
    30    18     2    1
    31    31    26   ar
    32    18     6    1
    33    12     7   ar
    34    15    11   ar
    35    20    23    1
