@<TRIPOS>MOLECULE
*****
 24 28 0 0 0
SMALL
GASTEIGER

@<TRIPOS>ATOM
      1 N          -7.4295  -19.1937   21.5658 N.am    1  UNL1       -0.2214
      2 C          -6.0310  -19.1733   22.1079 C.3     1  UNL1        0.1428
      3 C          -5.0832  -19.1655   20.9453 C.3     1  UNL1        0.1706
      4 C          -4.2621  -19.1597   19.6901 C.3     1  UNL1        0.1145
      5 N          -2.7646  -19.1398   19.7735 N.3     1  UNL1       -0.2697
      6 C          -2.0881  -19.1258   21.1122 C.3     1  UNL1        0.0723
      7 C          -2.9092  -19.1316   22.3675 C.3     1  UNL1        0.0209
      8 C          -4.4068  -19.1514   22.2840 C.3     1  UNL1        0.0427
      9 C          -4.3844  -19.1562   20.9843 C.3     1  UNL1        0.0209
     10 C          -3.9465  -19.1531   20.3148 C.3     1  UNL1        0.0723
     11 O          -5.8959  -19.1810   19.6847 O.3     1  UNL1       -0.4384
     12 C          -7.3460  -19.1984   20.0681 C.2     1  UNL1        0.4086
     13 O          -8.5084  -19.2173   19.1203 O.2     1  UNL1       -0.2258
     14 C         -12.2491  -17.3412   22.8938 C.ar    1  UNL1        0.0184
     15 C         -13.1923  -17.8321   23.9517 C.ar    1  UNL1        0.1753
     16 O         -12.5509  -19.0016   24.6380 O.2     1  UNL1       -0.4508
     17 C         -11.2113  -19.2334   24.0042 C.ar    1  UNL1        0.1452
     18 C         -10.1372  -20.2464   24.2694 C.ar    1  UNL1        0.0388
     19 C          -8.8766  -20.2331   23.4567 C.ar    1  UNL1        0.0181
     20 C          -8.6901  -19.2069   22.3786 C.ar    1  UNL1        0.0573
     21 C          -9.7642  -18.1940   22.1134 C.ar    1  UNL1        0.0178
     22 C         -11.0248  -18.2073   22.9262 C.ar    1  UNL1        0.0349
     23 C         -12.2410  -16.3433   20.4951 C.3     1  UNL1        0.0051
     24 C         -12.4882  -16.1869   21.9662 C.3     1  UNL1        0.0297
@<TRIPOS>BOND
     1    23    24    1
     2    24    14    1
     3    14    15   ar
     4    15    16   ar
     5    16    17   ar
     6    17    18   ar
     7    18    19   ar
     8    19    20   ar
     9    20     1    1
    10     1     2    1
    11     3     2    1
    12     3     4    1
    13     4     5    1
    14     5     6    1
    15     6     7    1
    16     7     8    1
    17     8     9    1
    18     9    10    1
    19     3    11    1
    20    11    12    1
    21    12    13    2
    22    20    21   ar
    23    21    22   ar
    24    22    14   ar
    25    22    17   ar
    26    12     1   am
    27     8     3    1
    28    10     5    1
@<TRIPOS>MOLECULE
*****
 24 28 0 0 0
SMALL
GASTEIGER

@<TRIPOS>ATOM
      1 N          -8.2507  -17.0835   22.6757 N.am    1  UNL1       -0.2214
      2 C          -9.3372  -17.8655   23.3524 C.3     1  UNL1        0.1428
      3 C         -10.6497  -17.2213   23.0172 C.3     1  UNL1        0.1706
      4 C         -11.8801  -16.4727   22.5982 C.3     1  UNL1        0.1145
      5 N         -13.2308  -16.9286   23.0649 N.3     1  UNL1       -0.2697
      6 C         -13.3510  -18.1331   23.9507 C.3     1  UNL1        0.0723
      7 C         -12.1206  -18.8817   24.3697 C.3     1  UNL1        0.0209
      8 C         -10.7700  -18.4258   23.9030 C.3     1  UNL1        0.0427
      9 C         -11.2800  -17.4340   23.2350 C.3     1  UNL1        0.0209
     10 C         -11.9363  -17.0348   23.0116 C.3     1  UNL1        0.0723
     11 O         -10.3744  -16.0410   22.1334 O.3     1  UNL1       -0.4384
     12 C          -8.8917  -15.9558   21.9223 C.2     1  UNL1        0.4086
     13 O          -8.1758  -14.9241   21.1019 O.2     1  UNL1       -0.2258
     14 C          -3.8586  -19.7143   21.1884 C.ar    1  UNL1        0.0184
     15 C          -2.4493  -19.5534   21.6762 C.ar    1  UNL1        0.1753
     16 O          -2.4393  -18.4726   22.7162 O.2     1  UNL1       -0.4508
     17 C          -3.8424  -17.9655   22.8713 C.ar    1  UNL1        0.1452
     18 C          -4.4347  -16.9041   23.7504 C.ar    1  UNL1        0.0388
     19 C          -5.9041  -16.6101   23.6852 C.ar    1  UNL1        0.0181
     20 C          -6.7813  -17.3775   22.7409 C.ar    1  UNL1        0.0573
     21 C          -6.1891  -18.4388   21.8619 C.ar    1  UNL1        0.0178
     22 C          -4.7196  -18.7328   21.9271 C.ar    1  UNL1        0.0349
     23 C          -5.7114  -21.2540   20.2159 C.3     1  UNL1        0.0051
     24 C          -4.3250  -20.6859   20.1452 C.3     1  UNL1        0.0297
@<TRIPOS>BOND
     1    23    24    1
     2    24    14    1
     3    14    15   ar
     4    15    16   ar
     5    16    17   ar
     6    17    18   ar
     7    18    19   ar
     8    19    20   ar
     9    20     1    1
    10     1     2    1
    11     3     2    1
    12     3     4    1
    13     4     5    1
    14     5     6    1
    15     6     7    1
    16     7     8    1
    17     8     9    1
    18     9    10    1
    19     3    11    1
    20    11    12    1
    21    12    13    2
    22    20    21   ar
    23    21    22   ar
    24    22    14   ar
    25    22    17   ar
    26    12     1   am
    27     8     3    1
    28    10     5    1
@<TRIPOS>MOLECULE
*****
 24 28 0 0 0
SMALL
GASTEIGER

@<TRIPOS>ATOM
      1 N          -6.8382  -19.6146   20.8441 N.am    1  UNL1       -0.2214
      2 C          -5.7388  -18.8794   21.5517 C.3     1  UNL1        0.1428
      3 C          -4.4405  -19.5514   21.2154 C.3     1  UNL1        0.1706
      4 C          -3.2262  -20.3233   20.7918 C.3     1  UNL1        0.1145
      5 N          -1.8691  -19.9162   21.2845 N.3     1  UNL1       -0.2697
      6 C          -1.7264  -18.7373   22.2008 C.3     1  UNL1        0.0723
      7 C          -2.9408  -17.9654   22.6245 C.3     1  UNL1        0.0209
      8 C          -4.2978  -18.3725   22.1318 C.3     1  UNL1        0.0427
      9 C          -3.8072  -19.3614   21.4454 C.3     1  UNL1        0.0209
     10 C          -3.1596  -19.7731   21.2194 C.3     1  UNL1        0.0723
     11 O          -4.7377  -20.7018   20.2999 O.3     1  UNL1       -0.4384
     12 C          -6.2195  -20.7409   20.0704 C.2     1  UNL1        0.4086
     13 O          -6.9536  -21.7323   19.2171 O.2     1  UNL1       -0.2258
     14 C         -11.3900  -18.6157   23.4340 C.ar    1  UNL1        0.0184
     15 C         -12.7454  -18.2976   22.8758 C.ar    1  UNL1        0.1753
     16 O         -12.6421  -18.2980   21.3794 O.2     1  UNL1       -0.4508
     17 C         -11.2228  -18.6163   21.0127 C.ar    1  UNL1        0.1452
     18 C         -10.5351  -18.7528   19.6866 C.ar    1  UNL1        0.0388
     19 C          -9.0736  -19.0855   19.6304 C.ar    1  UNL1        0.0181
     20 C          -8.2997  -19.2818   20.9003 C.ar    1  UNL1        0.0573
     21 C          -8.9874  -19.1454   22.2263 C.ar    1  UNL1        0.0178
     22 C         -10.4489  -18.8126   22.2825 C.ar    1  UNL1        0.0349
     23 C          -9.7328  -18.1695   25.3845 C.3     1  UNL1        0.0051
     24 C         -11.0374  -18.7186   24.8883 C.3     1  UNL1        0.0297
@<TRIPOS>BOND
     1    23    24    1
     2    24    14    1
     3    14    15   ar
     4    15    16   ar
     5    16    17   ar
     6    17    18   ar
     7    18    19   ar
     8    19    20   ar
     9    20     1    1
    10     1     2    1
    11     3     2    1
    12     3     4    1
    13     4     5    1
    14     5     6    1
    15     6     7    1
    16     7     8    1
    17     8     9    1
    18     9    10    1
    19     3    11    1
    20    11    12    1
    21    12    13    2
    22    20    21   ar
    23    21    22   ar
    24    22    14   ar
    25    22    17   ar
    26    12     1   am
    27     8     3    1
    28    10     5    1
@<TRIPOS>MOLECULE
*****
 24 28 0 0 0
SMALL
GASTEIGER

@<TRIPOS>ATOM
      1 N          -6.9587  -17.6024   23.0717 N.am    1  UNL1       -0.2214
      2 C          -6.0314  -18.5775   22.4089 C.3     1  UNL1        0.1428
      3 C          -4.6302  -18.0665   22.5682 C.3     1  UNL1        0.1706
      4 C          -3.2910  -17.4338   22.8050 C.3     1  UNL1        0.1145
      5 N          -2.0470  -18.0973   22.2929 N.3     1  UNL1       -0.2697
      6 C          -2.1421  -19.3935   21.5442 C.3     1  UNL1        0.0723
      7 C          -3.4813  -20.0262   21.3075 C.3     1  UNL1        0.0209
      8 C          -4.7254  -19.3628   21.8195 C.3     1  UNL1        0.0427
      9 C          -4.0497  -18.3761   22.3293 C.3     1  UNL1        0.0209
     10 C          -3.3354  -18.0387   22.4555 C.3     1  UNL1        0.0723
     11 O          -4.6915  -16.7755   23.3295 O.3     1  UNL1       -0.4384
     12 C          -6.1305  -16.4886   23.6407 C.2     1  UNL1        0.4086
     13 O          -6.6501  -15.2972   24.3893 O.2     1  UNL1       -0.2258
     14 C         -11.8623  -17.3842   20.9906 C.ar    1  UNL1        0.0184
     15 C         -13.1831  -17.6415   21.6533 C.ar    1  UNL1        0.1753
     16 O         -12.9211  -17.9949   23.0874 O.2     1  UNL1       -0.4508
     17 C         -11.4383  -17.9560   23.3109 C.ar    1  UNL1        0.1452
     18 C         -10.5995  -18.2155   24.5271 C.ar    1  UNL1        0.0388
     19 C          -9.1063  -18.0977   24.4474 C.ar    1  UNL1        0.0181
     20 C          -8.4519  -17.7203   23.1515 C.ar    1  UNL1        0.0573
     21 C          -9.2907  -17.4607   21.9353 C.ar    1  UNL1        0.0178
     22 C         -10.7840  -17.5786   22.0151 C.ar    1  UNL1        0.0349
     23 C         -11.5239  -15.5545   19.1775 C.3     1  UNL1        0.0051
     24 C         -11.6560  -17.0000   19.5554 C.3     1  UNL1        0.0297
@<TRIPOS>BOND
     1    23    24    1
     2    24    14    1
     3    14    15   ar
     4    15    16   ar
     5    16    17   ar
     6    17    18   ar
     7    18    19   ar
     8    19    20   ar
     9    20     1    1
    10     1     2    1
    11     3     2    1
    12     3     4    1
    13     4     5    1
    14     5     6    1
    15     6     7    1
    16     7     8    1
    17     8     9    1
    18     9    10    1
    19     3    11    1
    20    11    12    1
    21    12    13    2
    22    20    21   ar
    23    21    22   ar
    24    22    14   ar
    25    22    17   ar
    26    12     1   am
    27     8     3    1
    28    10     5    1
@<TRIPOS>MOLECULE
*****
 24 28 0 0 0
SMALL
GASTEIGER

@<TRIPOS>ATOM
      1 N          -8.1659  -19.1798   20.6108 N.am    1  UNL1       -0.2214
      2 C          -8.9397  -18.3346   21.5787 C.3     1  UNL1        0.1428
      3 C         -10.3613  -18.2704   21.1046 C.3     1  UNL1        0.1706
      4 C         -11.7384  -18.2972   20.5106 C.3     1  UNL1        0.1145
      5 N         -12.8585  -17.5574   21.1799 N.3     1  UNL1       -0.2697
      6 C         -12.6015  -16.7906   22.4433 C.3     1  UNL1        0.0723
      7 C         -11.2244  -16.7638   23.0373 C.3     1  UNL1        0.0209
      8 C         -10.1043  -17.5037   22.3679 C.3     1  UNL1        0.0427
      9 C         -10.8840  -17.9251   21.4170 C.3     1  UNL1        0.0209
     10 C         -11.6185  -17.9394   21.1002 C.3     1  UNL1        0.0723
     11 O         -10.4662  -19.0759   19.8436 O.3     1  UNL1       -0.4384
     12 C          -9.1094  -19.6380   19.5384 C.2     1  UNL1        0.4086
     13 O          -8.7578  -20.5059   18.3666 O.2     1  UNL1       -0.2258
     14 C          -3.1645  -18.2218   22.1896 C.ar    1  UNL1        0.0184
     15 C          -1.9242  -19.0284   21.9429 C.ar    1  UNL1        0.1753
     16 O          -2.3068  -20.2308   21.1319 O.2     1  UNL1       -0.4508
     17 C          -3.7838  -20.1674   20.8774 C.ar    1  UNL1        0.1452
     18 C          -4.7144  -21.0799   20.1349 C.ar    1  UNL1        0.0388
     19 C          -6.1751  -20.7507   20.0460 C.ar    1  UNL1        0.0181
     20 C          -6.7052  -19.5091   20.6996 C.ar    1  UNL1        0.0573
     21 C          -5.7746  -18.5966   21.4422 C.ar    1  UNL1        0.0178
     22 C          -4.3139  -18.9258   21.5310 C.ar    1  UNL1        0.0349
     23 C          -4.3753  -16.7014   23.9135 C.3     1  UNL1        0.0051
     24 C          -3.2420  -16.9369   22.9595 C.3     1  UNL1        0.0297
@<TRIPOS>BOND
     1    23    24    1
     2    24    14    1
     3    14    15   ar
     4    15    16   ar
     5    16    17   ar
     6    17    18   ar
     7    18    19   ar
     8    19    20   ar
     9    20     1    1
    10     1     2    1
    11     3     2    1
    12     3     4    1
    13     4     5    1
    14     5     6    1
    15     6     7    1
    16     7     8    1
    17     8     9    1
    18     9    10    1
    19     3    11    1
    20    11    12    1
    21    12    13    2
    22    20    21   ar
    23    21    22   ar
    24    22    14   ar
    25    22    17   ar
    26    12     1   am
    27     8     3    1
    28    10     5    1
@<TRIPOS>MOLECULE
*****
 24 28 0 0 0
SMALL
GASTEIGER

@<TRIPOS>ATOM
      1 N          -9.4831  -18.6824   21.7958 N.am    1  UNL1       -0.2214
      2 C         -10.2083  -18.8782   23.0942 C.3     1  UNL1        0.1428
      3 C         -11.6095  -18.3706   22.9237 C.3     1  UNL1        0.1706
      4 C         -12.9708  -17.8271   22.6056 C.3     1  UNL1        0.1145
      5 N         -14.0430  -17.8288   23.6546 N.3     1  UNL1       -0.2697
      6 C         -13.7538  -18.3740   25.0217 C.3     1  UNL1        0.0723
      7 C         -12.3924  -18.9175   25.3398 C.3     1  UNL1        0.0209
      8 C         -11.3203  -18.9158   24.2908 C.3     1  UNL1        0.0427
      9 C         -12.1098  -18.3714   23.4132 C.3     1  UNL1        0.0209
     10 C         -12.8359  -18.0815   23.2436 C.3     1  UNL1        0.0723
     11 O         -11.7502  -17.8611   21.5199 O.3     1  UNL1       -0.4384
     12 C         -10.4361  -18.0537   20.8229 C.2     1  UNL1        0.4086
     13 O         -10.1288  -17.6829   19.4023 O.2     1  UNL1       -0.2258
     14 C          -4.2390  -18.4086   22.7169 C.ar    1  UNL1        0.0184
     15 C          -3.1168  -19.1090   22.0097 C.ar    1  UNL1        0.1753
     16 O          -3.7111  -19.9607   20.9273 O.2     1  UNL1       -0.4508
     17 C          -5.2005  -19.7867   20.9657 C.ar    1  UNL1        0.1452
     18 C          -6.3018  -20.3778   20.1363 C.ar    1  UNL1        0.0388
     19 C          -7.7293  -20.0098   20.4130 C.ar    1  UNL1        0.0181
     20 C          -8.0555  -19.0505   21.5191 C.ar    1  UNL1        0.0573
     21 C          -6.9543  -18.4594   22.3484 C.ar    1  UNL1        0.0178
     22 C          -5.5268  -18.8275   22.0717 C.ar    1  UNL1        0.0349
     23 C          -4.7099  -16.0894   23.7888 C.3     1  UNL1        0.0051
     24 C          -4.0981  -17.4566   23.8675 C.3     1  UNL1        0.0297
@<TRIPOS>BOND
     1    23    24    1
     2    24    14    1
     3    14    15   ar
     4    15    16   ar
     5    16    17   ar
     6    17    18   ar
     7    18    19   ar
     8    19    20   ar
     9    20     1    1
    10     1     2    1
    11     3     2    1
    12     3     4    1
    13     4     5    1
    14     5     6    1
    15     6     7    1
    16     7     8    1
    17     8     9    1
    18     9    10    1
    19     3    11    1
    20    11    12    1
    21    12    13    2
    22    20    21   ar
    23    21    22   ar
    24    22    14   ar
    25    22    17   ar
    26    12     1   am
    27     8     3    1
    28    10     5    1
@<TRIPOS>MOLECULE
*****
 24 28 0 0 0
SMALL
GASTEIGER

@<TRIPOS>ATOM
      1 N          -8.0250  -18.9116   20.7610 N.am    1  UNL1       -0.2214
      2 C          -8.8522  -17.9768   21.5929 C.3     1  UNL1        0.1428
      3 C         -10.2383  -17.9499   21.0203 C.3     1  UNL1        0.1706
      4 C         -11.5730  -18.0250   20.3400 C.3     1  UNL1        0.1145
      5 N         -12.7270  -17.2211   20.8616 N.3     1  UNL1       -0.2697
      6 C         -12.5463  -16.3420   22.0634 C.3     1  UNL1        0.0723
      7 C         -11.2116  -16.2669   22.7437 C.3     1  UNL1        0.0209
      8 C         -10.0576  -17.0708   22.2222 C.3     1  UNL1        0.0427
      9 C         -10.7768  -17.5747   21.2637 C.3     1  UNL1        0.0209
     10 C         -11.4887  -17.6148   20.9009 C.3     1  UNL1        0.0723
     11 O         -10.2679  -18.8682   19.8346 O.3     1  UNL1       -0.4384
     12 C          -8.9000  -19.4625   19.6743 C.2     1  UNL1        0.4086
     13 O          -8.4808  -20.4367   18.6136 O.2     1  UNL1       -0.2258
     14 C          -2.8270  -18.4140   19.6857 C.ar    1  UNL1        0.0184
     15 C          -1.6583  -19.0996   20.3292 C.ar    1  UNL1        0.1753
     16 O          -2.1864  -20.0126   21.3957 O.2     1  UNL1       -0.4508
     17 C          -3.6815  -19.8912   21.4114 C.ar    1  UNL1        0.1452
     18 C          -4.7334  -20.5527   22.2515 C.ar    1  UNL1        0.0388
     19 C          -6.1813  -20.2262   22.0347 C.ar    1  UNL1        0.0181
     20 C          -6.5772  -19.2382   20.9778 C.ar    1  UNL1        0.0573
     21 C          -5.5252  -18.5767   20.1377 C.ar    1  UNL1        0.0178
     22 C          -4.0773  -18.9032   20.3546 C.ar    1  UNL1        0.0349
     23 C          -1.7549  -17.5893   17.4675 C.3     1  UNL1        0.0051
     24 C          -2.7575  -17.4145   18.5693 C.3     1  UNL1        0.0297
@<TRIPOS>BOND
     1    23    24    1
     2    24    14    1
     3    14    15   ar
     4    15    16   ar
     5    16    17   ar
     6    17    18   ar
     7    18    19   ar
     8    19    20   ar
     9    20     1    1
    10     1     2    1
    11     3     2    1
    12     3     4    1
    13     4     5    1
    14     5     6    1
    15     6     7    1
    16     7     8    1
    17     8     9    1
    18     9    10    1
    19     3    11    1
    20    11    12    1
    21    12    13    2
    22    20    21   ar
    23    21    22   ar
    24    22    14   ar
    25    22    17   ar
    26    12     1   am
    27     8     3    1
    28    10     5    1
@<TRIPOS>MOLECULE
*****
 24 28 0 0 0
SMALL
GASTEIGER

@<TRIPOS>ATOM
      1 N          -6.5245  -17.1194   22.7207 N.am    1  UNL1       -0.2214
      2 C          -5.7367  -18.2001   22.0413 C.3     1  UNL1        0.1428
      3 C          -4.2958  -18.0334   22.4234 C.3     1  UNL1        0.1706
      4 C          -2.9005  -17.7432   22.8910 C.3     1  UNL1        0.1145
      5 N          -1.7622  -18.6084   22.4372 N.3     1  UNL1       -0.2697
      6 C          -2.0193  -19.7637   21.5158 C.3     1  UNL1        0.0723
      7 C          -3.4147  -20.0539   21.0482 C.3     1  UNL1        0.0209
      8 C          -4.5529  -19.1888   21.5020 C.3     1  UNL1        0.0427
      9 C          -3.7646  -18.4372   22.2116 C.3     1  UNL1        0.0209
     10 C          -3.0204  -18.2824   22.4610 C.3     1  UNL1        0.0723
     11 O          -4.1930  -16.8497   23.3389 O.3     1  UNL1       -0.4384
     12 C          -5.5704  -16.2848   23.5227 C.2     1  UNL1        0.4086
     13 O          -5.9304  -15.0943   24.3612 O.2     1  UNL1       -0.2258
     14 C         -11.5885  -18.3271   23.8701 C.ar    1  UNL1        0.0184
     15 C         -12.8489  -17.6630   23.4009 C.ar    1  UNL1        0.1753
     16 O         -12.4663  -16.5286   22.4972 O.2     1  UNL1       -0.4508
     17 C         -10.9694  -16.4915   22.4079 C.ar    1  UNL1        0.1452
     18 C         -10.0303  -15.5893   21.6636 C.ar    1  UNL1        0.0388
     19 C          -8.5487  -15.7985   21.7679 C.ar    1  UNL1        0.0181
     20 C          -8.0061  -16.9101   22.6164 C.ar    1  UNL1        0.0573
     21 C          -8.9452  -17.8124   23.3607 C.ar    1  UNL1        0.0178
     22 C         -10.4269  -17.6031   23.2564 C.ar    1  UNL1        0.0349
     23 C         -10.3080  -20.4114   24.7451 C.3     1  UNL1        0.0051
     24 C         -11.5044  -19.5079   24.7913 C.3     1  UNL1        0.0297
@<TRIPOS>BOND
     1    23    24    1
     2    24    14    1
     3    14    15   ar
     4    15    16   ar
     5    16    17   ar
     6    17    18   ar
     7    18    19   ar
     8    19    20   ar
     9    20     1    1
    10     1     2    1
    11     3     2    1
    12     3     4    1
    13     4     5    1
    14     5     6    1
    15     6     7    1
    16     7     8    1
    17     8     9    1
    18     9    10    1
    19     3    11    1
    20    11    12    1
    21    12    13    2
    22    20    21   ar
    23    21    22   ar
    24    22    14   ar
    25    22    17   ar
    26    12     1   am
    27     8     3    1
    28    10     5    1
@<TRIPOS>MOLECULE
*****
 24 28 0 0 0
SMALL
GASTEIGER

@<TRIPOS>ATOM
      1 N         -13.8590   -6.4762   18.5255 N.am    1  UNL1       -0.2214
      2 C         -15.1575   -7.0157   19.0478 C.3     1  UNL1        0.1428
      3 C         -15.2525   -8.4594   18.6520 C.3     1  UNL1        0.1706
      4 C         -15.2075   -9.8849   18.1875 C.3     1  UNL1        0.1145
      5 N         -16.3430  -10.8128   18.5031 N.3     1  UNL1       -0.2697
      6 C         -17.5235  -10.3152   19.2833 C.3     1  UNL1        0.0723
      7 C         -17.5685   -8.8897   19.7478 C.3     1  UNL1        0.0209
      8 C         -16.4331   -7.9618   19.4321 C.3     1  UNL1        0.0427
      9 C         -15.7824   -8.8924   18.7993 C.3     1  UNL1        0.0209
     10 C         -15.7584   -9.6527   18.5515 C.3     1  UNL1        0.0723
     11 O         -14.0126   -8.8122   17.8850 O.3     1  UNL1       -0.4384
     12 C         -13.1514   -7.5866   17.8069 C.2     1  UNL1        0.4086
     13 O         -11.8168   -7.4885   17.1291 O.2     1  UNL1       -0.2258
     14 C         -10.7945   -2.3310   17.1654 C.ar    1  UNL1        0.0184
     15 C         -10.7072   -0.9726   17.7955 C.ar    1  UNL1        0.1753
     16 O         -11.6691   -0.9326   18.9458 O.2     1  UNL1       -0.4508
     17 C         -12.3509   -2.2663   19.0266 C.ar    1  UNL1        0.1452
     18 C         -13.3941   -2.8053   19.9599 C.ar    1  UNL1        0.0388
     19 C         -13.8968   -4.2086   19.7930 C.ar    1  UNL1        0.0181
     20 C         -13.3563   -5.0729   18.6926 C.ar    1  UNL1        0.0573
     21 C         -12.3131   -4.5339   17.7592 C.ar    1  UNL1        0.0178
     22 C         -11.8104   -3.1305   17.9263 C.ar    1  UNL1        0.0349
     23 C          -8.8937   -3.7963   16.1708 C.3     1  UNL1        0.0051
     24 C         -10.0046   -2.8064   15.9822 C.3     1  UNL1        0.0297
@<TRIPOS>BOND
     1    23    24    1
     2    24    14    1
     3    14    15   ar
     4    15    16   ar
     5    16    17   ar
     6    17    18   ar
     7    18    19   ar
     8    19    20   ar
     9    20     1    1
    10     1     2    1
    11     3     2    1
    12     3     4    1
    13     4     5    1
    14     5     6    1
    15     6     7    1
    16     7     8    1
    17     8     9    1
    18     9    10    1
    19     3    11    1
    20    11    12    1
    21    12    13    2
    22    20    21   ar
    23    21    22   ar
    24    22    14   ar
    25    22    17   ar
    26    12     1   am
    27     8     3    1
    28    10     5    1
