@<TRIPOS>MOLECULE
*****
 43 46 0 0 0
SMALL
GASTEIGER

@<TRIPOS>ATOM
      1 C           6.0802   -3.2833   21.1562 C.2     1  UNL1        0.2491
      2 O           5.0038   -4.3135   21.3299 O.2     1  UNL1       -0.2727
      3 N           6.0105   -2.3105   20.0165 N.am    1  UNL1       -0.2724
      4 C           7.2263   -3.2259   22.1223 C.3     1  UNL1        0.1934
      5 C           7.7439   -6.1376   24.7688 C.ar    1  UNL1        0.0529
      6 C           7.8032   -5.3596   23.4877 C.ar    1  UNL1        0.0782
      7 N           7.1670   -4.0038   23.4034 N.ar    1  UNL1       -0.2979
      8 C           6.4716   -3.4260   24.6003 C.ar    1  UNL1        0.1750
      9 N           6.4123   -4.2040   25.8814 N.ar    1  UNL1       -0.1847
     10 C           7.0485   -5.5598   25.9656 C.ar    1  UNL1        0.2783
     11 O           6.9892   -6.3378   27.2468 O.2     1  UNL1       -0.2654
     12 C           9.5350   -7.8368   23.9596 C.3     1  UNL1        0.0052
     13 C           8.3801   -7.4934   24.8530 C.3     1  UNL1        0.0328
     14 S           5.8354   -2.0702   24.5160 S.3     1  UNL1       -0.0724
     15 C           4.4170   -1.9351   24.0471 C.3     1  UNL1        0.0913
     16 C           3.9438   -0.6422   23.4517 C.ar    1  UNL1       -0.0108
     17 C           4.7846    0.0655   22.4307 C.ar    1  UNL1       -0.0011
     18 C           4.3114    1.3584   21.8354 C.ar    1  UNL1        0.0293
     19 C           2.9975    1.9437   22.2611 C.ar    1  UNL1        0.1401
     20 F           2.5243    3.2366   21.6658 F       1  UNL1       -0.2042
     21 C           2.1568    1.2360   23.2821 C.ar    1  UNL1        0.0293
     22 C           2.6300   -0.0569   23.8774 C.ar    1  UNL1       -0.0011
     23 C           7.0869   -1.2803   19.8429 C.3     1  UNL1        0.1111
     24 C           7.3880   -0.7328   18.4793 C.3     1  UNL1        0.0939
     25 N           7.8480    0.6867   18.3258 N.3     1  UNL1       -0.2712
     26 C           7.7980    1.3501   16.9815 C.3     1  UNL1        0.0722
     27 C           6.6411    1.0946   16.0615 C.3     1  UNL1        0.0188
     28 C           8.3578    1.4428   19.5167 C.3     1  UNL1        0.0722
     29 C           7.4838    2.4587   20.1906 C.3     1  UNL1        0.0188
     30 C           4.8645   -2.3680   19.0505 C.3     1  UNL1        0.1202
     31 C           3.7777   -1.3361   19.1140 C.ar    1  UNL1       -0.0023
     32 C           2.5749   -1.5659   19.9804 C.ar    1  UNL1       -0.0026
     33 C           1.4881   -0.5339   20.0439 C.ar    1  UNL1       -0.0003
     34 C           1.6040    0.7277   19.2410 C.ar    1  UNL1       -0.0000
     35 C           2.8067    0.9575   18.3745 C.ar    1  UNL1       -0.0003
     36 C           3.8935   -0.0744   18.3110 C.ar    1  UNL1       -0.0026
     37 C           0.5172    1.7596   19.3044 C.ar    1  UNL1        0.0001
     38 C          -0.3355    1.8761   20.5329 C.ar    1  UNL1        0.0009
     39 C          -1.4224    2.9080   20.5964 C.ar    1  UNL1        0.0114
     40 C          -1.6564    3.8234   19.4314 C.ar    1  UNL1        0.0577
     41 CL         -2.7433    4.8553   19.4948 Cl      1  UNL1       -0.0822
     42 C          -0.8036    3.7069   18.2029 C.ar    1  UNL1        0.0114
     43 C           0.2832    2.6750   18.1394 C.ar    1  UNL1        0.0009
@<TRIPOS>BOND
     1    12    13    1
     2    13     5    1
     3     5     6   ar
     4     6     7   ar
     5     7     4    1
     6     4     1    1
     7     1     2    2
     8     1     3   am
     9     3    23    1
    10    23    24    1
    11    24    25    1
    12    25    26    1
    13    26    27    1
    14    25    28    1
    15    28    29    1
    16     3    30    1
    17    30    31    1
    18    31    32   ar
    19    32    33   ar
    20    33    34   ar
    21    34    37    1
    22    37    38   ar
    23    38    39   ar
    24    39    40   ar
    25    40    41    1
    26    40    42   ar
    27    42    43   ar
    28    34    35   ar
    29    35    36   ar
    30     7     8   ar
    31     8    14    1
    32    14    15    1
    33    15    16    1
    34    16    17   ar
    35    17    18   ar
    36    18    19   ar
    37    19    20    1
    38    19    21   ar
    39    21    22   ar
    40     8     9   ar
    41     9    10   ar
    42    10    11    2
    43    10     5   ar
    44    36    31   ar
    45    22    16   ar
    46    43    37   ar
@<TRIPOS>MOLECULE
*****
 43 46 0 0 0
SMALL
GASTEIGER

@<TRIPOS>ATOM
      1 C           3.7305    0.0097   30.1655 C.2     1  UNL1        0.2491
      2 O           5.1233    0.5661   30.1860 O.2     1  UNL1       -0.2727
      3 N           2.8823    0.1563   28.9370 N.am    1  UNL1       -0.2724
      4 C           3.1859   -0.6934   31.3734 C.3     1  UNL1        0.1934
      5 C           3.5966    1.4423   34.6930 C.ar    1  UNL1        0.0529
      6 C           3.1564    1.0261   33.3208 C.ar    1  UNL1        0.0782
      7 N           3.6262   -0.2772   32.7456 N.ar    1  UNL1       -0.2979
      8 C           4.5362   -1.1641   33.5425 C.ar    1  UNL1        0.1750
      9 N           4.9764   -0.7478   34.9147 N.ar    1  UNL1       -0.1847
     10 C           4.5066    0.5554   35.4899 C.ar    1  UNL1        0.2783
     11 O           4.9469    0.9717   36.8622 O.2     1  UNL1       -0.2654
     12 C           2.0603    3.5337   34.5673 C.3     1  UNL1        0.0052
     13 C           3.1268    2.7456   35.2682 C.3     1  UNL1        0.0328
     14 S           5.0060   -2.4673   32.9673 S.3     1  UNL1       -0.0724
     15 C           6.3264   -2.5422   32.2596 C.3     1  UNL1        0.0913
     16 C           6.4684   -3.3801   31.0235 C.ar    1  UNL1       -0.0108
     17 C           6.2225   -2.7734   29.6738 C.ar    1  UNL1       -0.0011
     18 C           6.3645   -3.6113   28.4378 C.ar    1  UNL1        0.0293
     19 C           6.7524   -5.0559   28.5515 C.ar    1  UNL1        0.1401
     20 F           6.8944   -5.8938   27.3154 F       1  UNL1       -0.2042
     21 C           6.9982   -5.6625   29.9011 C.ar    1  UNL1        0.0293
     22 C           6.8562   -4.8246   31.1371 C.ar    1  UNL1       -0.0011
     23 C           1.4895   -0.4001   28.9165 C.3     1  UNL1        0.1111
     24 C           0.3355    0.4503   29.3581 C.3     1  UNL1        0.0939
     25 N           0.1002    1.7863   28.7180 N.3     1  UNL1       -0.2712
     26 C          -0.7205    1.8842   27.4663 C.3     1  UNL1        0.0722
     27 C          -0.2236    2.6928   26.3048 C.3     1  UNL1        0.0188
     28 C           0.6858    3.0245   29.3295 C.3     1  UNL1        0.0722
     29 C           1.3401    2.9578   30.6776 C.3     1  UNL1        0.0188
     30 C           3.4269    0.8594   27.7291 C.3     1  UNL1        0.1202
     31 C           3.5370    0.1302   26.4230 C.ar    1  UNL1       -0.0023
     32 C           4.4833   -1.0256   26.2867 C.ar    1  UNL1       -0.0026
     33 C           4.5933   -1.7549   24.9805 C.ar    1  UNL1       -0.0003
     34 C           3.7571   -1.3283   23.8106 C.ar    1  UNL1       -0.0000
     35 C           2.8108   -0.1724   23.9468 C.ar    1  UNL1       -0.0003
     36 C           2.7008    0.5568   25.2530 C.ar    1  UNL1       -0.0026
     37 C           3.8672   -2.0575   22.5044 C.ar    1  UNL1        0.0001
     38 C           4.5638   -3.3845   22.4427 C.ar    1  UNL1        0.0009
     39 C           4.6739   -4.1137   21.1365 C.ar    1  UNL1        0.0114
     40 C           4.0873   -3.5159   19.8921 C.ar    1  UNL1        0.0577
     41 CL          4.1974   -4.2452   18.5858 Cl      1  UNL1       -0.0822
     42 C           3.3907   -2.1889   19.9538 C.ar    1  UNL1        0.0114
     43 C           3.2806   -1.4597   21.2599 C.ar    1  UNL1        0.0009
@<TRIPOS>BOND
     1    12    13    1
     2    13     5    1
     3     5     6   ar
     4     6     7   ar
     5     7     4    1
     6     4     1    1
     7     1     2    2
     8     1     3   am
     9     3    23    1
    10    23    24    1
    11    24    25    1
    12    25    26    1
    13    26    27    1
    14    25    28    1
    15    28    29    1
    16     3    30    1
    17    30    31    1
    18    31    32   ar
    19    32    33   ar
    20    33    34   ar
    21    34    37    1
    22    37    38   ar
    23    38    39   ar
    24    39    40   ar
    25    40    41    1
    26    40    42   ar
    27    42    43   ar
    28    34    35   ar
    29    35    36   ar
    30     7     8   ar
    31     8    14    1
    32    14    15    1
    33    15    16    1
    34    16    17   ar
    35    17    18   ar
    36    18    19   ar
    37    19    20    1
    38    19    21   ar
    39    21    22   ar
    40     8     9   ar
    41     9    10   ar
    42    10    11    2
    43    10     5   ar
    44    36    31   ar
    45    22    16   ar
    46    43    37   ar
@<TRIPOS>MOLECULE
*****
 43 46 0 0 0
SMALL
GASTEIGER

@<TRIPOS>ATOM
      1 C           5.6246    0.4784   29.1653 C.2     1  UNL1        0.2491
      2 O           6.4947    1.1988   28.1784 O.2     1  UNL1       -0.2727
      3 N           4.1496    0.3609   28.9190 N.am    1  UNL1       -0.2724
      4 C           6.2295   -0.1244   30.3984 C.3     1  UNL1        0.1934
      5 C           6.8063   -3.9111   29.3602 C.ar    1  UNL1        0.0529
      6 C           6.6326   -2.4246   29.2598 C.ar    1  UNL1        0.0782
      7 N           6.4032   -1.6109   30.4989 N.ar    1  UNL1       -0.2979
      8 C           6.3475   -2.2838   31.8383 C.ar    1  UNL1        0.1750
      9 N           6.5212   -3.7703   31.9387 N.ar    1  UNL1       -0.1847
     10 C           6.7506   -4.5839   30.6996 C.ar    1  UNL1        0.2783
     11 O           6.9243   -6.0705   30.8000 O.2     1  UNL1       -0.2654
     12 C           7.1280   -4.0479   26.7857 C.3     1  UNL1        0.0052
     13 C           7.0357   -4.7248   28.1211 C.3     1  UNL1        0.0328
     14 S           6.1181   -1.4701   33.0774 S.3     1  UNL1       -0.0724
     15 C           4.7275   -1.2917   33.6108 C.3     1  UNL1        0.0913
     16 C           4.4414   -0.2134   34.6134 C.ar    1  UNL1       -0.0108
     17 C           4.9287   -0.3536   36.0252 C.ar    1  UNL1       -0.0011
     18 C           4.6426    0.7248   37.0279 C.ar    1  UNL1        0.0293
     19 C           3.8691    1.9432   36.6188 C.ar    1  UNL1        0.1401
     20 F           3.5830    3.0215   37.6215 F       1  UNL1       -0.2042
     21 C           3.3818    2.0833   35.2071 C.ar    1  UNL1        0.0293
     22 C           3.6680    1.0049   34.2044 C.ar    1  UNL1       -0.0011
     23 C           3.2795   -0.3595   29.9060 C.3     1  UNL1        0.1111
     24 C           1.8013   -0.4575   29.6712 C.3     1  UNL1        0.0939
     25 N           0.8979    0.6600   30.1012 N.3     1  UNL1       -0.2712
     26 C           1.3374    1.6079   31.1774 C.3     1  UNL1        0.0722
     27 C           0.5049    2.8129   31.5015 C.3     1  UNL1        0.0188
     28 C          -0.4451    0.8297   29.4550 C.3     1  UNL1        0.0722
     29 C          -1.0254   -0.2796   28.6288 C.3     1  UNL1        0.0188
     30 C           3.5447    0.9637   27.6859 C.3     1  UNL1        0.1202
     31 C           3.6117    0.2273   26.3808 C.ar    1  UNL1       -0.0023
     32 C           2.8932    0.7647   25.1787 C.ar    1  UNL1       -0.0026
     33 C           2.9602    0.0282   23.8736 C.ar    1  UNL1       -0.0003
     34 C           3.7456   -1.2456   23.7707 C.ar    1  UNL1       -0.0000
     35 C           4.4640   -1.7829   24.9728 C.ar    1  UNL1       -0.0003
     36 C           4.3971   -1.0465   26.2779 C.ar    1  UNL1       -0.0026
     37 C           3.8125   -1.9819   22.4657 C.ar    1  UNL1        0.0001
     38 C           3.1962   -1.3851   21.2352 C.ar    1  UNL1        0.0009
     39 C           3.2632   -2.1216   19.9301 C.ar    1  UNL1        0.0114
     40 C           3.9465   -3.4548   19.8555 C.ar    1  UNL1        0.0577
     41 CL          4.0134   -4.1913   18.5504 Cl      1  UNL1       -0.0822
     42 C           4.5628   -4.0516   21.0859 C.ar    1  UNL1        0.0114
     43 C           4.4958   -3.3153   22.3910 C.ar    1  UNL1        0.0009
@<TRIPOS>BOND
     1    12    13    1
     2    13     5    1
     3     5     6   ar
     4     6     7   ar
     5     7     4    1
     6     4     1    1
     7     1     2    2
     8     1     3   am
     9     3    23    1
    10    23    24    1
    11    24    25    1
    12    25    26    1
    13    26    27    1
    14    25    28    1
    15    28    29    1
    16     3    30    1
    17    30    31    1
    18    31    32   ar
    19    32    33   ar
    20    33    34   ar
    21    34    37    1
    22    37    38   ar
    23    38    39   ar
    24    39    40   ar
    25    40    41    1
    26    40    42   ar
    27    42    43   ar
    28    34    35   ar
    29    35    36   ar
    30     7     8   ar
    31     8    14    1
    32    14    15    1
    33    15    16    1
    34    16    17   ar
    35    17    18   ar
    36    18    19   ar
    37    19    20    1
    38    19    21   ar
    39    21    22   ar
    40     8     9   ar
    41     9    10   ar
    42    10    11    2
    43    10     5   ar
    44    36    31   ar
    45    22    16   ar
    46    43    37   ar
@<TRIPOS>MOLECULE
*****
 43 46 0 0 0
SMALL
GASTEIGER

@<TRIPOS>ATOM
      1 C           4.1967   -0.9011   28.2973 C.2     1  UNL1        0.2491
      2 O           3.0973   -1.6758   27.6331 O.2     1  UNL1       -0.2727
      3 N           3.8802    0.0276   29.4320 N.am    1  UNL1       -0.2724
      4 C           5.6127   -1.0550   27.8268 C.3     1  UNL1        0.1934
      5 C           7.0347   -4.7602   27.8351 C.ar    1  UNL1        0.0529
      6 C           6.5470   -3.4281   28.3226 C.ar    1  UNL1        0.0782
      7 N           6.1004   -2.3872   27.3393 N.ar    1  UNL1       -0.2979
      8 C           6.1415   -2.6783   25.8684 C.ar    1  UNL1        0.1750
      9 N           6.6292   -4.0104   25.3809 N.ar    1  UNL1       -0.1847
     10 C           7.0758   -5.0513   26.3642 C.ar    1  UNL1        0.2783
     11 O           7.5635   -6.3834   25.8766 O.2     1  UNL1       -0.2654
     12 C           6.9476   -5.7866   30.2202 C.3     1  UNL1        0.0052
     13 C           7.4813   -5.8011   28.8185 C.3     1  UNL1        0.0328
     14 S           5.6949   -1.6373   24.8850 S.3     1  UNL1       -0.0724
     15 C           4.3147   -1.7004   24.3011 C.3     1  UNL1        0.0913
     16 C           4.1219   -2.1286   22.8765 C.ar    1  UNL1       -0.0108
     17 C           3.3875   -1.2381   21.9185 C.ar    1  UNL1       -0.0011
     18 C           3.1947   -1.6664   20.4939 C.ar    1  UNL1        0.0293
     19 C           3.7363   -2.9851   20.0273 C.ar    1  UNL1        0.1401
     20 F           3.5435   -3.4134   18.6027 F       1  UNL1       -0.2042
     21 C           4.4707   -3.8756   20.9853 C.ar    1  UNL1        0.0293
     22 C           4.6635   -3.4473   22.4099 C.ar    1  UNL1       -0.0011
     23 C           4.9796    0.8023   30.0961 C.3     1  UNL1        0.1111
     24 C           5.7633    0.1829   31.2151 C.3     1  UNL1        0.0939
     25 N           5.1532   -0.9086   32.0436 N.3     1  UNL1       -0.2712
     26 C           4.1414   -0.5728   33.0988 C.3     1  UNL1        0.0722
     27 C           4.4643   -0.7980   34.5462 C.3     1  UNL1        0.0188
     28 C           5.5549   -2.3359   31.8169 C.3     1  UNL1        0.0722
     29 C           6.9814   -2.7544   32.0169 C.3     1  UNL1        0.0188
     30 C           2.4642    0.1815   29.9024 C.3     1  UNL1        0.1202
     31 C           1.4495    0.8479   29.0214 C.ar    1  UNL1       -0.0023
     32 C           0.0677    0.2762   28.9035 C.ar    1  UNL1       -0.0026
     33 C          -0.9470    0.9426   28.0224 C.ar    1  UNL1       -0.0003
     34 C          -0.5800    2.1807   27.2593 C.ar    1  UNL1       -0.0000
     35 C           0.8018    2.7524   27.3772 C.ar    1  UNL1       -0.0003
     36 C           1.8165    2.0860   28.2582 C.ar    1  UNL1       -0.0026
     37 C          -1.5947    2.8470   26.3782 C.ar    1  UNL1        0.0001
     38 C          -1.3317    2.9929   24.9087 C.ar    1  UNL1        0.0009
     39 C          -2.3465    3.6593   24.0277 C.ar    1  UNL1        0.0114
     40 C          -3.6242    4.1798   24.6162 C.ar    1  UNL1        0.0577
     41 CL         -4.6391    4.8462   23.7351 Cl      1  UNL1       -0.0822
     42 C          -3.8873    4.0339   26.0857 C.ar    1  UNL1        0.0114
     43 C          -2.8726    3.3675   26.9667 C.ar    1  UNL1        0.0009
@<TRIPOS>BOND
     1    12    13    1
     2    13     5    1
     3     5     6   ar
     4     6     7   ar
     5     7     4    1
     6     4     1    1
     7     1     2    2
     8     1     3   am
     9     3    23    1
    10    23    24    1
    11    24    25    1
    12    25    26    1
    13    26    27    1
    14    25    28    1
    15    28    29    1
    16     3    30    1
    17    30    31    1
    18    31    32   ar
    19    32    33   ar
    20    33    34   ar
    21    34    37    1
    22    37    38   ar
    23    38    39   ar
    24    39    40   ar
    25    40    41    1
    26    40    42   ar
    27    42    43   ar
    28    34    35   ar
    29    35    36   ar
    30     7     8   ar
    31     8    14    1
    32    14    15    1
    33    15    16    1
    34    16    17   ar
    35    17    18   ar
    36    18    19   ar
    37    19    20    1
    38    19    21   ar
    39    21    22   ar
    40     8     9   ar
    41     9    10   ar
    42    10    11    2
    43    10     5   ar
    44    36    31   ar
    45    22    16   ar
    46    43    37   ar
@<TRIPOS>MOLECULE
*****
 43 46 0 0 0
SMALL
GASTEIGER

@<TRIPOS>ATOM
      1 C           3.5925    0.5122   25.5550 C.2     1  UNL1        0.2491
      2 O           3.6975    1.5944   24.5216 O.2     1  UNL1       -0.2727
      3 N           3.0038    0.8151   26.9011 N.am    1  UNL1       -0.2724
      4 C           4.0761   -0.8728   25.2424 C.3     1  UNL1        0.1934
      5 C           3.1937   -1.1975   21.3867 C.ar    1  UNL1        0.0529
      6 C           3.1982   -0.7034   22.8030 C.ar    1  UNL1        0.0782
      7 N           4.0717   -1.3669   23.8261 N.ar    1  UNL1       -0.2979
      8 C           4.9407   -2.5246   23.4329 C.ar    1  UNL1        0.1750
      9 N           4.9363   -3.0186   22.0166 N.ar    1  UNL1       -0.1847
     10 C           4.0628   -2.3551   20.9935 C.ar    1  UNL1        0.2783
     11 O           4.0584   -2.8492   19.5772 O.2     1  UNL1       -0.2654
     12 C           0.8275   -0.6163   20.4851 C.3     1  UNL1        0.0052
     13 C           2.3203   -0.5339   20.3636 C.3     1  UNL1        0.0328
     14 S           5.8142   -3.1881   24.4560 S.3     1  UNL1       -0.0724
     15 C           7.0110   -3.9803   24.0200 C.3     1  UNL1        0.0913
     16 C           7.3582   -5.2609   24.7196 C.ar    1  UNL1       -0.0108
     17 C           8.1178   -6.3307   23.9924 C.ar    1  UNL1       -0.0011
     18 C           8.4650   -7.6113   24.6920 C.ar    1  UNL1        0.0293
     19 C           8.0526   -7.8222   26.1188 C.ar    1  UNL1        0.1401
     20 F           8.3998   -9.1028   26.8184 F       1  UNL1       -0.2042
     21 C           7.2931   -6.7524   26.8459 C.ar    1  UNL1        0.0293
     22 C           6.9459   -5.4718   26.1463 C.ar    1  UNL1       -0.0011
     23 C           2.8988   -0.2671   27.9344 C.3     1  UNL1        0.1111
     24 C           1.5805   -0.5519   28.5909 C.3     1  UNL1        0.0939
     25 N           1.0524    0.3743   29.6459 N.3     1  UNL1       -0.2712
     26 C           1.9696    0.8997   30.7101 C.3     1  UNL1        0.0722
     27 C           2.1127    2.3789   30.9135 C.3     1  UNL1        0.0188
     28 C          -0.3930    0.7750   29.6368 C.3     1  UNL1        0.0722
     29 C          -1.3483    0.1152   28.6871 C.3     1  UNL1        0.0188
     30 C           2.5202    2.2001   27.2137 C.3     1  UNL1        0.1202
     31 C           1.1217    2.6054   26.8531 C.ar    1  UNL1       -0.0023
     32 C           0.3658    1.8417   25.8066 C.ar    1  UNL1       -0.0026
     33 C          -1.0328    2.2470   25.4460 C.ar    1  UNL1       -0.0003
     34 C          -1.6753    3.4159   26.1320 C.ar    1  UNL1       -0.0000
     35 C          -0.9193    4.1796   27.1786 C.ar    1  UNL1       -0.0003
     36 C           0.4791    3.7744   27.5392 C.ar    1  UNL1       -0.0026
     37 C          -3.0737    3.8212   25.7715 C.ar    1  UNL1        0.0001
     38 C          -3.6005    3.5529   24.3929 C.ar    1  UNL1        0.0009
     39 C          -4.9990    3.9582   24.0324 C.ar    1  UNL1        0.0114
     40 C          -5.8707    4.6317   25.0504 C.ar    1  UNL1        0.0577
     41 CL         -7.2693    5.0370   24.6899 Cl      1  UNL1       -0.0822
     42 C          -5.3440    4.9000   26.4290 C.ar    1  UNL1        0.0114
     43 C          -3.9455    4.4947   26.7896 C.ar    1  UNL1        0.0009
@<TRIPOS>BOND
     1    12    13    1
     2    13     5    1
     3     5     6   ar
     4     6     7   ar
     5     7     4    1
     6     4     1    1
     7     1     2    2
     8     1     3   am
     9     3    23    1
    10    23    24    1
    11    24    25    1
    12    25    26    1
    13    26    27    1
    14    25    28    1
    15    28    29    1
    16     3    30    1
    17    30    31    1
    18    31    32   ar
    19    32    33   ar
    20    33    34   ar
    21    34    37    1
    22    37    38   ar
    23    38    39   ar
    24    39    40   ar
    25    40    41    1
    26    40    42   ar
    27    42    43   ar
    28    34    35   ar
    29    35    36   ar
    30     7     8   ar
    31     8    14    1
    32    14    15    1
    33    15    16    1
    34    16    17   ar
    35    17    18   ar
    36    18    19   ar
    37    19    20    1
    38    19    21   ar
    39    21    22   ar
    40     8     9   ar
    41     9    10   ar
    42    10    11    2
    43    10     5   ar
    44    36    31   ar
    45    22    16   ar
    46    43    37   ar
@<TRIPOS>MOLECULE
*****
 43 46 0 0 0
SMALL
GASTEIGER

@<TRIPOS>ATOM
      1 C          -0.2175    2.3550   20.3261 C.2     1  UNL1        0.2491
      2 O          -0.5967    1.0038   20.8559 O.2     1  UNL1       -0.2727
      3 N           0.5352    2.4695   19.0336 N.am    1  UNL1       -0.2724
      4 C          -0.5911    3.5915   21.0885 C.3     1  UNL1        0.1934
      5 C          -4.2087    3.7186   22.7155 C.ar    1  UNL1        0.0529
      6 C          -3.1113    3.7701   21.6942 C.ar    1  UNL1        0.0782
      7 N          -1.6886    3.5399   22.1099 N.ar    1  UNL1       -0.2979
      8 C          -1.3632    3.2582   23.5468 C.ar    1  UNL1        0.1750
      9 N          -2.4606    3.2067   24.5680 N.ar    1  UNL1       -0.1847
     10 C          -3.8834    3.4369   24.1524 C.ar    1  UNL1        0.2783
     11 O          -4.9808    3.3854   25.1737 O.2     1  UNL1       -0.2654
     12 C          -6.1479    5.3474   22.1353 C.3     1  UNL1        0.0052
     13 C          -5.6315    3.9488   22.2998 C.3     1  UNL1        0.0328
     14 S           0.0595    3.0281   23.9624 S.3     1  UNL1       -0.0724
     15 C           0.5856    1.6295   24.0940 C.3     1  UNL1        0.0913
     16 C           1.9572    1.2934   23.5884 C.ar    1  UNL1       -0.0108
     17 C           2.5786    2.1186   22.5007 C.ar    1  UNL1       -0.0011
     18 C           3.9503    1.7825   21.9951 C.ar    1  UNL1        0.0293
     19 C           4.7005    0.6213   22.5772 C.ar    1  UNL1        0.1401
     20 F           6.0722    0.2852   22.0717 F       1  UNL1       -0.2042
     21 C           4.0791   -0.2038   23.6649 C.ar    1  UNL1        0.0293
     22 C           2.7074    0.1323   24.1705 C.ar    1  UNL1       -0.0011
     23 C           0.9144    3.8206   18.5038 C.3     1  UNL1        0.1111
     24 C           2.3420    4.1134   18.1487 C.3     1  UNL1        0.0939
     25 N           3.3187    4.4945   19.2215 N.3     1  UNL1       -0.2712
     26 C           2.8412    5.2086   20.4512 C.3     1  UNL1        0.0722
     27 C           3.8030    5.5180   21.5599 C.3     1  UNL1        0.0188
     28 C           4.7728    4.1616   19.0647 C.3     1  UNL1        0.0722
     29 C           5.3042    3.7326   17.7292 C.3     1  UNL1        0.0188
     30 C           0.9089    1.2330   18.2712 C.3     1  UNL1        0.1202
     31 C           2.0333    0.3655   18.7537 C.ar    1  UNL1       -0.0023
     32 C           1.7645   -0.7294   19.7432 C.ar    1  UNL1       -0.0026
     33 C           2.8891   -1.5970   20.2257 C.ar    1  UNL1       -0.0003
     34 C           4.2824   -1.3696   19.7188 C.ar    1  UNL1       -0.0000
     35 C           4.5512   -0.2747   18.7293 C.ar    1  UNL1       -0.0003
     36 C           3.4267    0.5928   18.2468 C.ar    1  UNL1       -0.0026
     37 C           5.4069   -2.2371   20.2013 C.ar    1  UNL1        0.0001
     38 C           6.6929   -2.2953   19.4314 C.ar    1  UNL1        0.0009
     39 C           7.8174   -3.1629   19.9140 C.ar    1  UNL1        0.0114
     40 C           7.6559   -3.9722   21.1665 C.ar    1  UNL1        0.0577
     41 CL          8.7804   -4.8398   21.6491 Cl      1  UNL1       -0.0822
     42 C           6.3699   -3.9141   21.9364 C.ar    1  UNL1        0.0114
     43 C           5.2454   -3.0466   21.4539 C.ar    1  UNL1        0.0009
@<TRIPOS>BOND
     1    12    13    1
     2    13     5    1
     3     5     6   ar
     4     6     7   ar
     5     7     4    1
     6     4     1    1
     7     1     2    2
     8     1     3   am
     9     3    23    1
    10    23    24    1
    11    24    25    1
    12    25    26    1
    13    26    27    1
    14    25    28    1
    15    28    29    1
    16     3    30    1
    17    30    31    1
    18    31    32   ar
    19    32    33   ar
    20    33    34   ar
    21    34    37    1
    22    37    38   ar
    23    38    39   ar
    24    39    40   ar
    25    40    41    1
    26    40    42   ar
    27    42    43   ar
    28    34    35   ar
    29    35    36   ar
    30     7     8   ar
    31     8    14    1
    32    14    15    1
    33    15    16    1
    34    16    17   ar
    35    17    18   ar
    36    18    19   ar
    37    19    20    1
    38    19    21   ar
    39    21    22   ar
    40     8     9   ar
    41     9    10   ar
    42    10    11    2
    43    10     5   ar
    44    36    31   ar
    45    22    16   ar
    46    43    37   ar
@<TRIPOS>MOLECULE
*****
 43 46 0 0 0
SMALL
GASTEIGER

@<TRIPOS>ATOM
      1 C           0.7151    0.7819   20.1076 C.2     1  UNL1        0.2491
      2 O          -0.2143   -0.1794   20.7873 O.2     1  UNL1       -0.2727
      3 N           2.0014    0.2888   19.5139 N.am    1  UNL1       -0.2724
      4 C           0.3583    2.2363   20.0216 C.3     1  UNL1        0.1934
      5 C          -3.3025    3.5400   20.8270 C.ar    1  UNL1        0.0529
      6 C          -2.1210    3.0115   20.0690 C.ar    1  UNL1        0.0782
      7 N          -0.8233    2.7649   20.7796 N.ar    1  UNL1       -0.2979
      8 C          -0.7070    3.0468   22.2483 C.ar    1  UNL1        0.1750
      9 N          -1.8886    3.5753   23.0063 N.ar    1  UNL1       -0.1847
     10 C          -3.1863    3.8219   22.2956 C.ar    1  UNL1        0.2783
     11 O          -4.3679    4.3504   23.0537 O.2     1  UNL1       -0.2654
     12 C          -4.6546    3.7447   18.6180 C.3     1  UNL1        0.0052
     13 C          -4.6003    3.7866   20.1163 C.3     1  UNL1        0.0328
     14 S           0.5907    2.8001   22.9589 S.3     1  UNL1       -0.0724
     15 C           0.8134    1.5077   23.6869 C.3     1  UNL1        0.0913
     16 C           0.6872    1.4569   25.1807 C.ar    1  UNL1       -0.0108
     17 C           1.8867    1.1418   26.0245 C.ar    1  UNL1       -0.0011
     18 C           1.7605    1.0911   27.5183 C.ar    1  UNL1        0.0293
     19 C           0.4347    1.3554   28.1684 C.ar    1  UNL1        0.1401
     20 F           0.3085    1.3046   29.6622 F       1  UNL1       -0.2042
     21 C          -0.7647    1.6705   27.3246 C.ar    1  UNL1        0.0293
     22 C          -0.6385    1.7213   25.8308 C.ar    1  UNL1       -0.0011
     23 C           2.9308    1.2501   18.8342 C.3     1  UNL1        0.1111
     24 C           4.1236    0.7365   18.0836 C.3     1  UNL1        0.0939
     25 N           5.4331    0.5526   18.7917 N.3     1  UNL1       -0.2712
     26 C           6.5680   -0.1436   18.1008 C.3     1  UNL1        0.0722
     27 C           6.6152   -1.6424   18.0603 C.3     1  UNL1        0.0188
     28 C           5.6078    1.0649   20.1906 C.3     1  UNL1        0.0722
     29 C           6.4606    0.3082   21.1654 C.3     1  UNL1        0.0188
     30 C           2.3582   -1.1656   19.6000 C.3     1  UNL1        0.1202
     31 C           3.1976   -1.6657   20.7380 C.ar    1  UNL1       -0.0023
     32 C           3.0916   -1.0210   22.0882 C.ar    1  UNL1       -0.0026
     33 C           3.9311   -1.5212   23.2262 C.ar    1  UNL1       -0.0003
     34 C           4.8765   -2.6662   23.0141 C.ar    1  UNL1       -0.0000
     35 C           4.9826   -3.3110   21.6639 C.ar    1  UNL1       -0.0003
     36 C           4.1432   -2.8108   20.5259 C.ar    1  UNL1       -0.0026
     37 C           5.7160   -3.1664   24.1521 C.ar    1  UNL1        0.0001
     38 C           5.6640   -2.4757   25.4825 C.ar    1  UNL1        0.0009
     39 C           6.5035   -2.9759   26.6206 C.ar    1  UNL1        0.0114
     40 C           7.3949   -4.1669   26.4281 C.ar    1  UNL1        0.0577
     41 CL          8.2344   -4.6671   27.5662 Cl      1  UNL1       -0.0822
     42 C           7.4468   -4.8576   25.0976 C.ar    1  UNL1        0.0114
     43 C           6.6074   -4.3574   23.9596 C.ar    1  UNL1        0.0009
@<TRIPOS>BOND
     1    12    13    1
     2    13     5    1
     3     5     6   ar
     4     6     7   ar
     5     7     4    1
     6     4     1    1
     7     1     2    2
     8     1     3   am
     9     3    23    1
    10    23    24    1
    11    24    25    1
    12    25    26    1
    13    26    27    1
    14    25    28    1
    15    28    29    1
    16     3    30    1
    17    30    31    1
    18    31    32   ar
    19    32    33   ar
    20    33    34   ar
    21    34    37    1
    22    37    38   ar
    23    38    39   ar
    24    39    40   ar
    25    40    41    1
    26    40    42   ar
    27    42    43   ar
    28    34    35   ar
    29    35    36   ar
    30     7     8   ar
    31     8    14    1
    32    14    15    1
    33    15    16    1
    34    16    17   ar
    35    17    18   ar
    36    18    19   ar
    37    19    20    1
    38    19    21   ar
    39    21    22   ar
    40     8     9   ar
    41     9    10   ar
    42    10    11    2
    43    10     5   ar
    44    36    31   ar
    45    22    16   ar
    46    43    37   ar
@<TRIPOS>MOLECULE
*****
 43 46 0 0 0
SMALL
GASTEIGER

@<TRIPOS>ATOM
      1 C           6.4523   -4.0907   28.1462 C.2     1  UNL1        0.2491
      2 O           5.7976   -5.4022   28.4648 O.2     1  UNL1       -0.2727
      3 N           7.0224   -3.2495   29.2496 N.am    1  UNL1       -0.2724
      4 C           6.5369   -3.6205   26.7244 C.3     1  UNL1        0.1934
      5 C           8.3961   -6.6661   24.9872 C.ar    1  UNL1        0.0529
      6 C           7.8597   -5.7521   26.0487 C.ar    1  UNL1        0.0782
      7 N           7.0733   -4.5345   25.6628 N.ar    1  UNL1       -0.2979
      8 C           6.8233   -4.2309   24.2153 C.ar    1  UNL1        0.1750
      9 N           7.3596   -5.1449   23.1538 N.ar    1  UNL1       -0.1847
     10 C           8.1461   -6.3625   23.5397 C.ar    1  UNL1        0.2783
     11 O           8.6824   -7.2765   22.4781 O.2     1  UNL1       -0.2654
     12 C           9.1023   -8.4156   26.7733 C.3     1  UNL1        0.0052
     13 C           9.1825   -7.8837   25.3732 C.3     1  UNL1        0.0328
     14 S           6.0368   -3.0133   23.8293 S.3     1  UNL1       -0.0724
     15 C           4.6776   -3.1626   23.2128 C.3     1  UNL1        0.0913
     16 C           4.4603   -2.7886   21.7765 C.ar    1  UNL1       -0.0108
     17 C           3.5315   -1.6638   21.4267 C.ar    1  UNL1       -0.0011
     18 C           3.3141   -1.2898   19.9905 C.ar    1  UNL1        0.0293
     19 C           4.0257   -2.0404   18.9040 C.ar    1  UNL1        0.1401
     20 F           3.8084   -1.6663   17.4678 F       1  UNL1       -0.2042
     21 C           4.9545   -3.1651   19.2539 C.ar    1  UNL1        0.0293
     22 C           5.1718   -3.5392   20.6901 C.ar    1  UNL1       -0.0011
     23 C           7.6771   -1.9381   28.9311 C.3     1  UNL1        0.1111
     24 C           6.8443   -0.7723   28.4872 C.3     1  UNL1        0.0939
     25 N           5.6123   -0.3950   29.2553 N.3     1  UNL1       -0.2712
     26 C           4.2823   -0.9718   28.8700 C.3     1  UNL1        0.0722
     27 C           3.0393   -0.5348   29.5869 C.3     1  UNL1        0.0188
     28 C           5.7103    0.5590   30.4086 C.3     1  UNL1        0.0722
     29 C           6.9617    1.3598   30.6153 C.3     1  UNL1        0.0188
     30 C           6.9378   -3.7198   30.6715 C.3     1  UNL1        0.1202
     31 C           6.5518   -2.7596   31.7572 C.ar    1  UNL1       -0.0023
     32 C           5.1108   -2.6044   32.1439 C.ar    1  UNL1       -0.0026
     33 C           4.7248   -1.6441   33.2297 C.ar    1  UNL1       -0.0003
     34 C           5.7798   -0.8390   33.9288 C.ar    1  UNL1       -0.0000
     35 C           7.2208   -0.9942   33.5422 C.ar    1  UNL1       -0.0003
     36 C           7.6068   -1.9544   32.4564 C.ar    1  UNL1       -0.0026
     37 C           5.3938    0.1212   35.0146 C.ar    1  UNL1        0.0001
     38 C           4.6711   -0.3744   36.2320 C.ar    1  UNL1        0.0009
     39 C           4.2851    0.5860   37.3178 C.ar    1  UNL1        0.0114
     40 C           4.6218    2.0417   37.1861 C.ar    1  UNL1        0.0577
     41 CL          4.2358    3.0020   38.2719 Cl      1  UNL1       -0.0822
     42 C           5.3445    2.5372   35.9687 C.ar    1  UNL1        0.0114
     43 C           5.7305    1.5770   34.8830 C.ar    1  UNL1        0.0009
@<TRIPOS>BOND
     1    12    13    1
     2    13     5    1
     3     5     6   ar
     4     6     7   ar
     5     7     4    1
     6     4     1    1
     7     1     2    2
     8     1     3   am
     9     3    23    1
    10    23    24    1
    11    24    25    1
    12    25    26    1
    13    26    27    1
    14    25    28    1
    15    28    29    1
    16     3    30    1
    17    30    31    1
    18    31    32   ar
    19    32    33   ar
    20    33    34   ar
    21    34    37    1
    22    37    38   ar
    23    38    39   ar
    24    39    40   ar
    25    40    41    1
    26    40    42   ar
    27    42    43   ar
    28    34    35   ar
    29    35    36   ar
    30     7     8   ar
    31     8    14    1
    32    14    15    1
    33    15    16    1
    34    16    17   ar
    35    17    18   ar
    36    18    19   ar
    37    19    20    1
    38    19    21   ar
    39    21    22   ar
    40     8     9   ar
    41     9    10   ar
    42    10    11    2
    43    10     5   ar
    44    36    31   ar
    45    22    16   ar
    46    43    37   ar
@<TRIPOS>MOLECULE
*****
 43 46 0 0 0
SMALL
GASTEIGER

@<TRIPOS>ATOM
      1 C           3.8165   -0.2233   25.1698 C.2     1  UNL1        0.2491
      2 O           3.7636    0.4296   23.8204 O.2     1  UNL1       -0.2727
      3 N           3.5067    0.5747   26.4016 N.am    1  UNL1       -0.2724
      4 C           4.1790   -1.6740   25.2874 C.3     1  UNL1        0.1934
      5 C           4.7632   -3.1093   21.6338 C.ar    1  UNL1        0.0529
      6 C           4.1299   -2.3981   22.7928 C.ar    1  UNL1        0.0782
      7 N           4.8124   -2.3852   24.1285 N.ar    1  UNL1       -0.2979
      8 C           6.1281   -3.0834   24.3052 C.ar    1  UNL1        0.1750
      9 N           6.7614   -3.7945   23.1463 N.ar    1  UNL1       -0.1847
     10 C           6.0790   -3.8075   21.8106 C.ar    1  UNL1        0.2783
     11 O           6.7123   -4.5187   20.6516 O.2     1  UNL1       -0.2654
     12 C           3.1784   -1.9900   19.9060 C.3     1  UNL1        0.0052
     13 C           4.0808   -3.1222   20.2981 C.3     1  UNL1        0.0328
     14 S           6.8106   -3.0705   25.6409 S.3     1  UNL1       -0.0724
     15 C           6.9250   -4.3366   26.4370 C.3     1  UNL1        0.0913
     16 C           6.8439   -4.2911   27.9341 C.ar    1  UNL1       -0.0108
     17 C           6.6333   -2.9814   28.6344 C.ar    1  UNL1       -0.0011
     18 C           6.5522   -2.9359   30.1315 C.ar    1  UNL1        0.0293
     19 C           6.6817   -4.2002   30.9284 C.ar    1  UNL1        0.1401
     20 F           6.6006   -4.1548   32.4255 F       1  UNL1       -0.2042
     21 C           6.8923   -5.5099   30.2281 C.ar    1  UNL1        0.0293
     22 C           6.9733   -5.5553   28.7310 C.ar    1  UNL1       -0.0011
     23 C           3.5596   -0.0781   27.7511 C.3     1  UNL1        0.1111
     24 C           2.3065   -0.6219   28.3708 C.3     1  UNL1        0.0939
     25 N           1.4017    0.2843   29.1518 N.3     1  UNL1       -0.2712
     26 C           1.9668    1.4800   29.8595 C.3     1  UNL1        0.0722
     27 C           1.0488    2.4529   30.5384 C.3     1  UNL1        0.0188
     28 C          -0.0683   -0.0052   29.2251 C.3     1  UNL1        0.0722
     29 C          -0.9881    0.5088   28.1575 C.3     1  UNL1        0.0188
     30 C           3.1442    2.0254   26.2840 C.3     1  UNL1        0.1202
     31 C           1.7137    2.4266   26.0772 C.ar    1  UNL1       -0.0023
     32 C           1.1264    3.5500   26.8791 C.ar    1  UNL1       -0.0026
     33 C          -0.3042    3.9511   26.6723 C.ar    1  UNL1       -0.0003
     34 C          -1.1473    3.2288   25.6637 C.ar    1  UNL1       -0.0000
     35 C          -0.5600    2.1054   24.8618 C.ar    1  UNL1       -0.0003
     36 C           0.8705    1.7043   25.0686 C.ar    1  UNL1       -0.0026
     37 C          -2.5778    3.6300   25.4569 C.ar    1  UNL1        0.0001
     38 C          -3.4217    4.0302   26.6307 C.ar    1  UNL1        0.0009
     39 C          -4.8522    4.4313   26.4238 C.ar    1  UNL1        0.0114
     40 C          -5.4388    4.4323   25.0433 C.ar    1  UNL1        0.0577
     41 CL         -6.8694    4.8334   24.8365 Cl      1  UNL1       -0.0822
     42 C          -4.5949    4.0320   23.8696 C.ar    1  UNL1        0.0114
     43 C          -3.1645    3.6309   24.0763 C.ar    1  UNL1        0.0009
@<TRIPOS>BOND
     1    12    13    1
     2    13     5    1
     3     5     6   ar
     4     6     7   ar
     5     7     4    1
     6     4     1    1
     7     1     2    2
     8     1     3   am
     9     3    23    1
    10    23    24    1
    11    24    25    1
    12    25    26    1
    13    26    27    1
    14    25    28    1
    15    28    29    1
    16     3    30    1
    17    30    31    1
    18    31    32   ar
    19    32    33   ar
    20    33    34   ar
    21    34    37    1
    22    37    38   ar
    23    38    39   ar
    24    39    40   ar
    25    40    41    1
    26    40    42   ar
    27    42    43   ar
    28    34    35   ar
    29    35    36   ar
    30     7     8   ar
    31     8    14    1
    32    14    15    1
    33    15    16    1
    34    16    17   ar
    35    17    18   ar
    36    18    19   ar
    37    19    20    1
    38    19    21   ar
    39    21    22   ar
    40     8     9   ar
    41     9    10   ar
    42    10    11    2
    43    10     5   ar
    44    36    31   ar
    45    22    16   ar
    46    43    37   ar
