@<TRIPOS>MOLECULE
*****
 38 42 0 0 0
SMALL
GASTEIGER

@<TRIPOS>ATOM
      1 N          -8.9115  -17.8568   21.1837 N.3     1  UNL1       -0.2679
      2 C         -10.3485  -17.4343   21.2641 C.3     1  UNL1        0.0978
      3 C         -10.9428  -16.5863   20.1790 C.3     1  UNL1        0.0224
      4 C         -12.3798  -16.1639   20.2594 C.3     1  UNL1        0.0065
      5 C         -13.2225  -16.5894   21.4250 C.3     1  UNL1        0.0277
      6 C         -12.6282  -17.4374   22.5102 C.ar    1  UNL1       -0.0073
      7 C         -13.4709  -17.8630   23.6759 C.ar    1  UNL1       -0.0015
      8 C         -12.8766  -18.7110   24.7611 C.ar    1  UNL1        0.0203
      9 C         -11.4396  -19.1335   24.6806 C.ar    1  UNL1        0.0985
     10 N         -10.5969  -18.7079   23.5150 N.ar    1  UNL1       -0.2471
     11 C         -11.1912  -17.8599   22.4297 C.ar    1  UNL1        0.0695
     12 C          -8.5652  -19.2971   20.9480 C.3     1  UNL1        0.0725
     13 C          -7.2802  -19.6572   20.2630 C.3     1  UNL1        0.0187
     14 C          -5.2302  -19.2055   19.9577 C.3     1  UNL1        0.0014
     15 C          -6.0251  -19.8299   21.0660 C.3     1  UNL1        0.0158
     16 C          -6.8200  -20.4543   22.1742 C.3     1  UNL1        0.0014
     17 C          -4.7699  -20.0026   21.8689 C.3     1  UNL1        0.0685
     18 N          -4.4979  -19.1031   23.0381 N.3     1  UNL1       -0.2975
     19 H          -4.7631  -19.6209   23.8759 H       1  UNL1        0.1232
     20 C          -3.1126  -18.5780   23.2740 C.3     1  UNL1        0.0687
     21 C          -2.3007  -18.0607   22.1237 C.3     1  UNL1        0.0207
     22 C          -2.0952  -16.5845   21.9547 C.3     1  UNL1        0.0335
     23 C          -1.2832  -16.0672   20.8044 C.3     1  UNL1        0.1422
     24 O          -0.6769  -17.0260   19.8232 O.3     1  UNL1       -0.3538
     25 C          -0.8824  -18.5023   19.9921 C.3     1  UNL1        0.1422
     26 C          -1.6943  -19.0196   21.1424 C.3     1  UNL1        0.0335
     27 C          -7.8207  -16.8390   21.3388 C.3     1  UNL1        0.0886
     28 C          -7.3533  -16.4433   22.7082 C.3     1  UNL1        0.0748
     29 C          -8.3533  -16.1748   23.7935 C.3     1  UNL1        0.0432
     30 C          -7.8860  -15.7791   25.1628 C.ar    1  UNL1       -0.0234
     31 C          -8.8860  -15.5106   26.2481 C.ar    1  UNL1       -0.0045
     32 C          -8.4187  -15.1149   27.6174 C.ar    1  UNL1       -0.0003
     33 C          -6.9513  -14.9877   27.9014 C.ar    1  UNL1       -0.0003
     34 C          -5.9513  -15.2562   26.8161 C.ar    1  UNL1       -0.0032
     35 C          -6.4186  -15.6519   25.4469 C.ar    1  UNL1       -0.0103
     36 C          -5.4186  -15.9204   24.3615 C.3     1  UNL1        0.0953
     37 N          -5.8860  -16.3161   22.9922 N.3     1  UNL1       -0.2934
     38 H          -5.4670  -17.2236   22.7889 H       1  UNL1        0.1236
@<TRIPOS>BOND
     1    14    15    1
     2    15    16    1
     3    15    13    1
     4    13    12    1
     5    12     1    1
     6     1    27    1
     7    28    27    1
     8    28    29    1
     9    29    30    1
    10    30    31   ar
    11    31    32   ar
    12    32    33   ar
    13    33    34   ar
    14    34    35   ar
    15    35    36    1
    16    36    37    1
    17     2     1    1
    18     2     3    1
    19     3     4    1
    20     4     5    1
    21     5     6    1
    22     6     7   ar
    23     7     8   ar
    24     8     9   ar
    25     9    10   ar
    26    10    11   ar
    27    15    17    1
    28    17    18    1
    29    18    20    1
    30    20    21    1
    31    21    22    1
    32    22    23    1
    33    23    24    1
    34    24    25    1
    35    25    26    1
    36    37    28    1
    37    11     2    1
    38    26    21    1
    39    35    30   ar
    40    11     6   ar
    41    37    38    1
    42    18    19    1
@<TRIPOS>MOLECULE
*****
 38 42 0 0 0
SMALL
GASTEIGER

@<TRIPOS>ATOM
      1 N          -8.8317  -18.4388   21.2266 N.3     1  UNL1       -0.2679
      2 C          -9.4845  -19.0588   22.4264 C.3     1  UNL1        0.0978
      3 C          -8.7852  -20.1507   23.1804 C.3     1  UNL1        0.0224
      4 C          -9.4381  -20.7706   24.3802 C.3     1  UNL1        0.0065
      5 C         -10.7903  -20.2987   24.8259 C.3     1  UNL1        0.0277
      6 C         -11.4897  -19.2068   24.0718 C.ar    1  UNL1       -0.0073
      7 C         -12.8420  -18.7349   24.5175 C.ar    1  UNL1       -0.0015
      8 C         -13.5413  -17.6430   23.7634 C.ar    1  UNL1        0.0203
      9 C         -12.8885  -17.0230   22.5637 C.ar    1  UNL1        0.0985
     10 N         -11.5362  -17.4950   22.1180 N.ar    1  UNL1       -0.2471
     11 C         -10.8368  -18.5869   22.8720 C.ar    1  UNL1        0.0695
     12 C          -8.8246  -19.1682   19.9159 C.3     1  UNL1        0.0725
     13 C          -7.5220  -19.5216   19.2613 C.3     1  UNL1        0.0187
     14 C          -5.7256  -18.5607   19.8522 C.3     1  UNL1        0.0014
     15 C          -6.3404  -19.9059   20.1015 C.3     1  UNL1        0.0158
     16 C          -6.9551  -21.2512   20.3507 C.3     1  UNL1        0.0014
     17 C          -5.1587  -20.2903   20.9416 C.3     1  UNL1        0.0685
     18 N          -4.9244  -19.6146   22.2602 N.3     1  UNL1       -0.2975
     19 H          -5.3634  -20.1982   22.9722 H       1  UNL1        0.1232
     20 C          -3.5244  -19.3432   22.7255 C.3     1  UNL1        0.0687
     21 C          -2.6188  -18.4696   21.9090 C.3     1  UNL1        0.0207
     22 C          -1.8332  -19.0568   20.7742 C.3     1  UNL1        0.0335
     23 C          -0.9276  -18.1833   19.9577 C.3     1  UNL1        0.1422
     24 O          -0.8076  -16.7224   20.2760 O.3     1  UNL1       -0.3538
     25 C          -1.5932  -16.1350   21.4109 C.3     1  UNL1        0.1422
     26 C          -2.4988  -17.0086   22.2274 C.3     1  UNL1        0.0335
     27 C          -8.1859  -17.0896   21.3376 C.3     1  UNL1        0.0886
     28 C          -7.5927  -16.6470   22.6423 C.3     1  UNL1        0.0748
     29 C          -8.4892  -16.2666   23.7831 C.3     1  UNL1        0.0432
     30 C          -7.8960  -15.8240   25.0879 C.ar    1  UNL1       -0.0234
     31 C          -8.7926  -15.4437   26.2287 C.ar    1  UNL1       -0.0045
     32 C          -8.1994  -15.0011   27.5334 C.ar    1  UNL1       -0.0003
     33 C          -6.7096  -14.9389   27.6972 C.ar    1  UNL1       -0.0003
     34 C          -5.8131  -15.3193   26.5564 C.ar    1  UNL1       -0.0032
     35 C          -6.4063  -15.7618   25.2518 C.ar    1  UNL1       -0.0103
     36 C          -5.5098  -16.1422   24.1108 C.3     1  UNL1        0.0953
     37 N          -6.1030  -16.5848   22.8062 N.3     1  UNL1       -0.2934
     38 H          -5.7473  -17.5233   22.6243 H       1  UNL1        0.1236
@<TRIPOS>BOND
     1    14    15    1
     2    15    16    1
     3    15    13    1
     4    13    12    1
     5    12     1    1
     6     1    27    1
     7    28    27    1
     8    28    29    1
     9    29    30    1
    10    30    31   ar
    11    31    32   ar
    12    32    33   ar
    13    33    34   ar
    14    34    35   ar
    15    35    36    1
    16    36    37    1
    17     2     1    1
    18     2     3    1
    19     3     4    1
    20     4     5    1
    21     5     6    1
    22     6     7   ar
    23     7     8   ar
    24     8     9   ar
    25     9    10   ar
    26    10    11   ar
    27    15    17    1
    28    17    18    1
    29    18    20    1
    30    20    21    1
    31    21    22    1
    32    22    23    1
    33    23    24    1
    34    24    25    1
    35    25    26    1
    36    37    28    1
    37    11     2    1
    38    26    21    1
    39    35    30   ar
    40    11     6   ar
    41    37    38    1
    42    18    19    1
@<TRIPOS>MOLECULE
*****
 38 42 0 0 0
SMALL
GASTEIGER

@<TRIPOS>ATOM
      1 N          -7.2927  -19.1896   22.2104 N.3     1  UNL1       -0.2679
      2 C          -6.1960  -19.7671   21.3656 C.3     1  UNL1        0.0978
      3 C          -6.5275  -20.7162   20.2524 C.3     1  UNL1        0.0224
      4 C          -5.4308  -21.2936   19.4075 C.3     1  UNL1        0.0065
      5 C          -4.0025  -20.9220   19.6759 C.3     1  UNL1        0.0277
      6 C          -3.6711  -19.9729   20.7891 C.ar    1  UNL1       -0.0073
      7 C          -2.2428  -19.6011   21.0575 C.ar    1  UNL1       -0.0015
      8 C          -1.9113  -18.6520   22.1707 C.ar    1  UNL1        0.0203
      9 C          -3.0080  -18.0746   23.0155 C.ar    1  UNL1        0.0985
     10 N          -4.4362  -18.4462   22.7472 N.ar    1  UNL1       -0.2471
     11 C          -4.7678  -19.3954   21.6339 C.ar    1  UNL1        0.0695
     12 C          -8.1269  -20.0889   23.0737 C.3     1  UNL1        0.0725
     13 C          -9.5620  -20.3470   22.7212 C.3     1  UNL1        0.0187
     14 C          -9.9079  -19.6770   24.7039 C.3     1  UNL1        0.0014
     15 C         -10.6525  -19.5774   23.4056 C.3     1  UNL1        0.0158
     16 C         -11.3971  -19.4779   22.1073 C.3     1  UNL1        0.0014
     17 C         -11.7430  -18.8078   24.0901 C.3     1  UNL1        0.0685
     18 N         -12.8741  -18.2356   23.2881 N.3     1  UNL1       -0.2975
     19 H         -13.7303  -18.4270   23.8084 H       1  UNL1        0.1232
     20 C         -12.8900  -16.7741   22.9507 C.3     1  UNL1        0.0687
     21 C         -12.0780  -16.2615   21.7984 C.3     1  UNL1        0.0207
     22 C         -10.6704  -15.7939   22.0220 C.3     1  UNL1        0.0335
     23 C          -9.8583  -15.2814   20.8697 C.3     1  UNL1        0.1422
     24 O         -10.4539  -15.2364   19.4937 O.3     1  UNL1       -0.3538
     25 C         -11.8615  -15.7040   19.2700 C.3     1  UNL1        0.1422
     26 C         -12.6736  -16.2166   20.4223 C.3     1  UNL1        0.0335
     27 C          -7.5551  -17.7129   22.1920 C.3     1  UNL1        0.0886
     28 C          -7.1937  -16.8720   23.3805 C.3     1  UNL1        0.0748
     29 C          -8.1683  -16.7106   24.5092 C.3     1  UNL1        0.0432
     30 C          -7.8068  -15.8697   25.6977 C.ar    1  UNL1       -0.0234
     31 C          -8.7814  -15.7082   26.8265 C.ar    1  UNL1       -0.0045
     32 C          -8.4199  -14.8674   28.0148 C.ar    1  UNL1       -0.0003
     33 C          -7.0840  -14.1880   28.0744 C.ar    1  UNL1       -0.0003
     34 C          -6.1094  -14.3494   26.9457 C.ar    1  UNL1       -0.0032
     35 C          -6.4709  -15.1903   25.7573 C.ar    1  UNL1       -0.0103
     36 C          -5.4963  -15.3517   24.6285 C.3     1  UNL1        0.0953
     37 N          -5.8577  -16.1926   23.4401 N.3     1  UNL1       -0.2934
     38 H          -5.1515  -16.9254   23.3721 H       1  UNL1        0.1236
@<TRIPOS>BOND
     1    14    15    1
     2    15    16    1
     3    15    13    1
     4    13    12    1
     5    12     1    1
     6     1    27    1
     7    28    27    1
     8    28    29    1
     9    29    30    1
    10    30    31   ar
    11    31    32   ar
    12    32    33   ar
    13    33    34   ar
    14    34    35   ar
    15    35    36    1
    16    36    37    1
    17     2     1    1
    18     2     3    1
    19     3     4    1
    20     4     5    1
    21     5     6    1
    22     6     7   ar
    23     7     8   ar
    24     8     9   ar
    25     9    10   ar
    26    10    11   ar
    27    15    17    1
    28    17    18    1
    29    18    20    1
    30    20    21    1
    31    21    22    1
    32    22    23    1
    33    23    24    1
    34    24    25    1
    35    25    26    1
    36    37    28    1
    37    11     2    1
    38    26    21    1
    39    35    30   ar
    40    11     6   ar
    41    37    38    1
    42    18    19    1
@<TRIPOS>MOLECULE
*****
 38 42 0 0 0
SMALL
GASTEIGER

@<TRIPOS>ATOM
      1 N          -9.3296  -18.6205   23.5348 N.3     1  UNL1       -0.2679
      2 C         -10.7567  -18.2555   23.2518 C.3     1  UNL1        0.0978
      3 C         -11.8419  -18.6865   24.1935 C.3     1  UNL1        0.0224
      4 C         -13.2690  -18.3215   23.9105 C.3     1  UNL1        0.0065
      5 C         -13.6110  -17.5256   22.6860 C.3     1  UNL1        0.0277
      6 C         -12.5258  -17.0946   21.7444 C.ar    1  UNL1       -0.0073
      7 C         -12.8678  -16.2987   20.5198 C.ar    1  UNL1       -0.0015
      8 C         -11.7826  -15.8677   19.5782 C.ar    1  UNL1        0.0203
      9 C         -10.3555  -16.2327   19.8611 C.ar    1  UNL1        0.0985
     10 N         -10.0135  -17.0286   21.0856 N.ar    1  UNL1       -0.2471
     11 C         -11.0987  -17.4596   22.0273 C.ar    1  UNL1        0.0695
     12 C          -8.5315  -17.8187   24.5197 C.3     1  UNL1        0.0725
     13 C          -9.1731  -17.3311   25.7849 C.3     1  UNL1        0.0187
     14 C          -8.4925  -16.9208   27.7517 C.3     1  UNL1        0.0014
     15 C          -8.6244  -16.1246   26.4873 C.3     1  UNL1        0.0158
     16 C          -8.7563  -15.3285   25.2230 C.3     1  UNL1        0.0014
     17 C          -8.0758  -14.9182   27.1898 C.3     1  UNL1        0.0685
     18 N          -6.6009  -14.6455   27.1710 N.3     1  UNL1       -0.2975
     19 H          -6.3648  -14.2405   28.0769 H       1  UNL1        0.1232
     20 C          -5.6338  -15.7671   26.9328 C.3     1  UNL1        0.0687
     21 C          -5.0561  -15.9816   25.5652 C.3     1  UNL1        0.0207
     22 C          -5.3751  -15.0221   24.4574 C.3     1  UNL1        0.0335
     23 C          -4.7975  -15.2365   23.0898 C.3     1  UNL1        0.1422
     24 O          -3.9008  -16.4106   22.8300 O.3     1  UNL1       -0.3538
     25 C          -3.5817  -17.3702   23.9379 C.3     1  UNL1        0.1422
     26 C          -4.1594  -17.1557   25.3055 C.3     1  UNL1        0.0335
     27 C          -8.7005  -19.7873   22.8328 C.3     1  UNL1        0.0886
     28 C          -7.5166  -19.5741   21.9366 C.3     1  UNL1        0.0748
     29 C          -6.1320  -19.8441   22.4463 C.3     1  UNL1        0.0432
     30 C          -4.9481  -19.6309   21.5501 C.ar    1  UNL1       -0.0234
     31 C          -3.5634  -19.9010   22.0598 C.ar    1  UNL1       -0.0045
     32 C          -2.3796  -19.6877   21.1636 C.ar    1  UNL1       -0.0003
     33 C          -2.5804  -19.2045   19.7579 C.ar    1  UNL1       -0.0003
     34 C          -3.9651  -18.9345   19.2483 C.ar    1  UNL1       -0.0032
     35 C          -5.1489  -19.1477   20.1444 C.ar    1  UNL1       -0.0103
     36 C          -6.5337  -18.8777   19.6348 C.3     1  UNL1        0.0953
     37 N          -7.7175  -19.0909   20.5309 N.3     1  UNL1       -0.2934
     38 H          -8.3181  -19.7731   20.0680 H       1  UNL1        0.1236
@<TRIPOS>BOND
     1    14    15    1
     2    15    16    1
     3    15    13    1
     4    13    12    1
     5    12     1    1
     6     1    27    1
     7    28    27    1
     8    28    29    1
     9    29    30    1
    10    30    31   ar
    11    31    32   ar
    12    32    33   ar
    13    33    34   ar
    14    34    35   ar
    15    35    36    1
    16    36    37    1
    17     2     1    1
    18     2     3    1
    19     3     4    1
    20     4     5    1
    21     5     6    1
    22     6     7   ar
    23     7     8   ar
    24     8     9   ar
    25     9    10   ar
    26    10    11   ar
    27    15    17    1
    28    17    18    1
    29    18    20    1
    30    20    21    1
    31    21    22    1
    32    22    23    1
    33    23    24    1
    34    24    25    1
    35    25    26    1
    36    37    28    1
    37    11     2    1
    38    26    21    1
    39    35    30   ar
    40    11     6   ar
    41    37    38    1
    42    18    19    1
@<TRIPOS>MOLECULE
*****
 38 42 0 0 0
SMALL
GASTEIGER

@<TRIPOS>ATOM
      1 N           7.2773   -4.1377   23.7160 N.3     1  UNL1       -0.2679
      2 C           7.6724   -5.3350   24.5286 C.3     1  UNL1        0.0978
      3 C           8.3400   -6.5037   23.8665 C.3     1  UNL1        0.0224
      4 C           8.7351   -7.7010   24.6791 C.3     1  UNL1        0.0065
      5 C           8.4626   -7.7296   26.1538 C.3     1  UNL1        0.0277
      6 C           7.7950   -6.5609   26.8159 C.ar    1  UNL1       -0.0073
      7 C           7.5225   -6.5895   28.2908 C.ar    1  UNL1       -0.0015
      8 C           6.8549   -5.4209   28.9529 C.ar    1  UNL1        0.0203
      9 C           6.4598   -4.2235   28.1403 C.ar    1  UNL1        0.0985
     10 N           6.7323   -4.1949   26.6655 N.ar    1  UNL1       -0.2471
     11 C           7.3999   -5.3636   26.0033 C.ar    1  UNL1        0.0695
     12 C           8.2243   -2.9834   23.5720 C.3     1  UNL1        0.0725
     13 C           9.1367   -2.9055   22.3838 C.3     1  UNL1        0.0187
     14 C           9.1238   -4.1262   20.6491 C.3     1  UNL1        0.0014
     15 C           8.5621   -2.7814   21.0038 C.3     1  UNL1        0.0158
     16 C           8.0004   -1.4366   21.3586 C.3     1  UNL1        0.0014
     17 C           7.9875   -2.6573   19.6238 C.3     1  UNL1        0.0685
     18 N           6.5178   -2.8593   19.4024 N.3     1  UNL1       -0.2975
     19 H           6.0425   -2.4913   20.2264 H       1  UNL1        0.1232
     20 C           5.8484   -2.2480   18.2072 C.3     1  UNL1        0.0687
     21 C           5.0291   -1.0012   18.3626 C.3     1  UNL1        0.0207
     22 C           3.6699   -0.9138   17.7342 C.3     1  UNL1        0.0335
     23 C           2.8505    0.3330   17.8896 C.3     1  UNL1        0.1422
     24 O           3.3904    1.4924   18.6733 O.3     1  UNL1       -0.3538
     25 C           4.7496    1.4051   19.3017 C.3     1  UNL1        0.1422
     26 C           5.5690    0.1582   19.1464 C.3     1  UNL1        0.0335
     27 C           5.9353   -4.0947   23.0474 C.3     1  UNL1        0.0886
     28 C           4.9909   -2.9648   23.3331 C.3     1  UNL1        0.0748
     29 C           4.1977   -2.3502   22.2181 C.3     1  UNL1        0.0432
     30 C           3.2533   -1.2203   22.5038 C.ar    1  UNL1       -0.0234
     31 C           2.4601   -0.6057   21.3889 C.ar    1  UNL1       -0.0045
     32 C           1.5158    0.5241   21.6745 C.ar    1  UNL1       -0.0003
     33 C           1.3646    1.0393   23.0751 C.ar    1  UNL1       -0.0003
     34 C           2.1578    0.4247   24.1901 C.ar    1  UNL1       -0.0032
     35 C           3.1021   -0.7051   23.9044 C.ar    1  UNL1       -0.0103
     36 C           3.8953   -1.3198   25.0193 C.3     1  UNL1        0.0953
     37 N           4.8397   -2.4496   24.7337 N.3     1  UNL1       -0.2934
     38 H           4.5376   -3.2378   25.3063 H       1  UNL1        0.1236
@<TRIPOS>BOND
     1    14    15    1
     2    15    16    1
     3    15    13    1
     4    13    12    1
     5    12     1    1
     6     1    27    1
     7    28    27    1
     8    28    29    1
     9    29    30    1
    10    30    31   ar
    11    31    32   ar
    12    32    33   ar
    13    33    34   ar
    14    34    35   ar
    15    35    36    1
    16    36    37    1
    17     2     1    1
    18     2     3    1
    19     3     4    1
    20     4     5    1
    21     5     6    1
    22     6     7   ar
    23     7     8   ar
    24     8     9   ar
    25     9    10   ar
    26    10    11   ar
    27    15    17    1
    28    17    18    1
    29    18    20    1
    30    20    21    1
    31    21    22    1
    32    22    23    1
    33    23    24    1
    34    24    25    1
    35    25    26    1
    36    37    28    1
    37    11     2    1
    38    26    21    1
    39    35    30   ar
    40    11     6   ar
    41    37    38    1
    42    18    19    1
@<TRIPOS>MOLECULE
*****
 38 42 0 0 0
SMALL
GASTEIGER

@<TRIPOS>ATOM
      1 N          -7.1618  -17.2630   22.5342 N.3     1  UNL1       -0.2679
      2 C          -6.5446  -16.4356   23.6225 C.3     1  UNL1        0.0978
      3 C          -5.3005  -15.6437   23.3486 C.3     1  UNL1        0.0224
      4 C          -4.6832  -14.8163   24.4369 C.3     1  UNL1        0.0065
      5 C          -5.3100  -14.7808   25.7991 C.3     1  UNL1        0.0277
      6 C          -6.5541  -15.5727   26.0731 C.ar    1  UNL1       -0.0073
      7 C          -7.1810  -15.5372   27.4354 C.ar    1  UNL1       -0.0015
      8 C          -8.4251  -16.3291   27.7094 C.ar    1  UNL1        0.0203
      9 C          -9.0424  -17.1565   26.6211 C.ar    1  UNL1        0.0985
     10 N          -8.4156  -17.1920   25.2588 N.ar    1  UNL1       -0.2471
     11 C          -7.1714  -16.4001   24.9848 C.ar    1  UNL1        0.0695
     12 C          -6.7167  -18.6801   22.3254 C.3     1  UNL1        0.0725
     13 C          -6.8175  -19.3052   20.9655 C.3     1  UNL1        0.0187
     14 C          -5.9005  -21.2158   20.8721 C.3     1  UNL1        0.0014
     15 C          -5.5923  -19.8624   20.3035 C.3     1  UNL1        0.0158
     16 C          -5.2840  -18.5091   19.7349 C.3     1  UNL1        0.0014
     17 C          -4.3671  -20.4196   19.6415 C.3     1  UNL1        0.0685
     18 N          -3.2116  -20.8885   20.4752 N.3     1  UNL1       -0.2975
     19 H          -2.4288  -21.0347   19.8379 H       1  UNL1        0.1232
     20 C          -2.7019  -20.0347   21.5984 C.3     1  UNL1        0.0687
     21 C          -2.0812  -18.7011   21.3046 C.3     1  UNL1        0.0207
     22 C          -2.5224  -17.4850   22.0637 C.3     1  UNL1        0.0335
     23 C          -1.9018  -16.1514   21.7700 C.3     1  UNL1        0.1422
     24 O          -0.8399  -16.0339   20.7171 O.3     1  UNL1       -0.3538
     25 C          -0.3987  -17.2501   19.9579 C.3     1  UNL1        0.1422
     26 C          -1.0194  -18.5837   20.2516 C.3     1  UNL1        0.0335
     27 C          -8.2243  -16.6733   21.6548 C.3     1  UNL1        0.0886
     28 C          -9.6715  -16.8369   22.0142 C.3     1  UNL1        0.0748
     29 C         -10.0623  -17.6962   23.1798 C.3     1  UNL1        0.0432
     30 C         -11.5094  -17.8598   23.5392 C.ar    1  UNL1       -0.0234
     31 C         -11.9002  -18.7192   24.7048 C.ar    1  UNL1       -0.0045
     32 C         -13.3473  -18.8827   25.0642 C.ar    1  UNL1       -0.0003
     33 C         -14.4036  -18.1868   24.2579 C.ar    1  UNL1       -0.0003
     34 C         -14.0128  -17.3274   23.0923 C.ar    1  UNL1       -0.0032
     35 C         -12.5657  -17.1639   22.7330 C.ar    1  UNL1       -0.0103
     36 C         -12.1748  -16.3045   21.5673 C.3     1  UNL1        0.0953
     37 N         -10.7277  -16.1410   21.2080 N.3     1  UNL1       -0.2934
     38 H         -10.5238  -15.1427   21.2546 H       1  UNL1        0.1236
@<TRIPOS>BOND
     1    14    15    1
     2    15    16    1
     3    15    13    1
     4    13    12    1
     5    12     1    1
     6     1    27    1
     7    28    27    1
     8    28    29    1
     9    29    30    1
    10    30    31   ar
    11    31    32   ar
    12    32    33   ar
    13    33    34   ar
    14    34    35   ar
    15    35    36    1
    16    36    37    1
    17     2     1    1
    18     2     3    1
    19     3     4    1
    20     4     5    1
    21     5     6    1
    22     6     7   ar
    23     7     8   ar
    24     8     9   ar
    25     9    10   ar
    26    10    11   ar
    27    15    17    1
    28    17    18    1
    29    18    20    1
    30    20    21    1
    31    21    22    1
    32    22    23    1
    33    23    24    1
    34    24    25    1
    35    25    26    1
    36    37    28    1
    37    11     2    1
    38    26    21    1
    39    35    30   ar
    40    11     6   ar
    41    37    38    1
    42    18    19    1
@<TRIPOS>MOLECULE
*****
 38 42 0 0 0
SMALL
GASTEIGER

@<TRIPOS>ATOM
      1 N           0.0371    2.3852   20.4485 N.3     1  UNL1       -0.2679
      2 C          -0.8001    3.0601   19.4028 C.3     1  UNL1        0.0978
      3 C          -0.1850    3.4658   18.0963 C.3     1  UNL1        0.0224
      4 C          -1.0223    4.1407   17.0506 C.3     1  UNL1        0.0065
      5 C          -2.4747    4.4099   17.3115 C.3     1  UNL1        0.0277
      6 C          -3.0898    4.0042   18.6180 C.ar    1  UNL1       -0.0073
      7 C          -4.5422    4.2734   18.8789 C.ar    1  UNL1       -0.0015
      8 C          -5.1573    3.8677   20.1854 C.ar    1  UNL1        0.0203
      9 C          -4.3201    3.1928   21.2311 C.ar    1  UNL1        0.0985
     10 N          -2.8677    2.9236   20.9702 N.ar    1  UNL1       -0.2471
     11 C          -2.2525    3.3293   19.6637 C.ar    1  UNL1        0.0695
     12 C           0.6576    3.1935   21.5493 C.3     1  UNL1        0.0725
     13 C           1.1163    2.5189   22.8081 C.3     1  UNL1        0.0187
     14 C           1.9960    0.7719   23.6291 C.3     1  UNL1        0.0014
     15 C           2.5125    1.9789   22.9037 C.3     1  UNL1        0.0158
     16 C           3.0290    3.1859   22.1782 C.3     1  UNL1        0.0014
     17 C           3.9086    1.4389   22.9992 C.3     1  UNL1        0.0685
     18 N           4.5839    0.8856   21.7794 N.3     1  UNL1       -0.2975
     19 H           4.7450    1.6718   21.1499 H       1  UNL1        0.1232
     20 C           5.8903    0.1601   21.9095 C.3     1  UNL1        0.0687
     21 C           5.9091   -1.3348   22.0318 C.3     1  UNL1        0.0207
     22 C           7.0650   -2.1177   21.4832 C.3     1  UNL1        0.0335
     23 C           7.0838   -3.6126   21.6055 C.3     1  UNL1        0.1422
     24 O           5.9468   -4.3246   22.2763 O.3     1  UNL1       -0.3538
     25 C           4.7908   -3.5417   22.8249 C.3     1  UNL1        0.1422
     26 C           4.7720   -2.0468   22.7027 C.3     1  UNL1        0.0335
     27 C           0.2540    0.9020   20.3935 C.3     1  UNL1        0.0886
     28 C           1.5157    0.3500   19.7989 C.3     1  UNL1        0.0748
     29 C           1.8315   -1.1102   19.9326 C.3     1  UNL1        0.0432
     30 C           3.0933   -1.6622   19.3381 C.ar    1  UNL1       -0.0234
     31 C           3.4091   -3.1225   19.4717 C.ar    1  UNL1       -0.0045
     32 C           4.6708   -3.6744   18.8772 C.ar    1  UNL1       -0.0003
     33 C           5.6166   -2.7660   18.1490 C.ar    1  UNL1       -0.0003
     34 C           5.3008   -1.3058   18.0153 C.ar    1  UNL1       -0.0032
     35 C           4.0391   -0.7539   18.6099 C.ar    1  UNL1       -0.0103
     36 C           3.7233    0.7064   18.4762 C.3     1  UNL1        0.0953
     37 N           2.4616    1.2583   19.0707 N.3     1  UNL1       -0.2934
     38 H           1.9350    1.6793   18.3053 H       1  UNL1        0.1236
@<TRIPOS>BOND
     1    14    15    1
     2    15    16    1
     3    15    13    1
     4    13    12    1
     5    12     1    1
     6     1    27    1
     7    28    27    1
     8    28    29    1
     9    29    30    1
    10    30    31   ar
    11    31    32   ar
    12    32    33   ar
    13    33    34   ar
    14    34    35   ar
    15    35    36    1
    16    36    37    1
    17     2     1    1
    18     2     3    1
    19     3     4    1
    20     4     5    1
    21     5     6    1
    22     6     7   ar
    23     7     8   ar
    24     8     9   ar
    25     9    10   ar
    26    10    11   ar
    27    15    17    1
    28    17    18    1
    29    18    20    1
    30    20    21    1
    31    21    22    1
    32    22    23    1
    33    23    24    1
    34    24    25    1
    35    25    26    1
    36    37    28    1
    37    11     2    1
    38    26    21    1
    39    35    30   ar
    40    11     6   ar
    41    37    38    1
    42    18    19    1
@<TRIPOS>MOLECULE
*****
 38 42 0 0 0
SMALL
GASTEIGER

@<TRIPOS>ATOM
      1 N          -4.8914  -16.8591   23.0444 N.3     1  UNL1       -0.2679
      2 C          -3.6752  -17.0393   22.1851 C.3     1  UNL1        0.0978
      3 C          -2.5753  -16.0200   22.2188 C.3     1  UNL1        0.0224
      4 C          -1.3592  -16.2003   21.3594 C.3     1  UNL1        0.0065
      5 C          -1.2429  -17.3998   20.4664 C.3     1  UNL1        0.0277
      6 C          -2.3428  -18.4191   20.4327 C.ar    1  UNL1       -0.0073
      7 C          -2.2266  -19.6187   19.5397 C.ar    1  UNL1       -0.0015
      8 C          -3.3265  -20.6380   19.5060 C.ar    1  UNL1        0.0203
      9 C          -4.5427  -20.4577   20.3653 C.ar    1  UNL1        0.0985
     10 N          -4.6590  -19.2582   21.2583 N.ar    1  UNL1       -0.2471
     11 C          -3.5590  -18.2388   21.2921 C.ar    1  UNL1        0.0695
     12 C          -5.1482  -15.5415   23.7137 C.3     1  UNL1        0.0725
     13 C          -5.2911  -15.4732   25.2054 C.3     1  UNL1        0.0187
     14 C          -7.2119  -14.8213   24.5847 C.3     1  UNL1        0.0014
     15 C          -6.6556  -15.4497   25.8279 C.3     1  UNL1        0.0158
     16 C          -6.0992  -16.0781   27.0711 C.3     1  UNL1        0.0014
     17 C          -8.0201  -15.4262   26.4504 C.3     1  UNL1        0.0685
     18 N          -9.1509  -16.1728   25.8071 N.3     1  UNL1       -0.2975
     19 H          -9.1272  -15.9441   24.8134 H       1  UNL1        0.1232
     20 C          -9.2145  -17.6683   25.9058 C.3     1  UNL1        0.0687
     21 C         -10.0038  -18.4533   24.9004 C.3     1  UNL1        0.0207
     22 C         -11.2220  -17.8499   24.2666 C.3     1  UNL1        0.0335
     23 C         -12.0113  -18.6349   23.2613 C.3     1  UNL1        0.1422
     24 O         -11.5824  -20.0234   22.8897 O.3     1  UNL1       -0.3538
     25 C         -10.3641  -20.6269   23.5235 C.3     1  UNL1        0.1422
     26 C          -9.5748  -19.8419   24.5289 C.3     1  UNL1        0.0335
     27 C          -5.8507  -17.9964   23.2345 C.3     1  UNL1        0.0886
     28 C          -7.0867  -18.0843   22.3890 C.3     1  UNL1        0.0748
     29 C          -8.0255  -16.9173   22.3095 C.3     1  UNL1        0.0432
     30 C          -9.2615  -17.0052   21.4640 C.ar    1  UNL1       -0.0234
     31 C         -10.2004  -15.8381   21.3844 C.ar    1  UNL1       -0.0045
     32 C         -11.4363  -15.9261   20.5390 C.ar    1  UNL1       -0.0003
     33 C         -11.7333  -17.1812   19.7731 C.ar    1  UNL1       -0.0003
     34 C         -10.7944  -18.3483   19.8527 C.ar    1  UNL1       -0.0032
     35 C          -9.5585  -18.2603   20.6981 C.ar    1  UNL1       -0.0103
     36 C          -8.6195  -19.4274   20.7777 C.3     1  UNL1        0.0953
     37 N          -7.3837  -19.3394   21.6232 N.3     1  UNL1       -0.2934
     38 H          -6.5903  -19.5004   21.0026 H       1  UNL1        0.1236
@<TRIPOS>BOND
     1    14    15    1
     2    15    16    1
     3    15    13    1
     4    13    12    1
     5    12     1    1
     6     1    27    1
     7    28    27    1
     8    28    29    1
     9    29    30    1
    10    30    31   ar
    11    31    32   ar
    12    32    33   ar
    13    33    34   ar
    14    34    35   ar
    15    35    36    1
    16    36    37    1
    17     2     1    1
    18     2     3    1
    19     3     4    1
    20     4     5    1
    21     5     6    1
    22     6     7   ar
    23     7     8   ar
    24     8     9   ar
    25     9    10   ar
    26    10    11   ar
    27    15    17    1
    28    17    18    1
    29    18    20    1
    30    20    21    1
    31    21    22    1
    32    22    23    1
    33    23    24    1
    34    24    25    1
    35    25    26    1
    36    37    28    1
    37    11     2    1
    38    26    21    1
    39    35    30   ar
    40    11     6   ar
    41    37    38    1
    42    18    19    1
@<TRIPOS>MOLECULE
*****
 38 42 0 0 0
SMALL
GASTEIGER

@<TRIPOS>ATOM
      1 N          -5.1024  -17.9249   22.8067 N.3     1  UNL1       -0.2679
      2 C          -4.3876  -18.6058   21.6774 C.3     1  UNL1        0.0978
      3 C          -4.9559  -19.8568   21.0758 C.3     1  UNL1        0.0224
      4 C          -4.2411  -20.5377   19.9465 C.3     1  UNL1        0.0065
      5 C          -2.9580  -19.9676   19.4187 C.3     1  UNL1        0.0277
      6 C          -2.3897  -18.7166   20.0203 C.ar    1  UNL1       -0.0073
      7 C          -1.1065  -18.1465   19.4926 C.ar    1  UNL1       -0.0015
      8 C          -0.5381  -16.8955   20.0942 C.ar    1  UNL1        0.0203
      9 C          -1.2529  -16.2146   21.2235 C.ar    1  UNL1        0.0985
     10 N          -2.5361  -16.7846   21.7513 N.ar    1  UNL1       -0.2471
     11 C          -3.1045  -18.0357   21.1497 C.ar    1  UNL1        0.0695
     12 C          -4.4757  -16.7445   23.4879 C.3     1  UNL1        0.0725
     13 C          -5.2931  -15.5180   23.7663 C.3     1  UNL1        0.0187
     14 C          -5.1337  -16.0666   25.8092 C.3     1  UNL1        0.0014
     15 C          -6.2153  -15.4838   24.9487 C.3     1  UNL1        0.0158
     16 C          -7.2970  -14.9009   24.0883 C.3     1  UNL1        0.0014
     17 C          -7.1376  -15.4495   26.1312 C.3     1  UNL1        0.0685
     18 N          -8.5548  -15.9204   25.9909 N.3     1  UNL1       -0.2975
     19 H          -8.8610  -15.6577   25.0541 H       1  UNL1        0.1232
     20 C          -8.8826  -17.3741   26.1620 C.3     1  UNL1        0.0687
     21 C          -9.8181  -18.0498   25.2038 C.3     1  UNL1        0.0207
     22 C         -10.7955  -17.2351   24.4095 C.3     1  UNL1        0.0335
     23 C         -11.7311  -17.9108   23.4513 C.3     1  UNL1        0.1422
     24 O         -11.6892  -19.4012   23.2873 O.3     1  UNL1       -0.3538
     25 C         -10.7118  -20.2160   24.0816 C.3     1  UNL1        0.1422
     26 C          -9.7762  -19.5403   25.0398 C.3     1  UNL1        0.0335
     27 C          -6.4439  -18.4243   23.2549 C.3     1  UNL1        0.0886
     28 C          -7.6215  -18.3445   22.3292 C.3     1  UNL1        0.0748
     29 C          -8.2899  -17.0255   22.0779 C.3     1  UNL1        0.0432
     30 C          -9.4676  -16.9457   21.1522 C.ar    1  UNL1       -0.0234
     31 C         -10.1360  -15.6266   20.9009 C.ar    1  UNL1       -0.0045
     32 C         -11.3136  -15.5469   19.9752 C.ar    1  UNL1       -0.0003
     33 C         -11.8227  -16.7863   19.3008 C.ar    1  UNL1       -0.0003
     34 C         -11.1542  -18.1054   19.5521 C.ar    1  UNL1       -0.0032
     35 C          -9.9767  -18.1851   20.4778 C.ar    1  UNL1       -0.0103
     36 C          -9.3081  -19.5042   20.7291 C.3     1  UNL1        0.0953
     37 N          -8.1306  -19.5839   21.6548 N.3     1  UNL1       -0.2934
     38 H          -7.3548  -19.9637   21.1123 H       1  UNL1        0.1236
@<TRIPOS>BOND
     1    14    15    1
     2    15    16    1
     3    15    13    1
     4    13    12    1
     5    12     1    1
     6     1    27    1
     7    28    27    1
     8    28    29    1
     9    29    30    1
    10    30    31   ar
    11    31    32   ar
    12    32    33   ar
    13    33    34   ar
    14    34    35   ar
    15    35    36    1
    16    36    37    1
    17     2     1    1
    18     2     3    1
    19     3     4    1
    20     4     5    1
    21     5     6    1
    22     6     7   ar
    23     7     8   ar
    24     8     9   ar
    25     9    10   ar
    26    10    11   ar
    27    15    17    1
    28    17    18    1
    29    18    20    1
    30    20    21    1
    31    21    22    1
    32    22    23    1
    33    23    24    1
    34    24    25    1
    35    25    26    1
    36    37    28    1
    37    11     2    1
    38    26    21    1
    39    35    30   ar
    40    11     6   ar
    41    37    38    1
    42    18    19    1
