@<TRIPOS>MOLECULE
*****
 27 30 0 0 0
SMALL
GASTEIGER

@<TRIPOS>ATOM
      1 C           7.5060   -5.7697   27.0124 C.2     1  UNL1        0.0919
      2 C           8.0231   -6.9300   26.2148 C.2     1  UNL1        0.0183
      3 C           8.0641   -6.8519   24.7173 C.2     1  UNL1        0.0511
      4 C           7.5881   -5.6135   24.0176 C.2     1  UNL1        0.2322
      5 N           7.5091   -5.2491   22.5647 N.2     1  UNL1       -0.0308
      6 C           6.9432   -3.8636   22.4644 C.2     1  UNL1        0.3774
      7 N           6.6725   -3.3716   23.8553 N.2     1  UNL1       -0.0346
      8 C           7.0711   -4.4532   24.8152 C.2     1  UNL1        0.2191
      9 C           7.0301   -4.5313   26.3126 C.3     1  UNL1        0.1226
     10 C           6.6921   -3.1035   21.1958 C.ar    1  UNL1        0.1157
     11 C           7.7581   -3.0279   20.1433 C.ar    1  UNL1        0.0100
     12 C           7.5071   -2.2678   18.8747 C.ar    1  UNL1        0.0004
     13 C           6.1900   -1.5833   18.6587 C.ar    1  UNL1        0.0022
     14 C           5.1239   -1.6589   19.7112 C.ar    1  UNL1        0.0277
     15 C           5.3750   -2.4190   20.9798 C.ar    1  UNL1        0.1475
     16 F           4.3089   -2.4946   22.0323 F       1  UNL1       -0.2039
     17 C           3.8068   -0.9744   19.4952 C.ar    1  UNL1        0.0022
     18 C           3.7139    0.1956   18.5612 C.ar    1  UNL1        0.0001
     19 C           2.3968    0.8801   18.3452 C.ar    1  UNL1        0.0000
     20 C           1.1726    0.3945   19.0631 C.ar    1  UNL1        0.0000
     21 C           1.2654   -0.7755   19.9971 C.ar    1  UNL1        0.0000
     22 C           2.5825   -1.4600   20.2131 C.ar    1  UNL1        0.0001
     23 S           7.4650   -5.8478   28.5098 S.O2    1  UNL1        0.0054
     24 O           6.1228   -5.1781   28.5079 O.2     1  UNL1       -0.1689
     25 O           8.8072   -6.5176   28.5117 O.2     1  UNL1       -0.1689
     26 C           7.1814   -4.6865   30.8165 C.3     1  UNL1        0.0276
     27 C           7.4239   -5.9259   30.0072 C.3     1  UNL1        0.1556
@<TRIPOS>BOND
     1    26    27    1
     2    27    23    1
     3    23    24    2
     4    23    25    2
     5    23     1    1
     6     1     2    2
     7     2     3    1
     8     3     4    2
     9     4     5    1
    10     5     6    2
    11     6    10    1
    12    10    11   ar
    13    11    12   ar
    14    12    13   ar
    15    13    14   ar
    16    14    17    1
    17    17    18   ar
    18    18    19   ar
    19    19    20   ar
    20    20    21   ar
    21    21    22   ar
    22    14    15   ar
    23    15    16    1
    24     6     7    1
    25     7     8    2
    26     8     9    1
    27     9     1    1
    28     8     4    1
    29    15    10   ar
    30    22    17   ar
@<TRIPOS>MOLECULE
*****
 27 30 0 0 0
SMALL
GASTEIGER

@<TRIPOS>ATOM
      1 C           3.1619   -0.8980   19.1225 C.2     1  UNL1        0.0919
      2 C           3.6077    0.2719   18.2963 C.2     1  UNL1        0.0183
      3 C           2.8062    1.5398   18.2975 C.2     1  UNL1        0.0511
      4 C           1.5589    1.6378   19.1247 C.2     1  UNL1        0.2322
      5 N           0.5716    2.7493   19.3243 N.2     1  UNL1       -0.0308
      6 C          -0.4845    2.2664   20.2738 C.2     1  UNL1        0.3774
      7 N          -0.1499    0.8564   20.6611 N.2     1  UNL1       -0.0346
      8 C           1.1130    0.4679   19.9509 C.2     1  UNL1        0.2191
      9 C           1.9145   -0.8000   19.9497 C.3     1  UNL1        0.1226
     10 C          -1.6674    3.0551   20.7521 C.ar    1  UNL1        0.1157
     11 C          -2.6930    3.5387   19.7701 C.ar    1  UNL1        0.0100
     12 C          -3.8759    4.3273   20.2484 C.ar    1  UNL1        0.0004
     13 C          -4.0333    4.6323   21.7085 C.ar    1  UNL1        0.0022
     14 C          -3.0077    4.1487   22.6905 C.ar    1  UNL1        0.0277
     15 C          -1.8248    3.3600   22.2123 C.ar    1  UNL1        0.1475
     16 F          -0.7992    2.8764   23.1943 F       1  UNL1       -0.2039
     17 C          -3.1651    4.4537   24.1508 C.ar    1  UNL1        0.0022
     18 C          -2.2497    5.4397   24.8139 C.ar    1  UNL1        0.0001
     19 C          -2.4071    5.7447   26.2741 C.ar    1  UNL1        0.0000
     20 C          -3.4799    5.0636   27.0711 C.ar    1  UNL1        0.0000
     21 C          -4.3953    4.0776   26.4080 C.ar    1  UNL1        0.0000
     22 C          -4.2379    3.7727   24.9478 C.ar    1  UNL1        0.0001
     23 S           3.9634   -2.1659   19.1213 S.O2    1  UNL1        0.0054
     24 O           3.6030   -2.3950   20.5593 O.2     1  UNL1       -0.1689
     25 O           4.3237   -1.9368   17.6834 O.2     1  UNL1       -0.1689
     26 C           4.0698   -4.7604   19.0371 C.3     1  UNL1        0.0276
     27 C           4.7649   -3.4338   19.1202 C.3     1  UNL1        0.1556
@<TRIPOS>BOND
     1    26    27    1
     2    27    23    1
     3    23    24    2
     4    23    25    2
     5    23     1    1
     6     1     2    2
     7     2     3    1
     8     3     4    2
     9     4     5    1
    10     5     6    2
    11     6    10    1
    12    10    11   ar
    13    11    12   ar
    14    12    13   ar
    15    13    14   ar
    16    14    17    1
    17    17    18   ar
    18    18    19   ar
    19    19    20   ar
    20    20    21   ar
    21    21    22   ar
    22    14    15   ar
    23    15    16    1
    24     6     7    1
    25     7     8    2
    26     8     9    1
    27     9     1    1
    28     8     4    1
    29    15    10   ar
    30    22    17   ar
@<TRIPOS>MOLECULE
*****
 27 30 0 0 0
SMALL
GASTEIGER

@<TRIPOS>ATOM
      1 C           4.2845   -0.7157   29.7989 C.2     1  UNL1        0.0919
      2 C           5.6653   -1.3018   29.7951 C.2     1  UNL1        0.0183
      3 C           6.2430   -1.8519   28.5248 C.2     1  UNL1        0.0511
      4 C           5.4401   -1.8159   27.2584 C.2     1  UNL1        0.2322
      5 N           5.7430   -2.2794   25.8643 N.2     1  UNL1       -0.0308
      6 C           4.5495   -1.9797   25.0065 C.2     1  UNL1        0.3774
      7 N           3.5089   -1.3311   25.8705 N.2     1  UNL1       -0.0346
      8 C           4.0593   -1.2299   27.2622 C.2     1  UNL1        0.2191
      9 C           3.4816   -0.6798   28.5325 C.3     1  UNL1        0.1226
     10 C           4.4194   -2.2766   23.5419 C.ar    1  UNL1        0.1157
     11 C           5.0710   -3.4976   22.9635 C.ar    1  UNL1        0.0100
     12 C           4.9410   -3.7945   21.4989 C.ar    1  UNL1        0.0004
     13 C           4.1595   -2.8704   20.6129 C.ar    1  UNL1        0.0022
     14 C           3.5079   -1.6494   21.1913 C.ar    1  UNL1        0.0277
     15 C           3.6379   -1.3525   22.6559 C.ar    1  UNL1        0.1475
     16 F           2.9864   -0.1315   23.2343 F       1  UNL1       -0.2039
     17 C           2.7263   -0.7253   20.3052 C.ar    1  UNL1        0.0022
     18 C           1.2819   -0.4475   20.5993 C.ar    1  UNL1        0.0001
     19 C           0.5004    0.4766   19.7131 C.ar    1  UNL1        0.0000
     20 C           1.1633    1.1229   18.5329 C.ar    1  UNL1        0.0000
     21 C           2.6077    0.8451   18.2388 C.ar    1  UNL1        0.0000
     22 C           3.3892   -0.0790   19.1250 C.ar    1  UNL1        0.0001
     23 S           3.7068   -0.1656   31.0692 S.O2    1  UNL1        0.0054
     24 O           2.3883   -0.8034   30.7457 O.2     1  UNL1       -0.1689
     25 O           5.0253    0.4722   31.3927 O.2     1  UNL1       -0.1689
     26 C           3.7230    1.6124   32.9634 C.3     1  UNL1        0.0276
     27 C           3.1290    0.3845   32.3395 C.3     1  UNL1        0.1556
@<TRIPOS>BOND
     1    26    27    1
     2    27    23    1
     3    23    24    2
     4    23    25    2
     5    23     1    1
     6     1     2    2
     7     2     3    1
     8     3     4    2
     9     4     5    1
    10     5     6    2
    11     6    10    1
    12    10    11   ar
    13    11    12   ar
    14    12    13   ar
    15    13    14   ar
    16    14    17    1
    17    17    18   ar
    18    18    19   ar
    19    19    20   ar
    20    20    21   ar
    21    21    22   ar
    22    14    15   ar
    23    15    16    1
    24     6     7    1
    25     7     8    2
    26     8     9    1
    27     9     1    1
    28     8     4    1
    29    15    10   ar
    30    22    17   ar
@<TRIPOS>MOLECULE
*****
 27 30 0 0 0
SMALL
GASTEIGER

@<TRIPOS>ATOM
      1 C           1.1134    1.4285   28.1935 C.2     1  UNL1        0.0919
      2 C          -0.2800    1.8545   27.8377 C.2     1  UNL1        0.0183
      3 C          -0.7097    1.8900   26.4009 C.2     1  UNL1        0.0511
      4 C           0.2542    1.4995   25.3200 C.2     1  UNL1        0.2322
      5 N           0.1170    1.4362   23.8277 N.2     1  UNL1       -0.0308
      6 C           1.4257    0.9711   23.2611 C.2     1  UNL1        0.3774
      7 N           2.3718    0.7469   24.4034 N.2     1  UNL1       -0.0346
      8 C           1.6477    1.0735   25.6759 C.2     1  UNL1        0.2191
      9 C           2.0773    1.0380   27.1126 C.3     1  UNL1        0.1226
     10 C           1.7342    0.7661   21.8075 C.ar    1  UNL1        0.1157
     11 C           1.2454    1.7545   20.7905 C.ar    1  UNL1        0.0100
     12 C           1.5538    1.5496   19.3370 C.ar    1  UNL1        0.0004
     13 C           2.3510    0.3563   18.9004 C.ar    1  UNL1        0.0022
     14 C           2.8398   -0.6320   19.9174 C.ar    1  UNL1        0.0277
     15 C           2.5314   -0.4271   21.3710 C.ar    1  UNL1        0.1475
     16 F           3.0202   -1.4155   22.3880 F       1  UNL1       -0.2039
     17 C           3.6370   -1.8253   19.4808 C.ar    1  UNL1        0.0022
     18 C           5.0394   -1.6476   18.9790 C.ar    1  UNL1        0.0001
     19 C           5.8365   -2.8409   18.5424 C.ar    1  UNL1        0.0000
     20 C           5.2313   -4.2118   18.6077 C.ar    1  UNL1        0.0000
     21 C           3.8290   -4.3895   19.1095 C.ar    1  UNL1        0.0000
     22 C           3.0319   -3.1963   19.5461 C.ar    1  UNL1        0.0001
     23 S           1.5430    1.3929   29.6302 S.O2    1  UNL1        0.0054
     24 O           2.7887    2.1500   29.2764 O.2     1  UNL1       -0.1689
     25 O           0.2974    0.6359   29.9840 O.2     1  UNL1       -0.1689
     26 C           1.1916    2.1112   32.1022 C.3     1  UNL1        0.0276
     27 C           1.9727    1.3574   31.0669 C.3     1  UNL1        0.1556
@<TRIPOS>BOND
     1    26    27    1
     2    27    23    1
     3    23    24    2
     4    23    25    2
     5    23     1    1
     6     1     2    2
     7     2     3    1
     8     3     4    2
     9     4     5    1
    10     5     6    2
    11     6    10    1
    12    10    11   ar
    13    11    12   ar
    14    12    13   ar
    15    13    14   ar
    16    14    17    1
    17    17    18   ar
    18    18    19   ar
    19    19    20   ar
    20    20    21   ar
    21    21    22   ar
    22    14    15   ar
    23    15    16    1
    24     6     7    1
    25     7     8    2
    26     8     9    1
    27     9     1    1
    28     8     4    1
    29    15    10   ar
    30    22    17   ar
@<TRIPOS>MOLECULE
*****
 27 30 0 0 0
SMALL
GASTEIGER

@<TRIPOS>ATOM
      1 C           1.6493    0.7221   19.7099 C.2     1  UNL1        0.0919
      2 C           2.0689    0.5166   18.2845 C.2     1  UNL1        0.0183
      3 C           3.2760   -0.3168   17.9707 C.2     1  UNL1        0.0511
      4 C           4.0634   -0.9447   19.0823 C.2     1  UNL1        0.2322
      5 N           5.2882   -1.8106   19.0800 N.2     1  UNL1       -0.0308
      6 C           5.6256   -2.1403   20.5039 C.2     1  UNL1        0.3774
      7 N           4.6093   -1.4781   21.3863 N.2     1  UNL1       -0.0346
      8 C           3.6438   -0.7392   20.5076 C.2     1  UNL1        0.2191
      9 C           2.4368    0.0942   20.8214 C.3     1  UNL1        0.1226
     10 C           6.7772   -2.9841   20.9645 C.ar    1  UNL1        0.1157
     11 C           8.0537   -3.0051   20.1770 C.ar    1  UNL1        0.0100
     12 C           9.2052   -3.8488   20.6375 C.ar    1  UNL1        0.0004
     13 C           9.0802   -4.6714   21.8856 C.ar    1  UNL1        0.0022
     14 C           7.8037   -4.6503   22.6731 C.ar    1  UNL1        0.0277
     15 C           6.6522   -3.8067   22.2125 C.ar    1  UNL1        0.1475
     16 F           5.3757   -3.7856   23.0000 F       1  UNL1       -0.2039
     17 C           7.6788   -5.4730   23.9212 C.ar    1  UNL1        0.0022
     18 C           7.0411   -4.8863   25.1455 C.ar    1  UNL1        0.0001
     19 C           6.9162   -5.7089   26.3935 C.ar    1  UNL1        0.0000
     20 C           7.4290   -7.1184   26.4172 C.ar    1  UNL1        0.0000
     21 C           8.0668   -7.7051   25.1929 C.ar    1  UNL1        0.0000
     22 C           8.1917   -6.8824   23.9449 C.ar    1  UNL1        0.0001
     23 S           0.4423    1.5556   20.0236 S.O2    1  UNL1        0.0054
     24 O           1.1020    2.7474   19.3956 O.2     1  UNL1       -0.1689
     25 O          -0.2174    0.3637   20.6516 O.2     1  UNL1       -0.1689
     26 C          -0.7968    3.8379   19.9509 C.3     1  UNL1        0.0276
     27 C          -0.7647    2.3890   20.3374 C.3     1  UNL1        0.1556
@<TRIPOS>BOND
     1    26    27    1
     2    27    23    1
     3    23    24    2
     4    23    25    2
     5    23     1    1
     6     1     2    2
     7     2     3    1
     8     3     4    2
     9     4     5    1
    10     5     6    2
    11     6    10    1
    12    10    11   ar
    13    11    12   ar
    14    12    13   ar
    15    13    14   ar
    16    14    17    1
    17    17    18   ar
    18    18    19   ar
    19    19    20   ar
    20    20    21   ar
    21    21    22   ar
    22    14    15   ar
    23    15    16    1
    24     6     7    1
    25     7     8    2
    26     8     9    1
    27     9     1    1
    28     8     4    1
    29    15    10   ar
    30    22    17   ar
@<TRIPOS>MOLECULE
*****
 27 30 0 0 0
SMALL
GASTEIGER

@<TRIPOS>ATOM
      1 C           1.6130    1.5553   28.9340 C.2     1  UNL1        0.0919
      2 C           2.9772    0.9337   28.8824 C.2     1  UNL1        0.0183
      3 C           3.5271    0.4393   27.5774 C.2     1  UNL1        0.0511
      4 C           2.7130    0.5665   26.3240 C.2     1  UNL1        0.2322
      5 N           2.9895    0.1727   24.9033 N.2     1  UNL1       -0.0308
      6 C           1.7962    0.5510   24.0768 C.2     1  UNL1        0.3774
      7 N           0.7822    1.1785   24.9868 N.2     1  UNL1       -0.0346
      8 C           1.3489    1.1881   26.3756 C.2     1  UNL1        0.2191
      9 C           0.7989    1.6825   27.6806 C.3     1  UNL1        0.1226
     10 C           1.6437    0.3389   22.5997 C.ar    1  UNL1        0.1157
     11 C           0.5056    0.9813   21.8633 C.ar    1  UNL1        0.0100
     12 C           0.3531    0.7693   20.3863 C.ar    1  UNL1        0.0004
     13 C           1.3386   -0.0851   19.6456 C.ar    1  UNL1        0.0022
     14 C           2.4766   -0.7275   20.3819 C.ar    1  UNL1        0.0277
     15 C           2.6292   -0.5155   21.8589 C.ar    1  UNL1        0.1475
     16 F           3.7672   -1.1579   22.5953 F       1  UNL1       -0.2039
     17 C           3.4622   -1.5820   19.6411 C.ar    1  UNL1        0.0022
     18 C           3.3153   -3.0747   19.6487 C.ar    1  UNL1        0.0001
     19 C           4.3008   -3.9290   18.9079 C.ar    1  UNL1        0.0000
     20 C           5.4332   -3.2907   18.1596 C.ar    1  UNL1        0.0000
     21 C           5.5802   -1.7979   18.1520 C.ar    1  UNL1        0.0000
     22 C           4.5946   -0.9436   18.8928 C.ar    1  UNL1        0.0001
     23 S           1.0630    2.0498   30.2390 S.O2    1  UNL1        0.0054
     24 O           1.4680    0.7640   30.8968 O.2     1  UNL1       -0.1689
     25 O           0.6580    3.3356   29.5812 O.2     1  UNL1       -0.1689
     26 C           1.3479    2.4657   32.7877 C.3     1  UNL1        0.0276
     27 C           0.5131    2.5442   31.5440 C.3     1  UNL1        0.1556
@<TRIPOS>BOND
     1    26    27    1
     2    27    23    1
     3    23    24    2
     4    23    25    2
     5    23     1    1
     6     1     2    2
     7     2     3    1
     8     3     4    2
     9     4     5    1
    10     5     6    2
    11     6    10    1
    12    10    11   ar
    13    11    12   ar
    14    12    13   ar
    15    13    14   ar
    16    14    17    1
    17    17    18   ar
    18    18    19   ar
    19    19    20   ar
    20    20    21   ar
    21    21    22   ar
    22    14    15   ar
    23    15    16    1
    24     6     7    1
    25     7     8    2
    26     8     9    1
    27     9     1    1
    28     8     4    1
    29    15    10   ar
    30    22    17   ar
@<TRIPOS>MOLECULE
*****
 27 30 0 0 0
SMALL
GASTEIGER

@<TRIPOS>ATOM
      1 C         -11.8213   -4.8884   19.1644 C.2     1  UNL1        0.0919
      2 C         -13.0937   -5.4511   19.7249 C.2     1  UNL1        0.0183
      3 C         -14.2951   -4.5685   19.8908 C.2     1  UNL1        0.0511
      4 C         -14.2242   -3.1231   19.4961 C.2     1  UNL1        0.2322
      5 N         -15.2381   -2.0187   19.5437 N.2     1  UNL1       -0.0308
      6 C         -14.5923   -0.7734   19.0125 C.2     1  UNL1        0.3774
      7 N         -13.1793   -1.1081   18.6367 N.2     1  UNL1       -0.0346
      8 C         -12.9518   -2.5604   18.9356 C.2     1  UNL1        0.2191
      9 C         -11.7503   -3.4430   18.7697 C.3     1  UNL1        0.1226
     10 C         -15.2451    0.5707   18.8804 C.ar    1  UNL1        0.1157
     11 C         -14.9650    1.4257   17.6802 C.ar    1  UNL1        0.0100
     12 C         -15.6177    2.7698   17.5481 C.ar    1  UNL1        0.0004
     13 C         -16.5504    3.2588   18.6161 C.ar    1  UNL1        0.0022
     14 C         -16.8305    2.4038   19.8163 C.ar    1  UNL1        0.0277
     15 C         -16.1778    1.0598   19.9485 C.ar    1  UNL1        0.1475
     16 F         -16.4578    0.2047   21.1487 F       1  UNL1       -0.2039
     17 C         -17.7633    2.8929   20.8844 C.ar    1  UNL1        0.0022
     18 C         -19.2394    2.9469   20.6238 C.ar    1  UNL1        0.0001
     19 C         -20.1721    3.4360   21.6919 C.ar    1  UNL1        0.0000
     20 C         -19.6286    3.8711   23.0206 C.ar    1  UNL1        0.0000
     21 C         -18.1525    3.8170   23.2812 C.ar    1  UNL1        0.0000
     22 C         -17.2198    3.3279   22.2131 C.ar    1  UNL1        0.0001
     23 S         -10.6198   -5.7710   18.9986 S.O2    1  UNL1        0.0054
     24 O         -11.5141   -6.9211   18.6413 O.2     1  UNL1       -0.1689
     25 O          -9.7256   -4.6208   19.3558 O.2     1  UNL1       -0.1689
     26 C          -9.5867   -8.0703   18.3697 C.3     1  UNL1        0.0276
     27 C          -9.4184   -6.6536   18.8327 C.3     1  UNL1        0.1556
@<TRIPOS>BOND
     1    26    27    1
     2    27    23    1
     3    23    24    2
     4    23    25    2
     5    23     1    1
     6     1     2    2
     7     2     3    1
     8     3     4    2
     9     4     5    1
    10     5     6    2
    11     6    10    1
    12    10    11   ar
    13    11    12   ar
    14    12    13   ar
    15    13    14   ar
    16    14    17    1
    17    17    18   ar
    18    18    19   ar
    19    19    20   ar
    20    20    21   ar
    21    21    22   ar
    22    14    15   ar
    23    15    16    1
    24     6     7    1
    25     7     8    2
    26     8     9    1
    27     9     1    1
    28     8     4    1
    29    15    10   ar
    30    22    17   ar
@<TRIPOS>MOLECULE
*****
 27 30 0 0 0
SMALL
GASTEIGER

@<TRIPOS>ATOM
      1 C         -11.4200   -4.4804   19.0158 C.2     1  UNL1        0.0919
      2 C         -10.9738   -3.1310   18.5362 C.2     1  UNL1        0.0183
      3 C         -11.9350   -1.9794   18.5364 C.2     1  UNL1        0.0511
      4 C         -13.3423   -2.1772   19.0161 C.2     1  UNL1        0.2322
      5 N         -14.5050   -1.2366   19.1314 N.2     1  UNL1       -0.0308
      6 C         -15.6698   -2.0046   19.6823 C.2     1  UNL1        0.3774
      7 N         -15.2270   -3.4200   19.9074 N.2     1  UNL1       -0.0346
      8 C         -13.7885   -3.5266   19.4957 C.2     1  UNL1        0.2191
      9 C         -12.8273   -4.6782   19.4955 C.3     1  UNL1        0.1226
     10 C         -17.0374   -1.4539   19.9594 C.ar    1  UNL1        0.1157
     11 C         -18.2402   -2.3435   19.8507 C.ar    1  UNL1        0.0100
     12 C         -19.6077   -1.7929   20.1277 C.ar    1  UNL1        0.0004
     13 C         -19.7723   -0.3527   20.5134 C.ar    1  UNL1        0.0022
     14 C         -18.5694    0.5368   20.6221 C.ar    1  UNL1        0.0277
     15 C         -17.2019   -0.0138   20.3451 C.ar    1  UNL1        0.1475
     16 F         -15.9991    0.8757   20.4538 F       1  UNL1       -0.2039
     17 C         -18.7341    1.9770   21.0079 C.ar    1  UNL1        0.0022
     18 C         -19.3553    2.9450   20.0451 C.ar    1  UNL1        0.0001
     19 C         -19.5199    4.3852   20.4309 C.ar    1  UNL1        0.0000
     20 C         -19.0633    4.8573   21.7795 C.ar    1  UNL1        0.0000
     21 C         -18.4421    3.8893   22.7422 C.ar    1  UNL1        0.0000
     22 C         -18.2774    2.4492   22.3565 C.ar    1  UNL1        0.0001
     23 S         -10.4588   -5.6320   19.0156 S.O2    1  UNL1        0.0054
     24 O          -9.3461   -4.7033   19.4022 O.2     1  UNL1       -0.1689
     25 O         -11.5715   -6.5607   18.6291 O.2     1  UNL1       -0.1689
     26 C          -9.8227   -8.0317   18.2498 C.3     1  UNL1        0.0276
     27 C          -9.4976   -6.7836   19.0155 C.3     1  UNL1        0.1556
@<TRIPOS>BOND
     1    26    27    1
     2    27    23    1
     3    23    24    2
     4    23    25    2
     5    23     1    1
     6     1     2    2
     7     2     3    1
     8     3     4    2
     9     4     5    1
    10     5     6    2
    11     6    10    1
    12    10    11   ar
    13    11    12   ar
    14    12    13   ar
    15    13    14   ar
    16    14    17    1
    17    17    18   ar
    18    18    19   ar
    19    19    20   ar
    20    20    21   ar
    21    21    22   ar
    22    14    15   ar
    23    15    16    1
    24     6     7    1
    25     7     8    2
    26     8     9    1
    27     9     1    1
    28     8     4    1
    29    15    10   ar
    30    22    17   ar
@<TRIPOS>MOLECULE
*****
 27 30 0 0 0
SMALL
GASTEIGER

@<TRIPOS>ATOM
      1 C         -11.4686   -4.2605   18.3359 C.2     1  UNL1        0.0919
      2 C         -10.4870   -3.3136   17.7118 C.2     1  UNL1        0.0183
      3 C         -10.8304   -1.8599   17.5748 C.2     1  UNL1        0.0511
      4 C         -12.1555   -1.3531   18.0620 C.2     1  UNL1        0.2322
      5 N         -12.7683    0.0160   18.0614 N.2     1  UNL1       -0.0308
      6 C         -14.1288   -0.0849   18.6852 C.2     1  UNL1        0.3774
      7 N         -14.3567   -1.5163   19.0713 N.2     1  UNL1       -0.0346
      8 C         -13.1371   -2.3001   18.6861 C.2     1  UNL1        0.2191
      9 C         -12.7937   -3.7538   18.8231 C.3     1  UNL1        0.1226
     10 C         -15.0921    1.0470   18.8874 C.ar    1  UNL1        0.1157
     11 C         -15.0721    2.2240   17.9577 C.ar    1  UNL1        0.0100
     12 C         -16.0354    3.3559   18.1599 C.ar    1  UNL1        0.0004
     13 C         -17.0186    3.3108   19.2917 C.ar    1  UNL1        0.0022
     14 C         -17.0386    2.1338   20.2214 C.ar    1  UNL1        0.0277
     15 C         -16.0754    1.0020   20.0193 C.ar    1  UNL1        0.1475
     16 F         -16.0954   -0.1750   20.9490 F       1  UNL1       -0.2039
     17 C         -18.0220    2.0888   21.3533 C.ar    1  UNL1        0.0022
     18 C         -17.5794    2.4297   22.7453 C.ar    1  UNL1        0.0001
     19 C         -18.5627    2.3847   23.8771 C.ar    1  UNL1        0.0000
     20 C         -19.9886    1.9987   23.6169 C.ar    1  UNL1        0.0000
     21 C         -20.4312    1.6577   22.2249 C.ar    1  UNL1        0.0000
     22 C         -19.4479    1.7028   21.0931 C.ar    1  UNL1        0.0001
     23 S         -11.1252   -5.7143   18.4729 S.O2    1  UNL1        0.0054
     24 O          -9.9465   -5.3552   19.3284 O.2     1  UNL1       -0.1689
     25 O         -12.3038   -6.0733   17.6174 O.2     1  UNL1       -0.1689
     26 C          -9.3474   -7.5924   18.7220 C.3     1  UNL1        0.0276
     27 C         -10.7817   -7.1680   18.6099 C.3     1  UNL1        0.1556
@<TRIPOS>BOND
     1    26    27    1
     2    27    23    1
     3    23    24    2
     4    23    25    2
     5    23     1    1
     6     1     2    2
     7     2     3    1
     8     3     4    2
     9     4     5    1
    10     5     6    2
    11     6    10    1
    12    10    11   ar
    13    11    12   ar
    14    12    13   ar
    15    13    14   ar
    16    14    17    1
    17    17    18   ar
    18    18    19   ar
    19    19    20   ar
    20    20    21   ar
    21    21    22   ar
    22    14    15   ar
    23    15    16    1
    24     6     7    1
    25     7     8    2
    26     8     9    1
    27     9     1    1
    28     8     4    1
    29    15    10   ar
    30    22    17   ar
