@<TRIPOS>MOLECULE
*****
 43 48 0 0 0
SMALL
GASTEIGER

@<TRIPOS>ATOM
      1 N           3.2315    0.1955   31.5689 N.am    1  UNL1       -0.2222
      2 C           2.5485    0.3196   30.2391 C.2     1  UNL1        0.3219
      3 O           2.8390   -0.5026   29.0186 O.2     1  UNL1       -0.2512
      4 N           1.5240    1.4102   30.3442 N.am    1  UNL1       -0.1907
      5 C           1.5738    1.9602   31.7389 C.2     1  UNL1        0.2529
      6 O           0.7186    3.0665   32.2815 O.2     1  UNL1       -0.2724
      7 C           2.6291    1.2094   32.4958 C.3     1  UNL1        0.1391
      8 C           3.7089    0.3769   33.1209 C.3     1  UNL1        0.0449
      9 C           4.0941    0.6007   34.5532 C.3     1  UNL1        0.0746
     10 N           3.3996    1.6572   35.3603 N.3     1  UNL1       -0.2676
     11 C           2.3197    2.4897   34.7352 C.3     1  UNL1        0.0746
     12 C           1.9345    2.2658   33.3030 C.3     1  UNL1        0.0449
     13 C           6.8446   -1.4050   31.9338 C.ar    1  UNL1        0.2293
     14 C           5.7513   -0.4370   31.5912 C.ar    1  UNL1        0.0924
     15 C           4.3249   -0.7726   31.9115 C.ar    1  UNL1        0.1453
     16 N           3.9918   -2.0762   32.5746 N.ar    1  UNL1       -0.2084
     17 C           5.0851   -3.0443   32.9172 C.ar    1  UNL1        0.2027
     18 N           6.5116   -2.7087   32.5968 N.ar    1  UNL1       -0.1892
     19 C           9.3823   -1.6664   32.4252 C.3     1  UNL1        0.2542
     20 O           8.2711   -1.0695   31.6135 O.3     1  UNL1       -0.4560
     21 C           0.6102    1.8701   29.2473 C.ar    1  UNL1        0.0622
     22 C           0.7024    3.2768   28.7347 C.ar    1  UNL1        0.0154
     23 C          -0.2115    3.7368   27.6378 C.ar    1  UNL1        0.0013
     24 C          -1.2175    2.7900   27.0533 C.ar    1  UNL1        0.0001
     25 C          -1.3097    1.3832   27.5659 C.ar    1  UNL1        0.0013
     26 C          -0.3958    0.9234   28.6629 C.ar    1  UNL1        0.0154
     27 C          -2.1314    3.2499   25.9563 C.ar    1  UNL1        0.0000
     28 C          -3.5441    3.6427   26.2723 C.ar    1  UNL1        0.0000
     29 C          -4.4579    4.1027   25.1754 C.ar    1  UNL1        0.0011
     30 C          -3.9589    4.1698   23.7624 C.ar    1  UNL1        0.0140
     31 C          -2.5462    3.7770   23.4464 C.ar    1  UNL1        0.0011
     32 C          -1.6324    3.3171   24.5433 C.ar    1  UNL1        0.0000
     33 C          -4.8728    4.6297   22.6654 C.2     1  UNL1        0.0729
     34 O          -4.3952    5.6413   21.6661 O.co2   1  UNL1       -0.5446
     35 O          -6.2643    4.0779   22.5677 O.co2   1  UNL1       -0.5446
     36 C           3.7848    1.8810   36.7927 C.3     1  UNL1        0.1183
     37 C           2.7582    1.7372   37.8768 C.ar    1  UNL1        0.0712
     38 N           2.4599    0.3847   38.4526 N.ar    1  UNL1       -0.2471
     39 C           1.4332    0.2409   39.5367 C.ar    1  UNL1        0.0985
     40 C           0.7048    1.4497   40.0450 C.ar    1  UNL1        0.0203
     41 C           1.0031    2.8022   39.4691 C.ar    1  UNL1       -0.0015
     42 C           2.0297    2.9460   38.3850 C.ar    1  UNL1       -0.0069
     43 C           2.3280    4.2986   37.8092 C.3     1  UNL1        0.0323
@<TRIPOS>UNITY_ATOM_ATTR
34 1
charge -1
@<TRIPOS>BOND
     1    19    20    1
     2    20    13    1
     3    13    14   ar
     4    14    15   ar
     5    15     1    1
     6     1     2   am
     7     2     3    2
     8     2     4   am
     9     4    21    1
    10    21    22   ar
    11    22    23   ar
    12    23    24   ar
    13    24    27    1
    14    27    28   ar
    15    28    29   ar
    16    29    30   ar
    17    30    33    1
    18    33    34   ar
    19    33    35   ar
    20    30    31   ar
    21    31    32   ar
    22    24    25   ar
    23    25    26   ar
    24     4     5   am
    25     5     6    2
    26     5     7    1
    27     7     8    1
    28     8     9    1
    29     9    10    1
    30    10    36    1
    31    36    37    1
    32    37    38   ar
    33    38    39   ar
    34    39    40   ar
    35    40    41   ar
    36    41    42   ar
    37    42    43    1
    38    10    11    1
    39    11    12    1
    40    15    16   ar
    41    16    17   ar
    42    17    18   ar
    43    18    13   ar
    44     7     1    1
    45    42    37   ar
    46    26    21   ar
    47    12     7    1
    48    32    27   ar
@<TRIPOS>MOLECULE
*****
 43 48 0 0 0
SMALL
GASTEIGER

@<TRIPOS>ATOM
      1 N           2.9051    0.8464   31.5017 N.am    1  UNL1       -0.2222
      2 C           2.3551    0.8107   30.1066 C.2     1  UNL1        0.3219
      3 O           2.7492   -0.1542   29.0279 O.2     1  UNL1       -0.2512
      4 N           1.3417    1.9094   29.9797 N.am    1  UNL1       -0.1907
      5 C           1.2655    2.6240   31.2963 C.2     1  UNL1        0.2529
      6 O           0.3787    3.7908   31.6161 O.2     1  UNL1       -0.2724
      7 C           2.2317    1.9671   32.2370 C.3     1  UNL1        0.1391
      8 C           3.2338    1.2129   33.0597 C.3     1  UNL1        0.0449
      9 C           3.4829    1.6073   34.4853 C.3     1  UNL1        0.0746
     10 N           2.7299    2.7560   35.0881 N.3     1  UNL1       -0.2676
     11 C           1.7278    3.5102   34.2654 C.3     1  UNL1        0.0746
     12 C           1.4787    3.1158   32.8399 C.3     1  UNL1        0.0449
     13 C           6.4373   -0.6246   32.5551 C.ar    1  UNL1        0.2293
     14 C           5.3966    0.2984   31.9939 C.ar    1  UNL1        0.0924
     15 C           3.9458   -0.0766   32.0630 C.ar    1  UNL1        0.1453
     16 N           3.5358   -1.3745   32.6933 N.ar    1  UNL1       -0.2084
     17 C           4.5765   -2.2975   33.2545 C.ar    1  UNL1        0.2027
     18 N           6.0273   -1.9225   33.1854 N.ar    1  UNL1       -0.1892
     19 C           8.6453    0.0519   33.7453 C.3     1  UNL1        0.2542
     20 O           7.8880   -0.2497   32.4861 O.3     1  UNL1       -0.4560
     21 C           0.5446    2.2360   28.7518 C.ar    1  UNL1        0.0622
     22 C          -0.1702    1.1459   28.0097 C.ar    1  UNL1        0.0154
     23 C          -0.9674    1.4726   26.7817 C.ar    1  UNL1        0.0013
     24 C          -1.0498    2.8893   26.2959 C.ar    1  UNL1        0.0001
     25 C          -0.3349    3.9795   27.0380 C.ar    1  UNL1        0.0013
     26 C           0.4622    3.6527   28.2660 C.ar    1  UNL1        0.0154
     27 C          -1.8469    3.2160   25.0679 C.ar    1  UNL1        0.0000
     28 C          -1.1748    3.2624   23.7278 C.ar    1  UNL1        0.0000
     29 C          -1.9720    3.5891   22.4998 C.ar    1  UNL1        0.0011
     30 C          -3.4413    3.8693   22.6122 C.ar    1  UNL1        0.0140
     31 C          -4.1134    3.8229   23.9523 C.ar    1  UNL1        0.0011
     32 C          -3.3163    3.4962   25.1802 C.ar    1  UNL1        0.0000
     33 C          -4.2385    4.1959   21.3842 C.2     1  UNL1        0.0729
     34 O          -4.9594    5.5076   21.2849 O.co2   1  UNL1       -0.5446
     35 O          -4.3147    3.2109   20.2555 O.co2   1  UNL1       -0.5446
     36 C           2.9790    3.1505   36.5138 C.3     1  UNL1        0.1183
     37 C           2.2058    2.4950   37.6194 C.ar    1  UNL1        0.0712
     38 N           0.9341    3.1165   38.1161 N.ar    1  UNL1       -0.2471
     39 C           0.1609    2.4610   39.2217 C.ar    1  UNL1        0.0985
     40 C           0.6593    1.1840   39.8307 C.ar    1  UNL1        0.0203
     41 C           1.9310    0.5625   39.3340 C.ar    1  UNL1       -0.0015
     42 C           2.7042    1.2180   38.2284 C.ar    1  UNL1       -0.0069
     43 C           3.9758    0.5965   37.7318 C.3     1  UNL1        0.0323
@<TRIPOS>UNITY_ATOM_ATTR
34 1
charge -1
@<TRIPOS>BOND
     1    19    20    1
     2    20    13    1
     3    13    14   ar
     4    14    15   ar
     5    15     1    1
     6     1     2   am
     7     2     3    2
     8     2     4   am
     9     4    21    1
    10    21    22   ar
    11    22    23   ar
    12    23    24   ar
    13    24    27    1
    14    27    28   ar
    15    28    29   ar
    16    29    30   ar
    17    30    33    1
    18    33    34   ar
    19    33    35   ar
    20    30    31   ar
    21    31    32   ar
    22    24    25   ar
    23    25    26   ar
    24     4     5   am
    25     5     6    2
    26     5     7    1
    27     7     8    1
    28     8     9    1
    29     9    10    1
    30    10    36    1
    31    36    37    1
    32    37    38   ar
    33    38    39   ar
    34    39    40   ar
    35    40    41   ar
    36    41    42   ar
    37    42    43    1
    38    10    11    1
    39    11    12    1
    40    15    16   ar
    41    16    17   ar
    42    17    18   ar
    43    18    13   ar
    44     7     1    1
    45    42    37   ar
    46    26    21   ar
    47    12     7    1
    48    32    27   ar
@<TRIPOS>MOLECULE
*****
 43 48 0 0 0
SMALL
GASTEIGER

@<TRIPOS>ATOM
      1 N           3.6507   -1.0237   21.6432 N.am    1  UNL1       -0.2222
      2 C           2.4241   -0.1637   21.7223 C.2     1  UNL1        0.3219
      3 O           1.5647    0.2546   20.5663 O.2     1  UNL1       -0.2512
      4 N           2.2081    0.2045   23.1603 N.am    1  UNL1       -0.1907
      5 C           3.3010   -0.4279   23.9699 C.2     1  UNL1        0.2529
      6 O           3.4723   -0.3203   25.4562 O.2     1  UNL1       -0.2724
      7 C           4.1926   -1.1870   23.0324 C.3     1  UNL1        0.1391
      8 C           4.9894   -1.8982   21.9791 C.3     1  UNL1        0.0449
      9 C           6.2087   -2.6827   22.3633 C.3     1  UNL1        0.0746
     10 N           6.6313   -2.7562   23.8007 N.3     1  UNL1       -0.2676
     11 C           5.8345   -2.0450   24.8539 C.3     1  UNL1        0.0746
     12 C           4.6151   -1.2605   24.4698 C.3     1  UNL1        0.0449
     13 C           5.8247   -1.4366   18.3489 C.ar    1  UNL1        0.2293
     14 C           5.2424   -0.8440   19.5978 C.ar    1  UNL1        0.0924
     15 C           4.2330   -1.6163   20.3944 C.ar    1  UNL1        0.1453
     16 N           3.8058   -2.9812   19.9420 N.ar    1  UNL1       -0.2084
     17 C           4.3881   -3.5739   18.6932 C.ar    1  UNL1        0.2027
     18 N           5.3976   -2.8015   17.8966 N.ar    1  UNL1       -0.1892
     19 C           6.4029    0.5254   16.7471 C.3     1  UNL1        0.2542
     20 O           6.8342   -0.6644   17.5523 O.3     1  UNL1       -0.4560
     21 C           1.0946    1.0556   23.6947 C.ar    1  UNL1        0.0622
     22 C           0.6022    0.8526   25.0969 C.ar    1  UNL1        0.0154
     23 C          -0.5113    1.7038   25.6314 C.ar    1  UNL1        0.0013
     24 C          -1.1324    2.7579   24.7636 C.ar    1  UNL1        0.0001
     25 C          -0.6400    2.9609   23.3613 C.ar    1  UNL1        0.0013
     26 C           0.4735    2.1097   22.8269 C.ar    1  UNL1        0.0154
     27 C          -2.2459    3.6091   25.2981 C.ar    1  UNL1        0.0000
     28 C          -2.0190    4.4694   26.5057 C.ar    1  UNL1        0.0000
     29 C          -3.1325    5.3206   27.0401 C.ar    1  UNL1        0.0011
     30 C          -4.4730    5.3113   26.3669 C.ar    1  UNL1        0.0140
     31 C          -4.6999    4.4510   25.1593 C.ar    1  UNL1        0.0011
     32 C          -3.5864    3.5999   24.6248 C.ar    1  UNL1        0.0000
     33 C          -5.5865    6.1625   26.9013 C.2     1  UNL1        0.0729
     34 O          -6.0762    7.3397   26.1112 O.co2   1  UNL1       -0.5446
     35 O          -6.2103    5.8364   28.2260 O.co2   1  UNL1       -0.5446
     36 C           7.8507   -3.5408   24.1848 C.3     1  UNL1        0.1183
     37 C           7.7062   -4.9235   24.7479 C.ar    1  UNL1        0.0712
     38 N           7.0200   -5.1286   26.0659 N.ar    1  UNL1       -0.2471
     39 C           6.8755   -6.5115   26.6290 C.ar    1  UNL1        0.0985
     40 C           7.4172   -7.6890   25.8742 C.ar    1  UNL1        0.0203
     41 C           8.1034   -7.4839   24.5562 C.ar    1  UNL1       -0.0015
     42 C           8.2479   -6.1012   23.9931 C.ar    1  UNL1       -0.0069
     43 C           8.9341   -5.8960   22.6751 C.3     1  UNL1        0.0323
@<TRIPOS>UNITY_ATOM_ATTR
34 1
charge -1
@<TRIPOS>BOND
     1    19    20    1
     2    20    13    1
     3    13    14   ar
     4    14    15   ar
     5    15     1    1
     6     1     2   am
     7     2     3    2
     8     2     4   am
     9     4    21    1
    10    21    22   ar
    11    22    23   ar
    12    23    24   ar
    13    24    27    1
    14    27    28   ar
    15    28    29   ar
    16    29    30   ar
    17    30    33    1
    18    33    34   ar
    19    33    35   ar
    20    30    31   ar
    21    31    32   ar
    22    24    25   ar
    23    25    26   ar
    24     4     5   am
    25     5     6    2
    26     5     7    1
    27     7     8    1
    28     8     9    1
    29     9    10    1
    30    10    36    1
    31    36    37    1
    32    37    38   ar
    33    38    39   ar
    34    39    40   ar
    35    40    41   ar
    36    41    42   ar
    37    42    43    1
    38    10    11    1
    39    11    12    1
    40    15    16   ar
    41    16    17   ar
    42    17    18   ar
    43    18    13   ar
    44     7     1    1
    45    42    37   ar
    46    26    21   ar
    47    12     7    1
    48    32    27   ar
@<TRIPOS>MOLECULE
*****
 43 48 0 0 0
SMALL
GASTEIGER

@<TRIPOS>ATOM
      1 N           1.5345    1.9027   24.2607 N.am    1  UNL1       -0.2222
      2 C           1.6569    2.1546   25.7344 C.2     1  UNL1        0.3219
      3 O           1.0872    3.3255   26.4790 O.2     1  UNL1       -0.2512
      4 N           2.4489    1.0299   26.3327 N.am    1  UNL1       -0.1907
      5 C           2.8160    0.0830   25.2288 C.2     1  UNL1        0.2529
      6 O           3.6090   -1.1813   25.3790 O.2     1  UNL1       -0.2724
      7 C           2.2509    0.6224   23.9482 C.3     1  UNL1        0.1391
      8 C           1.6294    1.2812   22.7526 C.3     1  UNL1        0.0449
      9 C           1.7581    0.6510   21.3975 C.3     1  UNL1        0.0746
     10 N           2.5084   -0.6381   21.2382 N.3     1  UNL1       -0.2676
     11 C           3.1299   -1.2969   22.4338 C.3     1  UNL1        0.0746
     12 C           3.0012   -0.6667   23.7888 C.3     1  UNL1        0.0449
     13 C          -1.3472    3.4272   21.9977 C.ar    1  UNL1        0.2293
     14 C          -0.6338    2.5524   22.9855 C.ar    1  UNL1        0.0924
     15 C           0.8211    2.7775   23.2729 C.ar    1  UNL1        0.1453
     16 N           1.5625    3.8775   22.5727 N.ar    1  UNL1       -0.2084
     17 C           0.8491    4.7523   21.5850 C.ar    1  UNL1        0.2027
     18 N          -0.6058    4.5272   21.2975 N.ar    1  UNL1       -0.1892
     19 C          -3.3045    3.2560   20.2979 C.3     1  UNL1        0.2542
     20 O          -2.8021    3.2022   21.7102 O.3     1  UNL1       -0.4560
     21 C           2.8102    0.8788   27.7806 C.ar    1  UNL1        0.0622
     22 C           2.0185   -0.0442   28.6588 C.ar    1  UNL1        0.0154
     23 C           2.3799   -0.1953   30.1067 C.ar    1  UNL1        0.0013
     24 C           3.5331    0.5764   30.6765 C.ar    1  UNL1        0.0001
     25 C           4.3249    1.4995   29.7982 C.ar    1  UNL1        0.0013
     26 C           3.9634    1.6505   28.3503 C.ar    1  UNL1        0.0154
     27 C           3.8945    0.4253   32.1244 C.ar    1  UNL1        0.0000
     28 C           4.1256   -0.9400   32.7012 C.ar    1  UNL1        0.0000
     29 C           4.4870   -1.0911   34.1491 C.ar    1  UNL1        0.0011
     30 C           4.6172    0.1231   35.0203 C.ar    1  UNL1        0.0140
     31 C           4.3861    1.4883   34.4435 C.ar    1  UNL1        0.0011
     32 C           4.0247    1.6395   32.9957 C.ar    1  UNL1        0.0000
     33 C           4.9786   -0.0281   36.4682 C.2     1  UNL1        0.0729
     34 O           4.0230    0.4266   37.5312 O.co2   1  UNL1       -0.5446
     35 O           6.2958   -0.6341   36.8532 O.co2   1  UNL1       -0.5446
     36 C           2.6371   -1.2684   19.8830 C.3     1  UNL1        0.1183
     37 C           3.9954   -1.5116   19.2949 C.ar    1  UNL1        0.0712
     38 N           4.9339   -0.3624   19.0743 N.ar    1  UNL1       -0.2471
     39 C           6.2922   -0.6057   18.4862 C.ar    1  UNL1        0.0985
     40 C           6.7120   -1.9980   18.1187 C.ar    1  UNL1        0.0203
     41 C           5.7735   -3.1472   18.3393 C.ar    1  UNL1       -0.0015
     42 C           4.4152   -2.9040   18.9274 C.ar    1  UNL1       -0.0069
     43 C           3.4767   -4.0531   19.1480 C.3     1  UNL1        0.0323
@<TRIPOS>UNITY_ATOM_ATTR
34 1
charge -1
@<TRIPOS>BOND
     1    19    20    1
     2    20    13    1
     3    13    14   ar
     4    14    15   ar
     5    15     1    1
     6     1     2   am
     7     2     3    2
     8     2     4   am
     9     4    21    1
    10    21    22   ar
    11    22    23   ar
    12    23    24   ar
    13    24    27    1
    14    27    28   ar
    15    28    29   ar
    16    29    30   ar
    17    30    33    1
    18    33    34   ar
    19    33    35   ar
    20    30    31   ar
    21    31    32   ar
    22    24    25   ar
    23    25    26   ar
    24     4     5   am
    25     5     6    2
    26     5     7    1
    27     7     8    1
    28     8     9    1
    29     9    10    1
    30    10    36    1
    31    36    37    1
    32    37    38   ar
    33    38    39   ar
    34    39    40   ar
    35    40    41   ar
    36    41    42   ar
    37    42    43    1
    38    10    11    1
    39    11    12    1
    40    15    16   ar
    41    16    17   ar
    42    17    18   ar
    43    18    13   ar
    44     7     1    1
    45    42    37   ar
    46    26    21   ar
    47    12     7    1
    48    32    27   ar
@<TRIPOS>MOLECULE
*****
 43 48 0 0 0
SMALL
GASTEIGER

@<TRIPOS>ATOM
      1 N           2.5345    2.5955   19.8432 N.am    1  UNL1       -0.2222
      2 C           1.4332    3.4536   20.3918 C.2     1  UNL1        0.3219
      3 O           1.4578    4.9484   20.5139 O.2     1  UNL1       -0.2512
      4 N           0.3029    2.5544   20.7969 N.am    1  UNL1       -0.1907
      5 C           0.7057    1.1406   20.4987 C.2     1  UNL1        0.2529
      6 O          -0.1248   -0.0837   20.7463 O.2     1  UNL1       -0.2724
      7 C           2.0848    1.1660   19.9092 C.3     1  UNL1        0.1391
      8 C           3.4590    1.3475   19.3358 C.3     1  UNL1        0.0449
      9 C           4.2496    0.1531   18.8906 C.3     1  UNL1        0.0746
     10 N           3.6661   -1.2228   19.0188 N.3     1  UNL1       -0.2676
     11 C           2.2920   -1.4044   19.5922 C.3     1  UNL1        0.0746
     12 C           1.5014   -0.2100   20.0374 C.3     1  UNL1        0.0449
     13 C           6.3415    3.7102   19.7271 C.ar    1  UNL1        0.2293
     14 C           5.0223    3.2241   20.2499 C.ar    1  UNL1        0.0924
     15 C           3.8537    3.0816   19.3204 C.ar    1  UNL1        0.1453
     16 N           4.0043    3.4251   17.8680 N.ar    1  UNL1       -0.2084
     17 C           5.3234    3.9112   17.3452 C.ar    1  UNL1        0.2027
     18 N           6.4921    4.0537   18.2748 N.ar    1  UNL1       -0.1892
     19 C           7.4031    3.3756   22.0746 C.3     1  UNL1        0.2542
     20 O           7.5102    3.8527   20.6565 O.3     1  UNL1       -0.4560
     21 C          -1.0010    2.9921   21.3952 C.ar    1  UNL1        0.0622
     22 C          -1.1113    3.2110   22.8750 C.ar    1  UNL1        0.0154
     23 C          -2.4153    3.6488   23.4733 C.ar    1  UNL1        0.0013
     24 C          -3.6090    3.8677   22.5917 C.ar    1  UNL1        0.0001
     25 C          -3.4988    3.6488   21.1118 C.ar    1  UNL1        0.0013
     26 C          -2.1947    3.2110   20.5136 C.ar    1  UNL1        0.0154
     27 C          -4.9131    4.3054   23.1900 C.ar    1  UNL1        0.0000
     28 C          -6.2041    3.9610   22.5085 C.ar    1  UNL1        0.0000
     29 C          -7.5081    4.3987   23.1067 C.ar    1  UNL1        0.0011
     30 C          -7.5210    5.1810   24.3866 C.ar    1  UNL1        0.0140
     31 C          -6.2299    5.5254   25.0681 C.ar    1  UNL1        0.0011
     32 C          -4.9260    5.0877   24.4699 C.ar    1  UNL1        0.0000
     33 C          -8.8250    5.6187   24.9849 C.2     1  UNL1        0.0729
     34 O         -10.1152    5.0607   24.4615 O.co2   1  UNL1       -0.5446
     35 O          -8.8388    6.6146   26.1066 O.co2   1  UNL1       -0.5446
     36 C           4.4569   -2.4173   18.5736 C.3     1  UNL1        0.1183
     37 C           5.8233   -2.6657   19.1401 C.ar    1  UNL1        0.0712
     38 N           7.0379   -2.1657   18.4155 N.ar    1  UNL1       -0.2471
     39 C           8.4044   -2.4142   18.9821 C.ar    1  UNL1        0.0985
     40 C           8.5564   -3.1626   20.2731 C.ar    1  UNL1        0.0203
     41 C           7.3418   -3.6626   20.9976 C.ar    1  UNL1       -0.0015
     42 C           5.9754   -3.4141   20.4312 C.ar    1  UNL1       -0.0069
     43 C           4.7608   -3.9141   21.1557 C.3     1  UNL1        0.0323
@<TRIPOS>UNITY_ATOM_ATTR
34 1
charge -1
@<TRIPOS>BOND
     1    19    20    1
     2    20    13    1
     3    13    14   ar
     4    14    15   ar
     5    15     1    1
     6     1     2   am
     7     2     3    2
     8     2     4   am
     9     4    21    1
    10    21    22   ar
    11    22    23   ar
    12    23    24   ar
    13    24    27    1
    14    27    28   ar
    15    28    29   ar
    16    29    30   ar
    17    30    33    1
    18    33    34   ar
    19    33    35   ar
    20    30    31   ar
    21    31    32   ar
    22    24    25   ar
    23    25    26   ar
    24     4     5   am
    25     5     6    2
    26     5     7    1
    27     7     8    1
    28     8     9    1
    29     9    10    1
    30    10    36    1
    31    36    37    1
    32    37    38   ar
    33    38    39   ar
    34    39    40   ar
    35    40    41   ar
    36    41    42   ar
    37    42    43    1
    38    10    11    1
    39    11    12    1
    40    15    16   ar
    41    16    17   ar
    42    17    18   ar
    43    18    13   ar
    44     7     1    1
    45    42    37   ar
    46    26    21   ar
    47    12     7    1
    48    32    27   ar
@<TRIPOS>MOLECULE
*****
 43 48 0 0 0
SMALL
GASTEIGER

@<TRIPOS>ATOM
      1 N           5.5195   -0.5373   32.6555 N.am    1  UNL1       -0.2222
      2 C           5.9616   -0.0867   34.0163 C.2     1  UNL1        0.3219
      3 O           7.2428   -0.4665   34.6977 O.2     1  UNL1       -0.2512
      4 N           4.8975    0.8103   34.5760 N.am    1  UNL1       -0.1907
      5 C           3.7978    0.9141   33.5612 C.2     1  UNL1        0.2529
      6 O           2.5354    1.7107   33.7075 O.2     1  UNL1       -0.2724
      7 C           4.1822    0.0812   32.3742 C.3     1  UNL1        0.1391
      8 C           4.6983   -0.7867   31.2651 C.3     1  UNL1        0.0449
      9 C           3.8877   -0.9690   30.0163 C.3     1  UNL1        0.0746
     10 N           2.5610   -0.2834   29.8766 N.3     1  UNL1       -0.2676
     11 C           2.0448    0.5846   30.9857 C.3     1  UNL1        0.0746
     12 C           2.8554    0.7669   32.2345 C.3     1  UNL1        0.0449
     13 C           6.9294   -3.8438   30.9736 C.ar    1  UNL1        0.2293
     14 C           6.1679   -2.9344   31.8918 C.ar    1  UNL1        0.0924
     15 C           6.2809   -1.4467   31.7373 C.ar    1  UNL1        0.1453
     16 N           7.1554   -0.8684   30.6645 N.ar    1  UNL1       -0.2084
     17 C           7.9169   -1.7777   29.7463 C.ar    1  UNL1        0.2027
     18 N           7.8039   -3.2655   29.9009 N.ar    1  UNL1       -0.1892
     19 C           8.0528   -6.1640   31.2965 C.3     1  UNL1        0.2542
     20 O           6.8165   -5.3315   31.1281 O.3     1  UNL1       -0.4560
     21 C           4.9279    1.4849   35.9153 C.ar    1  UNL1        0.0622
     22 C           4.0411    0.9958   37.0217 C.ar    1  UNL1        0.0154
     23 C           4.0714    1.6706   38.3611 C.ar    1  UNL1        0.0013
     24 C           4.9886    2.8344   38.5940 C.ar    1  UNL1        0.0001
     25 C           5.8755    3.3236   37.4875 C.ar    1  UNL1        0.0013
     26 C           5.8451    2.6488   36.1482 C.ar    1  UNL1        0.0154
     27 C           5.0190    3.5091   39.9333 C.ar    1  UNL1        0.0000
     28 C           6.1749    3.2815   40.8617 C.ar    1  UNL1        0.0000
     29 C           6.2053    3.9563   42.2011 C.ar    1  UNL1        0.0011
     30 C           5.0796    4.8586   42.6119 C.ar    1  UNL1        0.0140
     31 C           3.9237    5.0861   41.6835 C.ar    1  UNL1        0.0011
     32 C           3.8933    4.4115   40.3442 C.ar    1  UNL1        0.0000
     33 C           5.1100    5.5333   43.9513 C.2     1  UNL1        0.0729
     34 O           5.4113    4.7364   45.1859 O.co2   1  UNL1       -0.5446
     35 O           4.8390    7.0050   44.0560 O.co2   1  UNL1       -0.5446
     36 C           1.7503   -0.4657   28.6276 C.3     1  UNL1        0.1183
     37 C           0.9530    0.6794   28.0772 C.ar    1  UNL1        0.0712
     38 N           1.6542    1.8605   27.4746 N.ar    1  UNL1       -0.2471
     39 C           0.8568    3.0056   26.9241 C.ar    1  UNL1        0.0985
     40 C          -0.6418    2.9695   26.9763 C.ar    1  UNL1        0.0203
     41 C          -1.3431    1.7884   27.5790 C.ar    1  UNL1       -0.0015
     42 C          -0.5457    0.6433   28.1294 C.ar    1  UNL1       -0.0069
     43 C          -1.2470   -0.5378   28.7320 C.3     1  UNL1        0.0323
@<TRIPOS>UNITY_ATOM_ATTR
34 1
charge -1
@<TRIPOS>BOND
     1    19    20    1
     2    20    13    1
     3    13    14   ar
     4    14    15   ar
     5    15     1    1
     6     1     2   am
     7     2     3    2
     8     2     4   am
     9     4    21    1
    10    21    22   ar
    11    22    23   ar
    12    23    24   ar
    13    24    27    1
    14    27    28   ar
    15    28    29   ar
    16    29    30   ar
    17    30    33    1
    18    33    34   ar
    19    33    35   ar
    20    30    31   ar
    21    31    32   ar
    22    24    25   ar
    23    25    26   ar
    24     4     5   am
    25     5     6    2
    26     5     7    1
    27     7     8    1
    28     8     9    1
    29     9    10    1
    30    10    36    1
    31    36    37    1
    32    37    38   ar
    33    38    39   ar
    34    39    40   ar
    35    40    41   ar
    36    41    42   ar
    37    42    43    1
    38    10    11    1
    39    11    12    1
    40    15    16   ar
    41    16    17   ar
    42    17    18   ar
    43    18    13   ar
    44     7     1    1
    45    42    37   ar
    46    26    21   ar
    47    12     7    1
    48    32    27   ar
@<TRIPOS>MOLECULE
*****
 43 48 0 0 0
SMALL
GASTEIGER

@<TRIPOS>ATOM
      1 N           3.4482   -0.0984   30.5795 N.am    1  UNL1       -0.2222
      2 C           2.1905    0.6763   30.3181 C.2     1  UNL1        0.3219
      3 O           1.3068    1.2997   31.3576 O.2     1  UNL1       -0.2512
      4 N           1.9717    0.7181   28.8347 N.am    1  UNL1       -0.1907
      5 C           3.0941   -0.0307   28.1793 C.2     1  UNL1        0.2529
      6 O           3.2727   -0.2384   26.7046 O.2     1  UNL1       -0.2724
      7 C           4.0066   -0.5353   29.2577 C.3     1  UNL1        0.1391
      8 C           4.8217   -0.9720   30.4387 C.3     1  UNL1        0.0449
      9 C           6.0729   -1.7730   30.2315 C.3     1  UNL1        0.0746
     10 N           6.5090   -2.1372   28.8433 N.3     1  UNL1       -0.2676
     11 C           5.6939   -1.7005   27.6623 C.3     1  UNL1        0.0746
     12 C           4.4427   -0.8996   27.8694 C.3     1  UNL1        0.0449
     13 C           5.5490    0.3278   33.9193 C.ar    1  UNL1        0.2293
     14 C           4.9543    0.6151   32.5726 C.ar    1  UNL1        0.0924
     15 C           4.0429   -0.3857   31.9262 C.ar    1  UNL1        0.1453
     16 N           3.7262   -1.6738   32.6267 N.ar    1  UNL1       -0.2084
     17 C           4.3209   -1.9611   33.9733 C.ar    1  UNL1        0.2027
     18 N           5.2324   -0.9603   34.6197 N.ar    1  UNL1       -0.1892
     19 C           5.8955    2.5883   35.1521 C.3     1  UNL1        0.2542
     20 O           6.4604    1.3285   34.5657 O.3     1  UNL1       -0.4560
     21 C           0.8309    1.3907   28.1304 C.ar    1  UNL1        0.0622
     22 C          -0.5778    0.9451   28.3894 C.ar    1  UNL1        0.0154
     23 C          -1.7187    1.6177   27.6851 C.ar    1  UNL1        0.0013
     24 C          -1.4509    2.7358   26.7218 C.ar    1  UNL1        0.0001
     25 C          -0.0421    3.1814   26.4627 C.ar    1  UNL1        0.0013
     26 C           1.0987    2.5088   27.1671 C.ar    1  UNL1        0.0154
     27 C          -2.5917    3.4084   26.0174 C.ar    1  UNL1        0.0000
     28 C          -3.7623    3.9193   26.8041 C.ar    1  UNL1        0.0000
     29 C          -4.9032    4.5919   26.0997 C.ar    1  UNL1        0.0011
     30 C          -4.8734    4.7535   24.6087 C.ar    1  UNL1        0.0140
     31 C          -3.7028    4.2426   23.8221 C.ar    1  UNL1        0.0011
     32 C          -2.5620    3.5701   24.5264 C.ar    1  UNL1        0.0000
     33 C          -6.0143    5.4261   23.9044 C.2     1  UNL1        0.0729
     34 O          -6.8899    4.6397   22.9745 O.co2   1  UNL1       -0.5446
     35 O          -6.2795    6.8852   24.1300 O.co2   1  UNL1       -0.5446
     36 C           7.7603   -2.9382   28.6362 C.3     1  UNL1        0.1183
     37 C           7.7611   -4.0944   27.6806 C.ar    1  UNL1        0.0712
     38 N           8.1711   -3.8871   26.2528 N.ar    1  UNL1       -0.2471
     39 C           8.1719   -5.0434   25.2972 C.ar    1  UNL1        0.0985
     40 C           7.7627   -6.4070   25.7696 C.ar    1  UNL1        0.0203
     41 C           7.3526   -6.6143   27.1975 C.ar    1  UNL1       -0.0015
     42 C           7.3518   -5.4580   28.1530 C.ar    1  UNL1       -0.0069
     43 C           6.9418   -5.6654   29.5809 C.3     1  UNL1        0.0323
@<TRIPOS>UNITY_ATOM_ATTR
34 1
charge -1
@<TRIPOS>BOND
     1    19    20    1
     2    20    13    1
     3    13    14   ar
     4    14    15   ar
     5    15     1    1
     6     1     2   am
     7     2     3    2
     8     2     4   am
     9     4    21    1
    10    21    22   ar
    11    22    23   ar
    12    23    24   ar
    13    24    27    1
    14    27    28   ar
    15    28    29   ar
    16    29    30   ar
    17    30    33    1
    18    33    34   ar
    19    33    35   ar
    20    30    31   ar
    21    31    32   ar
    22    24    25   ar
    23    25    26   ar
    24     4     5   am
    25     5     6    2
    26     5     7    1
    27     7     8    1
    28     8     9    1
    29     9    10    1
    30    10    36    1
    31    36    37    1
    32    37    38   ar
    33    38    39   ar
    34    39    40   ar
    35    40    41   ar
    36    41    42   ar
    37    42    43    1
    38    10    11    1
    39    11    12    1
    40    15    16   ar
    41    16    17   ar
    42    17    18   ar
    43    18    13   ar
    44     7     1    1
    45    42    37   ar
    46    26    21   ar
    47    12     7    1
    48    32    27   ar
@<TRIPOS>MOLECULE
*****
 43 48 0 0 0
SMALL
GASTEIGER

@<TRIPOS>ATOM
      1 N           6.1847   -2.1322   26.2513 N.am    1  UNL1       -0.2222
      2 C           6.3983   -1.9953   27.7298 C.2     1  UNL1        0.3219
      3 O           7.5578   -2.5435   28.5076 O.2     1  UNL1       -0.2512
      4 N           5.2487   -1.2139   28.2938 N.am    1  UNL1       -0.1907
      5 C           4.3247   -0.8679   27.1640 C.2     1  UNL1        0.2529
      6 O           3.0467   -0.0909   27.2765 O.2     1  UNL1       -0.2724
      7 C           4.9032   -1.4355   25.9016 C.3     1  UNL1        0.1391
      8 C           5.5997   -2.0572   24.7276 C.3     1  UNL1        0.0449
      9 C           5.0016   -1.9473   23.3564 C.3     1  UNL1        0.0746
     10 N           3.7071   -1.2156   23.1592 N.3     1  UNL1       -0.2676
     11 C           3.0106   -0.5939   24.3332 C.3     1  UNL1        0.0746
     12 C           3.6087   -0.7038   25.7044 C.3     1  UNL1        0.0449
     13 C           7.8381   -5.0222   24.0917 C.ar    1  UNL1        0.2293
     14 C           6.9296   -4.3131   25.0518 C.ar    1  UNL1        0.0924
     15 C           7.0932   -2.8414   25.2912 C.ar    1  UNL1        0.1453
     16 N           8.1651   -2.0788   24.5705 N.ar    1  UNL1       -0.2084
     17 C           9.0736   -2.7879   23.6104 C.ar    1  UNL1        0.2027
     18 N           8.9101   -4.2597   23.3710 N.ar    1  UNL1       -0.1892
     19 C           8.1000   -7.4764   24.9029 C.3     1  UNL1        0.2542
     20 O           7.6747   -6.4939   23.8523 O.3     1  UNL1       -0.4560
     21 C           5.0569   -0.8436   29.7345 C.ar    1  UNL1        0.0622
     22 C           3.7102   -1.0003   30.3763 C.ar    1  UNL1        0.0154
     23 C           3.5184   -0.6300   31.8172 C.ar    1  UNL1        0.0013
     24 C           4.6732   -0.1028   32.6163 C.ar    1  UNL1        0.0001
     25 C           6.0200    0.0540   31.9745 C.ar    1  UNL1        0.0013
     26 C           6.2117   -0.3164   30.5336 C.ar    1  UNL1        0.0154
     27 C           4.4814    0.2675   34.0571 C.ar    1  UNL1        0.0000
     28 C           5.1643   -0.5245   35.1324 C.ar    1  UNL1        0.0000
     29 C           4.9724   -0.1542   36.5733 C.ar    1  UNL1        0.0011
     30 C           4.0977    1.0083   36.9387 C.ar    1  UNL1        0.0140
     31 C           3.4148    1.8004   35.8634 C.ar    1  UNL1        0.0011
     32 C           3.6066    1.4300   34.4226 C.ar    1  UNL1        0.0000
     33 C           3.9058    1.3787   38.3796 C.2     1  UNL1        0.0729
     34 O           2.6751    0.9317   39.1114 O.co2   1  UNL1       -0.5446
     35 O           4.9448    2.1961   39.0886 O.co2   1  UNL1       -0.5446
     36 C           3.1090   -1.1057   21.7880 C.3     1  UNL1        0.1183
     37 C           3.8383   -1.6688   20.6043 C.ar    1  UNL1        0.0712
     38 N           3.6285   -3.0994   20.2051 N.ar    1  UNL1       -0.2471
     39 C           4.3579   -3.6624   19.0214 C.ar    1  UNL1        0.0985
     40 C           5.2970   -2.7949   18.2370 C.ar    1  UNL1        0.0203
     41 C           5.5069   -1.3643   18.6362 C.ar    1  UNL1       -0.0015
     42 C           4.7776   -0.8013   19.8199 C.ar    1  UNL1       -0.0069
     43 C           4.9874    0.6293   20.2191 C.3     1  UNL1        0.0323
@<TRIPOS>UNITY_ATOM_ATTR
34 1
charge -1
@<TRIPOS>BOND
     1    19    20    1
     2    20    13    1
     3    13    14   ar
     4    14    15   ar
     5    15     1    1
     6     1     2   am
     7     2     3    2
     8     2     4   am
     9     4    21    1
    10    21    22   ar
    11    22    23   ar
    12    23    24   ar
    13    24    27    1
    14    27    28   ar
    15    28    29   ar
    16    29    30   ar
    17    30    33    1
    18    33    34   ar
    19    33    35   ar
    20    30    31   ar
    21    31    32   ar
    22    24    25   ar
    23    25    26   ar
    24     4     5   am
    25     5     6    2
    26     5     7    1
    27     7     8    1
    28     8     9    1
    29     9    10    1
    30    10    36    1
    31    36    37    1
    32    37    38   ar
    33    38    39   ar
    34    39    40   ar
    35    40    41   ar
    36    41    42   ar
    37    42    43    1
    38    10    11    1
    39    11    12    1
    40    15    16   ar
    41    16    17   ar
    42    17    18   ar
    43    18    13   ar
    44     7     1    1
    45    42    37   ar
    46    26    21   ar
    47    12     7    1
    48    32    27   ar
@<TRIPOS>MOLECULE
*****
 43 48 0 0 0
SMALL
GASTEIGER

@<TRIPOS>ATOM
      1 N           4.0796    0.1993   25.6720 N.am    1  UNL1       -0.2222
      2 C           3.7655    0.7818   27.0182 C.2     1  UNL1        0.3219
      3 O           3.0026    2.0475   27.2751 O.2     1  UNL1       -0.2512
      4 N           4.3482   -0.1239   28.0625 N.am    1  UNL1       -0.1907
      5 C           5.0225   -1.2659   27.3617 C.2     1  UNL1        0.2529
      6 O           5.7372   -2.4073   28.0221 O.2     1  UNL1       -0.2724
      7 C           4.8565   -1.0662   25.8842 C.3     1  UNL1        0.1391
      8 C           4.6116   -0.7352   24.4419 C.3     1  UNL1        0.0449
      9 C           5.1312   -1.6418   23.3657 C.3     1  UNL1        0.0746
     10 N           5.8957   -2.8793   23.7320 N.3     1  UNL1       -0.2676
     11 C           6.1405   -3.2103   25.1744 C.3     1  UNL1        0.0746
     12 C           5.6209   -2.3037   26.2505 C.3     1  UNL1        0.0449
     13 C           1.9559    1.0322   22.4246 C.ar    1  UNL1        0.2293
     14 C           2.3495    0.4511   23.7502 C.ar    1  UNL1        0.0924
     15 C           3.6860    0.7804   24.3463 C.ar    1  UNL1        0.1453
     16 N           4.6288    1.6909   23.6168 N.ar    1  UNL1       -0.2084
     17 C           4.2352    2.2720   22.2912 C.ar    1  UNL1        0.2027
     18 N           2.8987    1.9426   21.6950 N.ar    1  UNL1       -0.1892
     19 C           0.5410    0.0098   20.5004 C.3     1  UNL1        0.2542
     20 O           0.6195    0.7029   21.8283 O.3     1  UNL1       -0.4560
     21 C           4.2704    0.0773   29.5468 C.ar    1  UNL1        0.0622
     22 C           2.9368    0.0879   30.2333 C.ar    1  UNL1        0.0154
     23 C           2.8589    0.2891   31.7177 C.ar    1  UNL1        0.0013
     24 C           4.1147    0.4796   32.5157 C.ar    1  UNL1        0.0001
     25 C           5.4484    0.4690   31.8292 C.ar    1  UNL1        0.0013
     26 C           5.5262    0.2678   30.3447 C.ar    1  UNL1        0.0154
     27 C           4.0369    0.6807   34.0001 C.ar    1  UNL1        0.0000
     28 C           3.2597    1.8346   34.5608 C.ar    1  UNL1        0.0000
     29 C           3.1818    2.0358   36.0453 C.ar    1  UNL1        0.0011
     30 C           3.8812    1.0830   36.9689 C.ar    1  UNL1        0.0140
     31 C           4.6584   -0.0709   36.4081 C.ar    1  UNL1        0.0011
     32 C           4.7363   -0.2721   34.9238 C.ar    1  UNL1        0.0000
     33 C           3.8034    1.2841   38.4533 C.2     1  UNL1        0.0729
     34 O           4.9204    1.9770   39.1759 O.co2   1  UNL1       -0.5446
     35 O           2.6084    0.7924   39.2151 O.co2   1  UNL1       -0.5446
     36 C           6.4153   -3.7859   22.6558 C.3     1  UNL1        0.1183
     37 C           5.7692   -3.7902   21.3021 C.ar    1  UNL1        0.0712
     38 N           4.4751   -4.5188   21.0909 N.ar    1  UNL1       -0.2471
     39 C           3.8291   -4.5230   19.7372 C.ar    1  UNL1        0.0985
     40 C           4.4770   -3.7987   18.5946 C.ar    1  UNL1        0.0203
     41 C           5.7711   -3.0701   18.8058 C.ar    1  UNL1       -0.0015
     42 C           6.4172   -3.0659   20.1594 C.ar    1  UNL1       -0.0069
     43 C           7.7112   -2.3373   20.3706 C.3     1  UNL1        0.0323
@<TRIPOS>UNITY_ATOM_ATTR
34 1
charge -1
@<TRIPOS>BOND
     1    19    20    1
     2    20    13    1
     3    13    14   ar
     4    14    15   ar
     5    15     1    1
     6     1     2   am
     7     2     3    2
     8     2     4   am
     9     4    21    1
    10    21    22   ar
    11    22    23   ar
    12    23    24   ar
    13    24    27    1
    14    27    28   ar
    15    28    29   ar
    16    29    30   ar
    17    30    33    1
    18    33    34   ar
    19    33    35   ar
    20    30    31   ar
    21    31    32   ar
    22    24    25   ar
    23    25    26   ar
    24     4     5   am
    25     5     6    2
    26     5     7    1
    27     7     8    1
    28     8     9    1
    29     9    10    1
    30    10    36    1
    31    36    37    1
    32    37    38   ar
    33    38    39   ar
    34    39    40   ar
    35    40    41   ar
    36    41    42   ar
    37    42    43    1
    38    10    11    1
    39    11    12    1
    40    15    16   ar
    41    16    17   ar
    42    17    18   ar
    43    18    13   ar
    44     7     1    1
    45    42    37   ar
    46    26    21   ar
    47    12     7    1
    48    32    27   ar
