@<TRIPOS>MOLECULE
*****
 26 29 0 0 0
SMALL
GASTEIGER

@<TRIPOS>ATOM
      1 C          -1.7332  -18.2244   20.7540 C.2     1  UNL1        0.0919
      2 C          -1.8773  -18.8265   22.1202 C.2     1  UNL1        0.0183
      3 C          -3.2250  -19.2719   22.6052 C.2     1  UNL1        0.0511
      4 C          -4.4286  -19.1152   21.7240 C.2     1  UNL1        0.2322
      5 N          -5.8741  -19.4597   21.9286 N.2     1  UNL1       -0.0295
      6 C          -6.6234  -19.0705   20.6888 C.2     1  UNL1        0.3932
      7 N          -5.6410  -18.4855   19.7179 N.2     1  UNL1       -0.0333
      8 C          -4.2846  -18.5130   20.3578 C.2     1  UNL1        0.2192
      9 C          -2.9368  -18.0676   19.8728 C.3     1  UNL1        0.1226
     10 C          -8.0965  -19.2372   20.4600 C.ar    1  UNL1        0.1694
     11 C          -9.0663  -18.9286   21.5620 C.ar    1  UNL1        0.0270
     12 C         -10.5393  -19.0953   21.3333 C.ar    1  UNL1        0.0033
     13 C         -11.0426  -19.5706   20.0027 C.ar    1  UNL1        0.0207
     14 C         -10.0729  -19.8791   18.9007 C.ar    1  UNL1        0.0991
     15 N          -8.5998  -19.7125   19.1293 N.ar    1  UNL1       -0.2361
     16 C         -11.5090  -18.7867   22.4353 C.ar    1  UNL1        0.0001
     17 C         -12.7616  -18.0168   22.1384 C.ar    1  UNL1        0.0000
     18 C         -13.7313  -17.7082   23.2404 C.ar    1  UNL1        0.0000
     19 C         -13.4485  -18.1696   24.6393 C.ar    1  UNL1        0.0000
     20 C         -12.1959  -18.9395   24.9363 C.ar    1  UNL1        0.0000
     21 C         -11.2262  -19.2481   23.8343 C.ar    1  UNL1        0.0000
     22 S          -0.3854  -17.7789   20.2690 S.O2    1  UNL1        0.0054
     23 O          -0.0912  -19.1746   19.8048 O.2     1  UNL1       -0.1689
     24 O          -0.6797  -16.3832   20.7331 O.2     1  UNL1       -0.1689
     25 C           2.1532  -17.4233   20.6914 C.3     1  UNL1        0.0276
     26 C           0.9623  -17.3335   19.7840 C.3     1  UNL1        0.1556
@<TRIPOS>BOND
     1    25    26    1
     2    26    22    1
     3    22    23    2
     4    22    24    2
     5    22     1    1
     6     1     2    2
     7     2     3    1
     8     3     4    2
     9     4     5    1
    10     5     6    2
    11     6    10    1
    12    10    11   ar
    13    11    12   ar
    14    12    16    1
    15    16    17   ar
    16    17    18   ar
    17    18    19   ar
    18    19    20   ar
    19    20    21   ar
    20    12    13   ar
    21    13    14   ar
    22    14    15   ar
    23     6     7    1
    24     7     8    2
    25     8     9    1
    26     9     1    1
    27     8     4    1
    28    15    10   ar
    29    21    16   ar
@<TRIPOS>MOLECULE
*****
 26 29 0 0 0
SMALL
GASTEIGER

@<TRIPOS>ATOM
      1 C           7.5237   -4.1763   27.2876 C.2     1  UNL1        0.0919
      2 C           8.4360   -5.1858   26.6562 C.2     1  UNL1        0.0183
      3 C           8.3332   -5.4747   25.1879 C.2     1  UNL1        0.0511
      4 C           7.3183   -4.7541   24.3509 C.2     1  UNL1        0.2322
      5 N           6.9865   -4.8289   22.8900 N.2     1  UNL1       -0.0295
      6 C           5.8692   -3.8657   22.6185 C.2     1  UNL1        0.3932
      7 N           5.5104   -3.1955   23.9116 N.2     1  UNL1       -0.0333
      8 C           6.4061   -3.7446   24.9823 C.2     1  UNL1        0.2192
      9 C           6.5088   -3.4557   26.4506 C.3     1  UNL1        0.1226
     10 C           5.2239   -3.6164   21.2875 C.ar    1  UNL1        0.1694
     11 C           4.2909   -2.4550   21.1120 C.ar    1  UNL1        0.0270
     12 C           3.6457   -2.2057   19.7811 C.ar    1  UNL1        0.0033
     13 C           3.9333   -3.1178   18.6256 C.ar    1  UNL1        0.0207
     14 C           4.8663   -4.2792   18.8010 C.ar    1  UNL1        0.0991
     15 N           5.5116   -4.5285   20.1319 N.ar    1  UNL1       -0.2361
     16 C           2.7127   -1.0443   19.6057 C.ar    1  UNL1        0.0001
     17 C           1.5062   -0.9118   20.4869 C.ar    1  UNL1        0.0000
     18 C           0.5732    0.2496   20.3115 C.ar    1  UNL1        0.0000
     19 C           0.8469    1.2785   19.2549 C.ar    1  UNL1        0.0000
     20 C           2.0534    1.1460   18.3736 C.ar    1  UNL1        0.0000
     21 C           2.9864   -0.0154   18.5491 C.ar    1  UNL1        0.0000
     22 S           7.6264   -3.8874   28.7559 S.O2    1  UNL1        0.0054
     23 O           8.4723   -2.6845   28.4601 O.2     1  UNL1       -0.1689
     24 O           6.7806   -5.0903   29.0518 O.2     1  UNL1       -0.1689
     25 C           6.8765   -4.3554   31.1990 C.3     1  UNL1        0.0276
     26 C           7.7291   -3.5985   30.2243 C.3     1  UNL1        0.1556
@<TRIPOS>BOND
     1    25    26    1
     2    26    22    1
     3    22    23    2
     4    22    24    2
     5    22     1    1
     6     1     2    2
     7     2     3    1
     8     3     4    2
     9     4     5    1
    10     5     6    2
    11     6    10    1
    12    10    11   ar
    13    11    12   ar
    14    12    16    1
    15    16    17   ar
    16    17    18   ar
    17    18    19   ar
    18    19    20   ar
    19    20    21   ar
    20    12    13   ar
    21    13    14   ar
    22    14    15   ar
    23     6     7    1
    24     7     8    2
    25     8     9    1
    26     9     1    1
    27     8     4    1
    28    15    10   ar
    29    21    16   ar
@<TRIPOS>MOLECULE
*****
 26 29 0 0 0
SMALL
GASTEIGER

@<TRIPOS>ATOM
      1 C           3.2038   -0.8063   19.0033 C.2     1  UNL1        0.0919
      2 C           3.6998    0.4031   18.2676 C.2     1  UNL1        0.0183
      3 C           2.9122    1.6791   18.3050 C.2     1  UNL1        0.0511
      4 C           1.6285    1.7458   19.0781 C.2     1  UNL1        0.2322
      5 N           0.6445    2.8567   19.2959 N.2     1  UNL1       -0.0295
      6 C          -0.4598    2.3339   20.1661 C.2     1  UNL1        0.3932
      7 N          -0.1581    0.8998   20.4863 N.2     1  UNL1       -0.0333
      8 C           1.1325    0.5364   19.8138 C.2     1  UNL1        0.2192
      9 C           1.9202   -0.7396   19.7764 C.3     1  UNL1        0.1226
     10 C          -1.6557    3.1091   20.6341 C.ar    1  UNL1        0.1694
     11 C          -1.9732    3.1867   22.0981 C.ar    1  UNL1        0.0270
     12 C          -3.1691    3.9618   22.5660 C.ar    1  UNL1        0.0033
     13 C          -4.0473    4.6594   21.5701 C.ar    1  UNL1        0.0207
     14 C          -3.7298    4.5818   20.1061 C.ar    1  UNL1        0.0991
     15 N          -2.5340    3.8067   19.6382 N.ar    1  UNL1       -0.2361
     16 C          -3.4866    4.0394   24.0300 C.ar    1  UNL1        0.0001
     17 C          -2.4827    3.5708   25.0411 C.ar    1  UNL1        0.0000
     18 C          -2.8002    3.6484   26.5050 C.ar    1  UNL1        0.0000
     19 C          -4.1217    4.1946   26.9579 C.ar    1  UNL1        0.0000
     20 C          -5.1257    4.6633   25.9468 C.ar    1  UNL1        0.0000
     21 C          -4.8082    4.5857   24.4828 C.ar    1  UNL1        0.0000
     22 S           3.9915   -2.0823   18.9659 S.O2    1  UNL1        0.0054
     23 O           4.4238   -1.7743   17.5630 O.2     1  UNL1       -0.1689
     24 O           3.5592   -2.3903   20.3689 O.2     1  UNL1       -0.1689
     25 C           4.0730   -4.6785   19.0196 C.3     1  UNL1        0.0276
     26 C           4.7791   -3.3583   18.9285 C.3     1  UNL1        0.1556
@<TRIPOS>BOND
     1    25    26    1
     2    26    22    1
     3    22    23    2
     4    22    24    2
     5    22     1    1
     6     1     2    2
     7     2     3    1
     8     3     4    2
     9     4     5    1
    10     5     6    2
    11     6    10    1
    12    10    11   ar
    13    11    12   ar
    14    12    16    1
    15    16    17   ar
    16    17    18   ar
    17    18    19   ar
    18    19    20   ar
    19    20    21   ar
    20    12    13   ar
    21    13    14   ar
    22    14    15   ar
    23     6     7    1
    24     7     8    2
    25     8     9    1
    26     9     1    1
    27     8     4    1
    28    15    10   ar
    29    21    16   ar
@<TRIPOS>MOLECULE
*****
 26 29 0 0 0
SMALL
GASTEIGER

@<TRIPOS>ATOM
      1 C         -11.2965   -4.6125   18.9906 C.2     1  UNL1        0.0919
      2 C         -10.6914   -3.3084   18.5628 C.2     1  UNL1        0.0183
      3 C         -11.5202   -2.0581   18.5720 C.2     1  UNL1        0.0511
      4 C         -12.9540   -2.1120   19.0091 C.2     1  UNL1        0.2322
      5 N         -14.0094   -1.0521   19.1221 N.2     1  UNL1       -0.0295
      6 C         -15.2668   -1.7012   19.6197 C.2     1  UNL1        0.3932
      7 N         -14.9885   -3.1622   19.8144 N.2     1  UNL1       -0.0333
      8 C         -13.5591   -3.4161   19.4370 C.2     1  UNL1        0.2192
      9 C         -12.7303   -4.6663   19.4278 C.3     1  UNL1        0.1226
     10 C         -16.5732   -1.0105   19.8775 C.ar    1  UNL1        0.1694
     11 C         -16.6011    0.2805   20.6407 C.ar    1  UNL1        0.0270
     12 C         -17.9074    0.9713   20.8985 C.ar    1  UNL1        0.0033
     13 C         -19.1857    0.3711   20.3929 C.ar    1  UNL1        0.0207
     14 C         -19.1578   -0.9199   19.6297 C.ar    1  UNL1        0.0991
     15 N         -17.8515   -1.6107   19.3719 N.ar    1  UNL1       -0.2361
     16 C         -17.9354    2.2623   21.6617 C.ar    1  UNL1        0.0001
     17 C         -18.6075    3.4671   21.0731 C.ar    1  UNL1        0.0000
     18 C         -18.6354    4.7581   21.8364 C.ar    1  UNL1        0.0000
     19 C         -17.9913    4.8442   23.1883 C.ar    1  UNL1        0.0000
     20 C         -17.3192    3.6394   23.7769 C.ar    1  UNL1        0.0000
     21 C         -17.2912    2.3484   23.0136 C.ar    1  UNL1        0.0000
     22 S         -10.4677   -5.8627   18.9814 S.O2    1  UNL1        0.0054
     23 O         -11.6535   -6.6452   18.5000 O.2     1  UNL1       -0.1689
     24 O          -9.2820   -5.0802   19.4627 O.2     1  UNL1       -0.1689
     25 C          -9.8936   -8.1739   17.9429 C.3     1  UNL1        0.0276
     26 C          -9.6390   -7.1129   18.9721 C.3     1  UNL1        0.1556
@<TRIPOS>BOND
     1    25    26    1
     2    26    22    1
     3    22    23    2
     4    22    24    2
     5    22     1    1
     6     1     2    2
     7     2     3    1
     8     3     4    2
     9     4     5    1
    10     5     6    2
    11     6    10    1
    12    10    11   ar
    13    11    12   ar
    14    12    16    1
    15    16    17   ar
    16    17    18   ar
    17    18    19   ar
    18    19    20   ar
    19    20    21   ar
    20    12    13   ar
    21    13    14   ar
    22    14    15   ar
    23     6     7    1
    24     7     8    2
    25     8     9    1
    26     9     1    1
    27     8     4    1
    28    15    10   ar
    29    21    16   ar
@<TRIPOS>MOLECULE
*****
 26 29 0 0 0
SMALL
GASTEIGER

@<TRIPOS>ATOM
      1 C         -12.4420   -5.2475   19.1727 C.2     1  UNL1        0.0919
      2 C         -13.6041   -6.1907   19.2711 C.2     1  UNL1        0.0183
      3 C         -14.9916   -5.6539   19.4628 C.2     1  UNL1        0.0511
      4 C         -15.2169   -4.1739   19.5562 C.2     1  UNL1        0.2322
      5 N         -16.4616   -3.3579   19.7432 N.2     1  UNL1       -0.0295
      6 C         -16.0687   -1.9104   19.7604 C.2     1  UNL1        0.3932
      7 N         -14.5812   -1.8317   19.5841 N.2     1  UNL1       -0.0333
      8 C         -14.0548   -3.2307   19.4579 C.2     1  UNL1        0.2192
      9 C         -12.6673   -3.7675   19.2662 C.3     1  UNL1        0.1226
     10 C         -16.9999   -0.7460   19.9251 C.ar    1  UNL1        0.1694
     11 C         -16.5953    0.4240   20.7721 C.ar    1  UNL1        0.0270
     12 C         -17.5265    1.5884   20.9368 C.ar    1  UNL1        0.0033
     13 C         -18.8622    1.5828   20.2544 C.ar    1  UNL1        0.0207
     14 C         -19.2668    0.4129   19.4073 C.ar    1  UNL1        0.0991
     15 N         -18.3357   -0.7515   19.2426 N.ar    1  UNL1       -0.2361
     16 C         -17.1219    2.7583   21.7839 C.ar    1  UNL1        0.0001
     17 C         -17.5434    2.8245   23.2219 C.ar    1  UNL1        0.0000
     18 C         -17.1388    3.9944   24.0690 C.ar    1  UNL1        0.0000
     19 C         -16.3127    5.0981   23.4781 C.ar    1  UNL1        0.0000
     20 C         -15.8911    5.0320   22.0401 C.ar    1  UNL1        0.0000
     21 C         -16.2957    3.8620   21.1930 C.ar    1  UNL1        0.0000
     22 S         -11.0545   -5.7842   18.9810 S.O2    1  UNL1        0.0054
     23 O         -11.5975   -7.1824   18.9659 O.2     1  UNL1       -0.1689
     24 O         -10.5115   -4.3860   18.9961 O.2     1  UNL1       -0.1689
     25 C          -9.4450   -7.7995   18.6677 C.3     1  UNL1        0.0276
     26 C          -9.6670   -6.3210   18.7893 C.3     1  UNL1        0.1556
@<TRIPOS>BOND
     1    25    26    1
     2    26    22    1
     3    22    23    2
     4    22    24    2
     5    22     1    1
     6     1     2    2
     7     2     3    1
     8     3     4    2
     9     4     5    1
    10     5     6    2
    11     6    10    1
    12    10    11   ar
    13    11    12   ar
    14    12    16    1
    15    16    17   ar
    16    17    18   ar
    17    18    19   ar
    18    19    20   ar
    19    20    21   ar
    20    12    13   ar
    21    13    14   ar
    22    14    15   ar
    23     6     7    1
    24     7     8    2
    25     8     9    1
    26     9     1    1
    27     8     4    1
    28    15    10   ar
    29    21    16   ar
@<TRIPOS>MOLECULE
*****
 26 29 0 0 0
SMALL
GASTEIGER

@<TRIPOS>ATOM
      1 C           2.9230   -0.9879   20.2229 C.2     1  UNL1        0.0919
      2 C           3.6143   -1.6990   19.0975 C.2     1  UNL1        0.0183
      3 C           4.6636   -2.7292   19.3934 C.2     1  UNL1        0.0511
      4 C           5.0215   -3.0485   20.8146 C.2     1  UNL1        0.2322
      5 N           6.0078   -4.0092   21.4097 N.2     1  UNL1       -0.0295
      6 C           5.9261   -3.8919   22.9029 C.2     1  UNL1        0.3932
      7 N           4.8892   -2.8587   23.2307 N.2     1  UNL1       -0.0333
      8 C           4.3302   -2.3374   21.9400 C.2     1  UNL1        0.2192
      9 C           3.2809   -1.3072   21.6441 C.3     1  UNL1        0.1226
     10 C           6.7386   -4.6711   23.8943 C.ar    1  UNL1        0.1694
     11 C           6.5683   -4.4228   25.3638 C.ar    1  UNL1        0.0270
     12 C           7.3807   -5.2019   26.3552 C.ar    1  UNL1        0.0033
     13 C           8.3634   -6.2293   25.8771 C.ar    1  UNL1        0.0207
     14 C           8.5337   -6.4776   24.4076 C.ar    1  UNL1        0.0991
     15 N           7.7213   -5.6985   23.4162 N.ar    1  UNL1       -0.2361
     16 C           7.2104   -4.9536   27.8247 C.ar    1  UNL1        0.0001
     17 C           6.7748   -3.6034   28.3116 C.ar    1  UNL1        0.0000
     18 C           6.6045   -3.3551   29.7811 C.ar    1  UNL1        0.0000
     19 C           6.8699   -4.4570   30.7636 C.ar    1  UNL1        0.0000
     20 C           7.3055   -5.8072   30.2767 C.ar    1  UNL1        0.0000
     21 C           7.4758   -6.0555   28.8072 C.ar    1  UNL1        0.0000
     22 S           1.8737    0.0424   19.9270 S.O2    1  UNL1        0.0054
     23 O           0.8040   -0.9374   20.3088 O.2     1  UNL1       -0.1689
     24 O           2.9434    1.0221   19.5451 O.2     1  UNL1       -0.1689
     25 C           0.8288    1.7909   18.3143 C.3     1  UNL1        0.0276
     26 C           0.8244    1.0726   19.6311 C.3     1  UNL1        0.1556
@<TRIPOS>BOND
     1    25    26    1
     2    26    22    1
     3    22    23    2
     4    22    24    2
     5    22     1    1
     6     1     2    2
     7     2     3    1
     8     3     4    2
     9     4     5    1
    10     5     6    2
    11     6    10    1
    12    10    11   ar
    13    11    12   ar
    14    12    16    1
    15    16    17   ar
    16    17    18   ar
    17    18    19   ar
    18    19    20   ar
    19    20    21   ar
    20    12    13   ar
    21    13    14   ar
    22    14    15   ar
    23     6     7    1
    24     7     8    2
    25     8     9    1
    26     9     1    1
    27     8     4    1
    28    15    10   ar
    29    21    16   ar
@<TRIPOS>MOLECULE
*****
 26 29 0 0 0
SMALL
GASTEIGER

@<TRIPOS>ATOM
      1 C           1.4382    1.1118   28.8088 C.2     1  UNL1        0.0919
      2 C           0.0788    1.7456   28.7893 C.2     1  UNL1        0.0183
      3 C          -0.5978    2.0292   27.4810 C.2     1  UNL1        0.0511
      4 C           0.0849    1.6791   26.1921 C.2     1  UNL1        0.2322
      5 N          -0.3318    1.8384   24.7600 N.2     1  UNL1       -0.0295
      6 C           0.7701    1.3030   23.8943 C.2     1  UNL1        0.3932
      7 N           1.8678    0.8128   24.7914 N.2     1  UNL1       -0.0333
      8 C           1.4443    1.0453   26.2116 C.2     1  UNL1        0.2192
      9 C           2.1209    0.7616   27.5199 C.3     1  UNL1        0.1226
     10 C           0.7736    1.2646   22.3948 C.ar    1  UNL1        0.1694
     11 C           1.7426    0.3786   21.6695 C.ar    1  UNL1        0.0270
     12 C           1.7462    0.3402   20.1701 C.ar    1  UNL1        0.0033
     13 C           0.7807    1.1877   19.3958 C.ar    1  UNL1        0.0207
     14 C          -0.1884    2.0737   20.1211 C.ar    1  UNL1        0.0991
     15 N          -0.1919    2.1121   21.6206 N.ar    1  UNL1       -0.2361
     16 C           2.7152   -0.5458   19.4448 C.ar    1  UNL1        0.0001
     17 C           2.9268   -1.9586   19.9021 C.ar    1  UNL1        0.0000
     18 C           3.8958   -2.8445   19.1769 C.ar    1  UNL1        0.0000
     19 C           4.6533   -2.3177   17.9943 C.ar    1  UNL1        0.0000
     20 C           4.4418   -0.9049   17.5369 C.ar    1  UNL1        0.0000
     21 C           3.4727   -0.0189   18.2622 C.ar    1  UNL1        0.0000
     22 S           2.1148    0.8281   30.1171 S.O2    1  UNL1        0.0054
     23 O           1.4273   -0.5034   30.1840 O.2     1  UNL1       -0.1689
     24 O           2.8023    2.1597   30.0502 O.2     1  UNL1       -0.1689
     25 C           3.6047   -0.7045   31.5939 C.3     1  UNL1        0.0276
     26 C           2.7914    0.5445   31.4255 C.3     1  UNL1        0.1556
@<TRIPOS>BOND
     1    25    26    1
     2    26    22    1
     3    22    23    2
     4    22    24    2
     5    22     1    1
     6     1     2    2
     7     2     3    1
     8     3     4    2
     9     4     5    1
    10     5     6    2
    11     6    10    1
    12    10    11   ar
    13    11    12   ar
    14    12    16    1
    15    16    17   ar
    16    17    18   ar
    17    18    19   ar
    18    19    20   ar
    19    20    21   ar
    20    12    13   ar
    21    13    14   ar
    22    14    15   ar
    23     6     7    1
    24     7     8    2
    25     8     9    1
    26     9     1    1
    27     8     4    1
    28    15    10   ar
    29    21    16   ar
@<TRIPOS>MOLECULE
*****
 26 29 0 0 0
SMALL
GASTEIGER

@<TRIPOS>ATOM
      1 C          -2.8253    3.7400   26.0448 C.2     1  UNL1        0.0919
      2 C          -2.0339    2.9214   27.0213 C.2     1  UNL1        0.0183
      3 C          -0.8318    2.1543   26.5560 C.2     1  UNL1        0.0511
      4 C          -0.4210    2.2057   25.1143 C.2     1  UNL1        0.2322
      5 N           0.7091    1.5599   24.3690 N.2     1  UNL1       -0.0295
      6 C           0.6162    1.9793   22.9318 C.2     1  UNL1        0.3932
      7 N          -0.5714    2.8844   22.7889 N.2     1  UNL1       -0.0333
      8 C          -1.2124    3.0243   24.1378 C.2     1  UNL1        0.2192
      9 C          -2.4145    3.7914   24.6031 C.3     1  UNL1        0.1226
     10 C           1.5474    1.5661   21.8308 C.ar    1  UNL1        0.1694
     11 C           2.0177    0.1446   21.7402 C.ar    1  UNL1        0.0270
     12 C           2.9489   -0.2686   20.6393 C.ar    1  UNL1        0.0033
     13 C           3.4098    0.7397   19.6289 C.ar    1  UNL1        0.0207
     14 C           2.9396    2.1612   19.7195 C.ar    1  UNL1        0.0991
     15 N           2.0084    2.5744   20.8204 N.ar    1  UNL1       -0.2361
     16 C           3.4191   -1.6901   20.5487 C.ar    1  UNL1        0.0001
     17 C           3.2455   -2.4576   19.2717 C.ar    1  UNL1        0.0000
     18 C           3.7157   -3.8791   19.1811 C.ar    1  UNL1        0.0000
     19 C           4.3596   -4.5331   20.3675 C.ar    1  UNL1        0.0000
     20 C           4.5333   -3.7656   21.6445 C.ar    1  UNL1        0.0000
     21 C           4.0631   -2.3441   21.7351 C.ar    1  UNL1        0.0000
     22 S          -4.0274    4.5071   26.5100 S.O2    1  UNL1        0.0054
     23 O          -3.1333    5.4680   27.2360 O.2     1  UNL1       -0.1689
     24 O          -4.9216    3.5461   25.7840 O.2     1  UNL1       -0.1689
     25 C          -6.2824    5.6881   25.9903 C.3     1  UNL1        0.0276
     26 C          -5.2295    5.2742   26.9752 C.3     1  UNL1        0.1556
@<TRIPOS>BOND
     1    25    26    1
     2    26    22    1
     3    22    23    2
     4    22    24    2
     5    22     1    1
     6     1     2    2
     7     2     3    1
     8     3     4    2
     9     4     5    1
    10     5     6    2
    11     6    10    1
    12    10    11   ar
    13    11    12   ar
    14    12    16    1
    15    16    17   ar
    16    17    18   ar
    17    18    19   ar
    18    19    20   ar
    19    20    21   ar
    20    12    13   ar
    21    13    14   ar
    22    14    15   ar
    23     6     7    1
    24     7     8    2
    25     8     9    1
    26     9     1    1
    27     8     4    1
    28    15    10   ar
    29    21    16   ar
@<TRIPOS>MOLECULE
*****
 26 29 0 0 0
SMALL
GASTEIGER

@<TRIPOS>ATOM
      1 C          -3.8362    4.3388   24.1872 C.2     1  UNL1        0.0919
      2 C          -4.6974    4.2195   22.9649 C.2     1  UNL1        0.0183
      3 C          -4.1246    3.6630   21.6952 C.2     1  UNL1        0.0511
      4 C          -2.6905    3.2260   21.6477 C.2     1  UNL1        0.2322
      5 N          -1.8545    2.6436   20.5468 N.2     1  UNL1       -0.0295
      6 C          -0.4767    2.4030   21.0887 C.2     1  UNL1        0.3932
      7 N          -0.4610    2.8367   22.5245 N.2     1  UNL1       -0.0333
      8 C          -1.8292    3.3453   22.8700 C.2     1  UNL1        0.2192
      9 C          -2.4021    3.9018   24.1397 C.3     1  UNL1        0.1226
     10 C           0.6821    1.8293   20.3282 C.ar    1  UNL1        0.1694
     11 C           1.3272    0.5569   20.7916 C.ar    1  UNL1        0.0270
     12 C           2.4859   -0.0167   20.0311 C.ar    1  UNL1        0.0033
     13 C           2.9995    0.6821   18.8073 C.ar    1  UNL1        0.0207
     14 C           2.3544    1.9545   18.3439 C.ar    1  UNL1        0.0991
     15 N           1.1957    2.5282   19.1043 N.ar    1  UNL1       -0.2361
     16 C           3.1310   -1.2891   20.4945 C.ar    1  UNL1        0.0001
     17 C           3.6406   -1.4028   21.9007 C.ar    1  UNL1        0.0000
     18 C           4.2857   -2.6752   22.3641 C.ar    1  UNL1        0.0000
     19 C           4.4212   -3.8340   21.4214 C.ar    1  UNL1        0.0000
     20 C           3.9116   -3.7204   20.0152 C.ar    1  UNL1        0.0000
     21 C           3.2665   -2.4479   19.5518 C.ar    1  UNL1        0.0000
     22 S          -4.4091    4.8953   25.4569 S.O2    1  UNL1        0.0054
     23 O          -5.0882    3.5849   25.7247 O.2     1  UNL1       -0.1689
     24 O          -3.7300    6.2056   25.1890 O.2     1  UNL1       -0.1689
     25 C          -6.3740    6.0101   26.7398 C.3     1  UNL1        0.0276
     26 C          -4.9820    5.4517   26.7266 C.3     1  UNL1        0.1556
@<TRIPOS>BOND
     1    25    26    1
     2    26    22    1
     3    22    23    2
     4    22    24    2
     5    22     1    1
     6     1     2    2
     7     2     3    1
     8     3     4    2
     9     4     5    1
    10     5     6    2
    11     6    10    1
    12    10    11   ar
    13    11    12   ar
    14    12    16    1
    15    16    17   ar
    16    17    18   ar
    17    18    19   ar
    18    19    20   ar
    19    20    21   ar
    20    12    13   ar
    21    13    14   ar
    22    14    15   ar
    23     6     7    1
    24     7     8    2
    25     8     9    1
    26     9     1    1
    27     8     4    1
    28    15    10   ar
    29    21    16   ar
