@<TRIPOS>MOLECULE
*****
 26 29 0 0 0
SMALL
GASTEIGER

@<TRIPOS>ATOM
      1 C           2.9636    3.3706   22.6344 C.3     1  UNL1        0.1305
      2 N           1.9017    2.6953   23.4507 N.ar    1  UNL1       -0.3242
      3 C           1.1004    3.3264   24.5505 C.ar    1  UNL1        0.0738
      4 C           0.1581    2.2914   25.0900 C.ar    1  UNL1        0.0211
      5 C           0.3772    1.0207   24.3237 C.ar    1  UNL1        0.0165
      6 C           1.4548    1.2703   23.3105 C.ar    1  UNL1        0.0597
      7 C           1.9912    0.2704   22.3295 C.ar    1  UNL1        0.0158
      8 C           3.1256   -0.6297   22.7204 C.ar    1  UNL1        0.0023
      9 C           3.6620   -1.6295   21.7393 C.ar    1  UNL1        0.0114
     10 C           3.0641   -1.7292   20.3673 C.ar    1  UNL1        0.0577
     11 CL          3.6005   -2.7291   19.3862 Cl      1  UNL1       -0.0822
     12 C           1.9297   -0.8291   19.9763 C.ar    1  UNL1        0.0114
     13 C           1.3932    0.1707   20.9574 C.ar    1  UNL1        0.0023
     14 C          -0.8297    2.4920   26.2009 C.3     1  UNL1        0.1336
     15 C          -2.1563    3.1326   25.9183 C.ar    1  UNL1        0.0026
     16 C          -3.0165    3.6074   27.0516 C.ar    1  UNL1       -0.0013
     17 C          -4.3431    4.2479   26.7690 C.ar    1  UNL1        0.0111
     18 C          -4.8094    4.4136   25.3530 C.ar    1  UNL1        0.0577
     19 CL         -6.1361    5.0541   25.0704 Cl      1  UNL1       -0.0822
     20 C          -3.9492    3.9388   24.2197 C.ar    1  UNL1        0.0111
     21 C          -2.6227    3.2983   24.5023 C.ar    1  UNL1       -0.0013
     22 N          -0.4909    2.0521   27.5943 N.ar    1  UNL1       -0.3019
     23 C           0.3961    2.7826   28.5585 C.ar    1  UNL1        0.0985
     24 C           0.4555    1.9864   29.8283 C.ar    1  UNL1        0.1193
     25 N          -0.3947    0.7637   29.6490 N.ar    1  UNL1       -0.2223
     26 C          -0.9796    0.8043   28.2683 C.ar    1  UNL1        0.1791
@<TRIPOS>BOND
     1     1     2    1
     2     2     3   ar
     3     3     4   ar
     4     4    14    1
     5    14    15    1
     6    15    16   ar
     7    16    17   ar
     8    17    18   ar
     9    18    19    1
    10    18    20   ar
    11    20    21   ar
    12    14    22    1
    13    22    23   ar
    14    23    24   ar
    15    24    25   ar
    16    25    26   ar
    17     4     5   ar
    18     5     6   ar
    19     6     7    1
    20     7     8   ar
    21     8     9   ar
    22     9    10   ar
    23    10    11    1
    24    10    12   ar
    25    12    13   ar
    26     6     2   ar
    27    13     7   ar
    28    21    15   ar
    29    26    22   ar
@<TRIPOS>MOLECULE
*****
 26 29 0 0 0
SMALL
GASTEIGER

@<TRIPOS>ATOM
      1 C         -14.6522   -0.4218   15.9886 C.3     1  UNL1        0.1305
      2 N         -14.4235   -1.4774   17.0295 N.ar    1  UNL1       -0.3242
      3 C         -13.8369   -2.8374   16.7921 C.ar    1  UNL1        0.0738
      4 C         -13.7922   -3.5588   18.1065 C.ar    1  UNL1        0.0211
      5 C         -14.3511   -2.6447   19.1562 C.ar    1  UNL1        0.0165
      6 C         -14.7413   -1.3583   18.4907 C.ar    1  UNL1        0.0597
      7 C         -15.3436   -0.1627   19.1674 C.ar    1  UNL1        0.0158
      8 C         -16.4809   -0.3391   20.1292 C.ar    1  UNL1        0.0023
      9 C         -17.0832    0.8564   20.8059 C.ar    1  UNL1        0.0114
     10 C         -16.5480    2.2283   20.5208 C.ar    1  UNL1        0.0577
     11 CL        -17.1503    3.4239   21.1975 Cl      1  UNL1       -0.0822
     12 C         -15.4107    2.4048   19.5589 C.ar    1  UNL1        0.0114
     13 C         -14.8084    1.2092   18.8822 C.ar    1  UNL1        0.0023
     14 C         -13.2787   -4.9500   18.3315 C.3     1  UNL1        0.1336
     15 C         -14.2141   -6.1190   18.2384 C.ar    1  UNL1        0.0026
     16 C         -14.9825   -6.5629   19.4477 C.ar    1  UNL1       -0.0013
     17 C         -15.9178   -7.7318   19.3545 C.ar    1  UNL1        0.0111
     18 C         -16.0848   -8.4568   18.0521 C.ar    1  UNL1        0.0577
     19 CL        -17.0202   -9.6258   17.9589 Cl      1  UNL1       -0.0822
     20 C         -15.3163   -8.0130   16.8428 C.ar    1  UNL1        0.0111
     21 C         -14.3810   -6.8441   16.9359 C.ar    1  UNL1       -0.0013
     22 N         -11.8298   -5.1724   18.6497 N.ar    1  UNL1       -0.3019
     23 C         -11.1448   -6.5025   18.7576 C.ar    1  UNL1        0.0985
     24 C          -9.7031   -6.2559   19.0905 C.ar    1  UNL1        0.1193
     25 N          -9.4971   -4.7733   19.1883 N.ar    1  UNL1       -0.2223
     26 C         -10.8114   -4.1037   18.9159 C.ar    1  UNL1        0.1791
@<TRIPOS>BOND
     1     1     2    1
     2     2     3   ar
     3     3     4   ar
     4     4    14    1
     5    14    15    1
     6    15    16   ar
     7    16    17   ar
     8    17    18   ar
     9    18    19    1
    10    18    20   ar
    11    20    21   ar
    12    14    22    1
    13    22    23   ar
    14    23    24   ar
    15    24    25   ar
    16    25    26   ar
    17     4     5   ar
    18     5     6   ar
    19     6     7    1
    20     7     8   ar
    21     8     9   ar
    22     9    10   ar
    23    10    11    1
    24    10    12   ar
    25    12    13   ar
    26     6     2   ar
    27    13     7   ar
    28    21    15   ar
    29    26    22   ar
@<TRIPOS>MOLECULE
*****
 26 29 0 0 0
SMALL
GASTEIGER

@<TRIPOS>ATOM
      1 C         -11.2478   -1.0793   17.6518 C.3     1  UNL1        0.1305
      2 N         -12.0984   -2.2925   17.8854 N.ar    1  UNL1       -0.3242
      3 C         -11.6987   -3.7138   17.6207 C.ar    1  UNL1        0.0738
      4 C         -12.8514   -4.5971   17.9965 C.ar    1  UNL1        0.0211
      5 C         -13.9635   -3.7216   18.4934 C.ar    1  UNL1        0.0165
      6 C         -13.4981   -2.2973   18.4248 C.ar    1  UNL1        0.0597
      7 C         -14.2929   -1.0899   18.8252 C.ar    1  UNL1        0.0158
      8 C         -13.9000    0.2674   18.3219 C.ar    1  UNL1        0.0023
      9 C         -14.6948    1.4748   18.7223 C.ar    1  UNL1        0.0114
     10 C         -15.8825    1.3251   19.6260 C.ar    1  UNL1        0.0577
     11 CL        -16.6772    2.5325   20.0264 Cl      1  UNL1       -0.0822
     12 C         -16.2755   -0.0322   20.1293 C.ar    1  UNL1        0.0114
     13 C         -15.4807   -1.2397   19.7289 C.ar    1  UNL1        0.0023
     14 C         -12.8859   -6.0931   17.8934 C.3     1  UNL1        0.1336
     15 C         -14.1958   -6.8028   17.7183 C.ar    1  UNL1        0.0026
     16 C         -14.7935   -6.9473   16.3502 C.ar    1  UNL1       -0.0013
     17 C         -16.1033   -7.6570   16.1752 C.ar    1  UNL1        0.0111
     18 C         -16.8154   -8.2223   17.3683 C.ar    1  UNL1        0.0577
     19 CL        -18.1252   -8.9320   17.1932 Cl      1  UNL1       -0.0822
     20 C         -16.2176   -8.0778   18.7364 C.ar    1  UNL1        0.0111
     21 C         -14.9078   -7.3681   18.9114 C.ar    1  UNL1       -0.0013
     22 N         -11.6106   -6.8795   17.9653 N.ar    1  UNL1       -0.3019
     23 C         -10.5468   -6.7402   19.0136 C.ar    1  UNL1        0.0985
     24 C          -9.4538   -7.7178   18.6978 C.ar    1  UNL1        0.1193
     25 N          -9.8422   -8.4614   17.4543 N.ar    1  UNL1       -0.2223
     26 C         -11.1751   -7.9432   17.0016 C.ar    1  UNL1        0.1791
@<TRIPOS>BOND
     1     1     2    1
     2     2     3   ar
     3     3     4   ar
     4     4    14    1
     5    14    15    1
     6    15    16   ar
     7    16    17   ar
     8    17    18   ar
     9    18    19    1
    10    18    20   ar
    11    20    21   ar
    12    14    22    1
    13    22    23   ar
    14    23    24   ar
    15    24    25   ar
    16    25    26   ar
    17     4     5   ar
    18     5     6   ar
    19     6     7    1
    20     7     8   ar
    21     8     9   ar
    22     9    10   ar
    23    10    11    1
    24    10    12   ar
    25    12    13   ar
    26     6     2   ar
    27    13     7   ar
    28    21    15   ar
    29    26    22   ar
@<TRIPOS>MOLECULE
*****
 26 29 0 0 0
SMALL
GASTEIGER

@<TRIPOS>ATOM
      1 C          -9.2248  -19.4222   20.3288 C.3     1  UNL1        0.1305
      2 N          -8.4766  -18.7030   21.4118 N.ar    1  UNL1       -0.3242
      3 C          -6.9997  -18.4418   21.4392 C.ar    1  UNL1        0.0738
      4 C          -6.6842  -17.6962   22.7019 C.ar    1  UNL1        0.0211
      5 C          -7.9660  -17.4966   23.4550 C.ar    1  UNL1        0.0165
      6 C          -9.0738  -18.1189   22.6577 C.ar    1  UNL1        0.0597
      7 C         -10.5241  -18.1513   23.0393 C.ar    1  UNL1        0.0158
      8 C         -11.5331  -17.4077   22.2154 C.ar    1  UNL1        0.0023
      9 C         -12.9834  -17.4402   22.5969 C.ar    1  UNL1        0.0114
     10 C         -13.4246  -18.2161   23.8023 C.ar    1  UNL1        0.0577
     11 CL        -14.8749  -18.2485   24.1839 Cl      1  UNL1       -0.0822
     12 C         -12.4156  -18.9597   24.6263 C.ar    1  UNL1        0.0114
     13 C         -10.9653  -18.9273   24.2447 C.ar    1  UNL1        0.0023
     14 C          -5.3254  -17.2317   23.1354 C.3     1  UNL1        0.1336
     15 C          -4.1108  -17.6309   22.3510 C.ar    1  UNL1        0.0026
     16 C          -3.0807  -16.6025   21.9886 C.ar    1  UNL1       -0.0013
     17 C          -1.8660  -17.0017   21.2042 C.ar    1  UNL1        0.0111
     18 C          -1.6815  -18.4293   20.7822 C.ar    1  UNL1        0.0577
     19 CL         -0.4668  -18.8284   19.9977 Cl      1  UNL1       -0.0822
     20 C          -2.7116  -19.4576   21.1445 C.ar    1  UNL1        0.0111
     21 C          -3.9262  -19.0584   21.9289 C.ar    1  UNL1       -0.0013
     22 N          -5.1813  -16.3681   24.3533 N.ar    1  UNL1       -0.3019
     23 C          -4.7196  -16.8219   25.7064 C.ar    1  UNL1        0.0985
     24 C          -4.7265  -15.6333   26.6214 C.ar    1  UNL1        0.1193
     25 N          -5.1924  -14.4448   25.8337 N.ar    1  UNL1       -0.2223
     26 C          -5.4735  -14.8989   24.4320 C.ar    1  UNL1        0.1791
@<TRIPOS>BOND
     1     1     2    1
     2     2     3   ar
     3     3     4   ar
     4     4    14    1
     5    14    15    1
     6    15    16   ar
     7    16    17   ar
     8    17    18   ar
     9    18    19    1
    10    18    20   ar
    11    20    21   ar
    12    14    22    1
    13    22    23   ar
    14    23    24   ar
    15    24    25   ar
    16    25    26   ar
    17     4     5   ar
    18     5     6   ar
    19     6     7    1
    20     7     8   ar
    21     8     9   ar
    22     9    10   ar
    23    10    11    1
    24    10    12   ar
    25    12    13   ar
    26     6     2   ar
    27    13     7   ar
    28    21    15   ar
    29    26    22   ar
@<TRIPOS>MOLECULE
*****
 26 29 0 0 0
SMALL
GASTEIGER

@<TRIPOS>ATOM
      1 C           2.8819    3.4053   22.2055 C.3     1  UNL1        0.1305
      2 N           1.8704    2.7832   23.1220 N.ar    1  UNL1       -0.3242
      3 C           1.0831    3.4970   24.1806 C.ar    1  UNL1        0.0738
      4 C           0.1947    2.4931   24.8536 C.ar    1  UNL1        0.0211
      5 C           0.4330    1.1588   24.2109 C.ar    1  UNL1        0.0165
      6 C           1.4686    1.3381   23.1407 C.ar    1  UNL1        0.0597
      7 C           2.0078    0.2614   22.2463 C.ar    1  UNL1        0.0158
      8 C           3.1482   -0.5962   22.7084 C.ar    1  UNL1        0.0023
      9 C           3.6874   -1.6729   21.8140 C.ar    1  UNL1        0.0114
     10 C           3.0861   -1.8919   20.4574 C.ar    1  UNL1        0.0577
     11 CL          3.6253   -2.9686   19.5630 Cl      1  UNL1       -0.0822
     12 C           1.9456   -1.0343   19.9952 C.ar    1  UNL1        0.0114
     13 C           1.4064    0.0424   20.8896 C.ar    1  UNL1        0.0023
     14 C          -0.7636    2.7741   25.9728 C.3     1  UNL1        0.1336
     15 C          -0.3378    2.5633   27.3956 C.ar    1  UNL1        0.0026
     16 C           0.3070    3.6820   28.1590 C.ar    1  UNL1       -0.0013
     17 C           0.7328    3.4712   29.5817 C.ar    1  UNL1        0.0111
     18 C           0.5138    2.1418   30.2410 C.ar    1  UNL1        0.0577
     19 CL          0.9397    1.9310   31.6638 Cl      1  UNL1       -0.0822
     20 C          -0.1309    1.0231   29.4776 C.ar    1  UNL1        0.0111
     21 C          -0.5567    1.2339   28.0549 C.ar    1  UNL1       -0.0013
     22 N          -2.1479    3.2658   25.6692 N.ar    1  UNL1       -0.3019
     23 C          -2.7213    3.4975   24.3027 C.ar    1  UNL1        0.0985
     24 C          -4.1296    3.9870   24.4678 C.ar    1  UNL1        0.1193
     25 N          -4.4264    4.0579   25.9364 N.ar    1  UNL1       -0.2223
     26 C          -3.2017    3.6122   26.6789 C.ar    1  UNL1        0.1791
@<TRIPOS>BOND
     1     1     2    1
     2     2     3   ar
     3     3     4   ar
     4     4    14    1
     5    14    15    1
     6    15    16   ar
     7    16    17   ar
     8    17    18   ar
     9    18    19    1
    10    18    20   ar
    11    20    21   ar
    12    14    22    1
    13    22    23   ar
    14    23    24   ar
    15    24    25   ar
    16    25    26   ar
    17     4     5   ar
    18     5     6   ar
    19     6     7    1
    20     7     8   ar
    21     8     9   ar
    22     9    10   ar
    23    10    11    1
    24    10    12   ar
    25    12    13   ar
    26     6     2   ar
    27    13     7   ar
    28    21    15   ar
    29    26    22   ar
@<TRIPOS>MOLECULE
*****
 26 29 0 0 0
SMALL
GASTEIGER

@<TRIPOS>ATOM
      1 C         -11.5005   -1.2407   18.1844 C.3     1  UNL1        0.1305
      2 N         -12.8444   -1.7858   18.5677 N.ar    1  UNL1       -0.3242
      3 C         -14.1147   -0.9970   18.6858 C.ar    1  UNL1        0.0738
      4 C         -15.2093   -1.9391   19.0912 C.ar    1  UNL1        0.0211
      5 C         -14.6154   -3.3101   19.2237 C.ar    1  UNL1        0.0165
      6 C         -13.1538   -3.2154   18.9001 C.ar    1  UNL1        0.0597
      7 C         -12.1737   -4.3509   18.9076 C.ar    1  UNL1        0.0158
      8 C         -10.7022   -4.0711   18.9862 C.ar    1  UNL1        0.0023
      9 C          -9.7222   -5.2065   18.9937 C.ar    1  UNL1        0.0114
     10 C         -10.2136   -6.6219   18.9226 C.ar    1  UNL1        0.0577
     11 CL         -9.2335   -7.7574   18.9301 Cl      1  UNL1       -0.0822
     12 C         -11.6851   -6.9018   18.8440 C.ar    1  UNL1        0.0114
     13 C         -12.6652   -5.7664   18.8365 C.ar    1  UNL1        0.0023
     14 C         -16.6456   -1.5742   19.3235 C.3     1  UNL1        0.1336
     15 C         -17.0304   -0.1396   19.5335 C.ar    1  UNL1        0.0026
     16 C         -17.6010    0.6578   18.3984 C.ar    1  UNL1       -0.0013
     17 C         -17.9858    2.0923   18.6085 C.ar    1  UNL1        0.0111
     18 C         -17.8001    2.7293   19.9538 C.ar    1  UNL1        0.0577
     19 CL        -18.1850    4.1638   20.1639 Cl      1  UNL1       -0.0822
     20 C         -17.2295    1.9319   21.0889 C.ar    1  UNL1        0.0111
     21 C         -16.8447    0.4974   20.8788 C.ar    1  UNL1       -0.0013
     22 N         -17.6970   -2.6437   19.3456 N.ar    1  UNL1       -0.3019
     23 C         -18.0301   -3.5762   18.2189 C.ar    1  UNL1        0.0985
     24 C         -19.1389   -4.4774   18.6753 C.ar    1  UNL1        0.1193
     25 N         -19.4912   -4.1019   20.0842 N.ar    1  UNL1       -0.2223
     26 C         -18.6000   -2.9686   20.4984 C.ar    1  UNL1        0.1791
@<TRIPOS>BOND
     1     1     2    1
     2     2     3   ar
     3     3     4   ar
     4     4    14    1
     5    14    15    1
     6    15    16   ar
     7    16    17   ar
     8    17    18   ar
     9    18    19    1
    10    18    20   ar
    11    20    21   ar
    12    14    22    1
    13    22    23   ar
    14    23    24   ar
    15    24    25   ar
    16    25    26   ar
    17     4     5   ar
    18     5     6   ar
    19     6     7    1
    20     7     8   ar
    21     8     9   ar
    22     9    10   ar
    23    10    11    1
    24    10    12   ar
    25    12    13   ar
    26     6     2   ar
    27    13     7   ar
    28    21    15   ar
    29    26    22   ar
@<TRIPOS>MOLECULE
*****
 26 29 0 0 0
SMALL
GASTEIGER

@<TRIPOS>ATOM
      1 C           5.8269    0.5795   23.8929 C.3     1  UNL1        0.1305
      2 N           4.3942    0.4776   24.3253 N.ar    1  UNL1       -0.3242
      3 C           3.7634    1.2163   25.4682 C.ar    1  UNL1        0.0738
      4 C           2.3201    0.8143   25.5400 C.ar    1  UNL1        0.0211
      5 C           2.0588   -0.1730   24.4413 C.ar    1  UNL1        0.0165
      6 C           3.3406   -0.3811   23.6906 C.ar    1  UNL1        0.0597
      7 C           3.5348   -1.2886   22.5121 C.ar    1  UNL1        0.0158
      8 C           4.3145   -2.5607   22.6655 C.ar    1  UNL1        0.0023
      9 C           4.5087   -3.4682   21.4871 C.ar    1  UNL1        0.0114
     10 C           3.9233   -3.1034   20.1552 C.ar    1  UNL1        0.0577
     11 CL          4.1175   -4.0109   18.9767 Cl      1  UNL1       -0.0822
     12 C           3.1436   -1.8312   20.0016 C.ar    1  UNL1        0.0114
     13 C           2.9494   -0.9238   21.1801 C.ar    1  UNL1        0.0023
     14 C           1.3147    1.3121   26.5355 C.3     1  UNL1        0.1336
     15 C           0.1166    2.0849   26.0692 C.ar    1  UNL1        0.0026
     16 C          -0.9691    2.4434   27.0401 C.ar    1  UNL1       -0.0013
     17 C          -2.1671    3.2162   26.5737 C.ar    1  UNL1        0.0111
     18 C          -2.2794    3.6304   25.1364 C.ar    1  UNL1        0.0577
     19 CL         -3.4775    4.4032   24.6700 Cl      1  UNL1       -0.0822
     20 C          -1.1938    3.2718   24.1655 C.ar    1  UNL1        0.0111
     21 C           0.0042    2.4991   24.6319 C.ar    1  UNL1       -0.0013
     22 N           1.5073    1.0371   27.9975 N.ar    1  UNL1       -0.3019
     23 C           2.2201    1.9239   28.9750 C.ar    1  UNL1        0.0985
     24 C           2.1742    1.2620   30.3203 C.ar    1  UNL1        0.1193
     25 N           1.4330   -0.0339   30.1742 N.ar    1  UNL1       -0.2223
     26 C           1.0208   -0.1728   28.7387 C.ar    1  UNL1        0.1791
@<TRIPOS>BOND
     1     1     2    1
     2     2     3   ar
     3     3     4   ar
     4     4    14    1
     5    14    15    1
     6    15    16   ar
     7    16    17   ar
     8    17    18   ar
     9    18    19    1
    10    18    20   ar
    11    20    21   ar
    12    14    22    1
    13    22    23   ar
    14    23    24   ar
    15    24    25   ar
    16    25    26   ar
    17     4     5   ar
    18     5     6   ar
    19     6     7    1
    20     7     8   ar
    21     8     9   ar
    22     9    10   ar
    23    10    11    1
    24    10    12   ar
    25    12    13   ar
    26     6     2   ar
    27    13     7   ar
    28    21    15   ar
    29    26    22   ar
@<TRIPOS>MOLECULE
*****
 26 29 0 0 0
SMALL
GASTEIGER

@<TRIPOS>ATOM
      1 C           0.0712    4.0046   32.5049 C.3     1  UNL1        0.1305
      2 N           1.1315    2.9437   32.4965 N.ar    1  UNL1       -0.3242
      3 C           2.0277    2.5837   33.6442 C.ar    1  UNL1        0.0738
      4 C           2.9319    1.4739   33.1959 C.ar    1  UNL1        0.0211
      5 C           2.5945    1.1481   31.7712 C.ar    1  UNL1        0.0165
      6 C           1.4818    2.0564   31.3388 C.ar    1  UNL1        0.0597
      7 C           0.8333    2.0743   29.9864 C.ar    1  UNL1        0.0158
      8 C          -0.1245    0.9869   29.5994 C.ar    1  UNL1        0.0023
      9 C          -0.7730    1.0048   28.2470 C.ar    1  UNL1        0.0114
     10 C          -0.4636    2.1102   27.2815 C.ar    1  UNL1        0.0577
     11 CL         -1.1121    2.1281   25.9291 Cl      1  UNL1       -0.0822
     12 C           0.4942    3.1977   27.6684 C.ar    1  UNL1        0.0114
     13 C           1.1427    3.1798   29.0209 C.ar    1  UNL1        0.0023
     14 C           3.9879    0.8072   34.0266 C.3     1  UNL1        0.1336
     15 C           4.7111   -0.3954   33.4964 C.ar    1  UNL1        0.0026
     16 C           6.0343   -0.2322   32.8091 C.ar    1  UNL1       -0.0013
     17 C           6.7573   -1.4347   32.2789 C.ar    1  UNL1        0.0111
     18 C           6.1571   -2.8004   32.4360 C.ar    1  UNL1        0.0577
     19 CL          6.8803   -4.0029   31.9057 Cl      1  UNL1       -0.0822
     20 C           4.8339   -2.9636   33.1232 C.ar    1  UNL1        0.0111
     21 C           4.1109   -1.7611   33.6534 C.ar    1  UNL1       -0.0013
     22 N           4.3210    1.3428   35.3875 N.ar    1  UNL1       -0.3019
     23 C           4.9683    2.6637   35.6810 C.ar    1  UNL1        0.0985
     24 C           5.1126    2.7890   37.1688 C.ar    1  UNL1        0.1193
     25 N           4.5543    1.5454   37.7949 N.ar    1  UNL1       -0.2223
     26 C           4.0651    0.6517   36.6940 C.ar    1  UNL1        0.1791
@<TRIPOS>BOND
     1     1     2    1
     2     2     3   ar
     3     3     4   ar
     4     4    14    1
     5    14    15    1
     6    15    16   ar
     7    16    17   ar
     8    17    18   ar
     9    18    19    1
    10    18    20   ar
    11    20    21   ar
    12    14    22    1
    13    22    23   ar
    14    23    24   ar
    15    24    25   ar
    16    25    26   ar
    17     4     5   ar
    18     5     6   ar
    19     6     7    1
    20     7     8   ar
    21     8     9   ar
    22     9    10   ar
    23    10    11    1
    24    10    12   ar
    25    12    13   ar
    26     6     2   ar
    27    13     7   ar
    28    21    15   ar
    29    26    22   ar
@<TRIPOS>MOLECULE
*****
 26 29 0 0 0
SMALL
GASTEIGER

@<TRIPOS>ATOM
      1 C         -18.6109   -2.9623   20.2823 C.3     1  UNL1        0.1305
      2 N         -17.2523   -3.2844   19.7341 N.ar    1  UNL1       -0.3242
      3 C         -16.6754   -4.6578   19.5583 C.ar    1  UNL1        0.0738
      4 C         -15.2986   -4.5118   18.9811 C.ar    1  UNL1        0.0211
      5 C         -15.0246   -3.0482   18.8002 C.ar    1  UNL1        0.0165
      6 C         -16.2321   -2.2895   19.2656 C.ar    1  UNL1        0.0597
      7 C         -16.3913   -0.7980   19.2630 C.ar    1  UNL1        0.0158
      8 C         -16.6437   -0.0685   20.5490 C.ar    1  UNL1        0.0023
      9 C         -16.8029    1.4230   20.5464 C.ar    1  UNL1        0.0114
     10 C         -16.7098    2.1850   19.2578 C.ar    1  UNL1        0.0577
     11 CL        -16.8691    3.6765   19.2551 Cl      1  UNL1       -0.0822
     12 C         -16.4575    1.4554   17.9717 C.ar    1  UNL1        0.0114
     13 C         -16.2982   -0.0361   17.9743 C.ar    1  UNL1        0.0023
     14 C         -14.3606   -5.6327   18.6439 C.3     1  UNL1        0.1336
     15 C         -12.9804   -5.3298   18.1403 C.ar    1  UNL1        0.0026
     16 C         -11.8387   -5.2121   19.1060 C.ar    1  UNL1       -0.0013
     17 C         -10.4587   -4.9092   18.6024 C.ar    1  UNL1        0.0111
     18 C         -10.2203   -4.7242   17.1331 C.ar    1  UNL1        0.0577
     19 CL         -8.8401   -4.4214   16.6295 Cl      1  UNL1       -0.0822
     20 C         -11.3620   -4.8420   16.1674 C.ar    1  UNL1        0.0111
     21 C         -12.7420   -5.1448   16.6710 C.ar    1  UNL1       -0.0013
     22 N         -14.8026   -7.0564   18.8104 N.ar    1  UNL1       -0.3019
     23 C         -16.0107   -7.5217   19.5680 C.ar    1  UNL1        0.0985
     24 C         -16.0689   -9.0176   19.4743 C.ar    1  UNL1        0.1193
     25 N         -14.8967   -9.4769   18.6587 N.ar    1  UNL1       -0.2223
     26 C         -14.1141   -8.2647   18.2484 C.ar    1  UNL1        0.1791
@<TRIPOS>BOND
     1     1     2    1
     2     2     3   ar
     3     3     4   ar
     4     4    14    1
     5    14    15    1
     6    15    16   ar
     7    16    17   ar
     8    17    18   ar
     9    18    19    1
    10    18    20   ar
    11    20    21   ar
    12    14    22    1
    13    22    23   ar
    14    23    24   ar
    15    24    25   ar
    16    25    26   ar
    17     4     5   ar
    18     5     6   ar
    19     6     7    1
    20     7     8   ar
    21     8     9   ar
    22     9    10   ar
    23    10    11    1
    24    10    12   ar
    25    12    13   ar
    26     6     2   ar
    27    13     7   ar
    28    21    15   ar
    29    26    22   ar
