@<TRIPOS>MOLECULE
*****
 40 44 0 0 0
SMALL
GASTEIGER

@<TRIPOS>ATOM
      1 C           6.2872   -5.0012   28.4515 C.ar    1  UNL1        0.2218
      2 N           6.7734   -5.5748   29.7495 N.ar    1  UNL1       -0.2119
      3 C           6.9595   -4.6826   30.9408 C.ar    1  UNL1        0.1061
      4 C           6.6595   -3.2168   30.8341 C.ar    1  UNL1        0.0683
      5 C           6.1733   -2.6433   29.5362 C.ar    1  UNL1        0.1343
      6 N           5.9872   -3.5355   28.3449 N.ar    1  UNL1       -0.1988
      7 C           6.8456   -2.3245   32.0255 C.ar    1  UNL1        0.0854
      8 C           8.2165   -1.8372   32.3906 C.ar    1  UNL1        0.0193
      9 C           8.4026   -0.9449   33.5819 C.ar    1  UNL1        0.0030
     10 C           7.2179   -0.5399   34.4081 C.ar    1  UNL1        0.0177
     11 C           7.4041    0.3523   35.5994 C.ar    1  UNL1        0.0015
     12 C           6.2194    0.7572   36.4255 C.ar    1  UNL1        0.0001
     13 C           4.8486    0.2699   36.0603 C.ar    1  UNL1        0.0015
     14 C           4.6624   -0.6223   34.8691 C.ar    1  UNL1        0.0191
     15 C           5.8471   -1.0273   34.0429 C.ar    1  UNL1        0.0813
     16 N           5.6610   -1.9196   32.8516 N.ar    1  UNL1       -0.2452
     17 N           6.1011   -5.8936   27.2602 N.pl3   1  UNL1       -0.2824
     18 H           5.4362   -6.6191   27.2876 H       1  UNL1        0.1551
     19 C           7.6281   -2.8478   23.3369 C.3     1  UNL1        0.0521
     20 C           7.6915   -4.1575   24.0654 C.ar    1  UNL1        0.0602
     21 C           6.8646   -4.3706   25.2985 C.ar    1  UNL1        0.0294
     22 C           6.9281   -5.6804   26.0270 C.ar    1  UNL1        0.0528
     23 C           7.8185   -6.7769   25.5223 C.ar    1  UNL1        0.0294
     24 C           8.6455   -6.5637   24.2891 C.ar    1  UNL1        0.0602
     25 C           9.5359   -7.6602   23.7844 C.3     1  UNL1        0.0521
     26 N           8.5820   -5.2540   23.5607 N.ar    1  UNL1       -0.2539
     27 N           5.8733   -1.1774   29.4296 N.pl3   1  UNL1       -0.3172
     28 H           6.6069   -0.5324   29.3068 H       1  UNL1        0.1482
     29 C           4.4555   -0.6943   29.5101 C.3     1  UNL1        0.0998
     30 C           3.8959    0.2273   30.5529 C.3     1  UNL1        0.0271
     31 C           2.4430    0.4433   30.2492 C.3     1  UNL1        0.0604
     32 C           2.1045   -0.3449   29.0186 C.3     1  UNL1        0.1412
     33 O           0.7586   -0.4173   28.3604 O.3     1  UNL1       -0.3818
     34 C           3.3484   -1.0479   28.5619 C.3     1  UNL1        0.1549
     35 O           3.4646   -1.9468   27.3666 O.3     1  UNL1       -0.3803
     36 H           0.8097   -0.9948   27.5828 H       1  UNL1        0.2104
     37 H           2.6038   -2.0089   26.9239 H       1  UNL1        0.2105
     38 C           1.4949    1.2974   31.0376 C.3     1  UNL1        0.1396
     39 O           0.0629    1.4211   30.6085 O.3     1  UNL1       -0.3819
     40 H           0.0198    1.8773   29.7536 H       1  UNL1        0.2104
@<TRIPOS>BOND
     1    19    20    1
     2    20    21   ar
     3    21    22   ar
     4    22    17    1
     5    17     1    1
     6     1     2   ar
     7     2     3   ar
     8     3     4   ar
     9     4     7    1
    10     7     8   ar
    11     8     9   ar
    12     9    10   ar
    13    10    11   ar
    14    11    12   ar
    15    12    13   ar
    16    13    14   ar
    17    14    15   ar
    18    15    16   ar
    19     4     5   ar
    20     5    27    1
    21    29    27    1
    22    29    30    1
    23    30    31    1
    24    31    38    1
    25    38    39    1
    26    31    32    1
    27    32    33    1
    28    32    34    1
    29    34    35    1
    30     5     6   ar
    31    22    23   ar
    32    23    24   ar
    33    24    25    1
    34    24    26   ar
    35    26    20   ar
    36     6     1   ar
    37    16     7   ar
    38    34    29    1
    39    15    10   ar
    40    17    18    1
    41    27    28    1
    42    39    40    1
    43    33    36    1
    44    35    37    1
@<TRIPOS>MOLECULE
*****
 40 44 0 0 0
SMALL
GASTEIGER

@<TRIPOS>ATOM
      1 C           5.9709    0.6791   36.1907 C.ar    1  UNL1        0.2218
      2 N           7.4044    0.6248   35.7522 N.ar    1  UNL1       -0.2119
      3 C           7.7794   -0.1187   34.5046 C.ar    1  UNL1        0.1061
      4 C           6.7210   -0.8078   33.6955 C.ar    1  UNL1        0.0683
      5 C           5.2875   -0.7535   34.1339 C.ar    1  UNL1        0.1343
      6 N           4.9125   -0.0101   35.3815 N.ar    1  UNL1       -0.1988
      7 C           7.0960   -1.5513   32.4478 C.ar    1  UNL1        0.0854
      8 C           7.7070   -0.8163   31.2917 C.ar    1  UNL1        0.0193
      9 C           8.0820   -1.5597   30.0441 C.ar    1  UNL1        0.0030
     10 C           7.8460   -3.0382   29.9524 C.ar    1  UNL1        0.0177
     11 C           8.2210   -3.7816   28.7048 C.ar    1  UNL1        0.0015
     12 C           7.9851   -5.2601   28.6132 C.ar    1  UNL1        0.0001
     13 C           7.3741   -5.9951   29.7692 C.ar    1  UNL1        0.0015
     14 C           6.9990   -5.2517   31.0169 C.ar    1  UNL1        0.0191
     15 C           7.2350   -3.7733   31.1085 C.ar    1  UNL1        0.0813
     16 N           6.8600   -3.0298   32.3562 N.ar    1  UNL1       -0.2452
     17 N           5.5959    1.4226   37.4384 N.pl3   1  UNL1       -0.2824
     18 H           6.2912    1.6786   38.0866 H       1  UNL1        0.1551
     19 C           1.0418    0.3686   39.7076 C.3     1  UNL1        0.0521
     20 C           1.8844    1.2489   38.8330 C.ar    1  UNL1        0.0602
     21 C           3.3188    0.8955   38.5730 C.ar    1  UNL1        0.0294
     22 C           4.1614    1.7759   37.6983 C.ar    1  UNL1        0.0528
     23 C           3.5696    3.0095   37.0837 C.ar    1  UNL1        0.0294
     24 C           2.1352    3.3629   37.3436 C.ar    1  UNL1        0.0602
     25 C           1.5434    4.5965   36.7290 C.3     1  UNL1        0.0521
     26 N           1.2926    2.4826   38.2183 N.ar    1  UNL1       -0.2539
     27 N           4.2291   -1.4427   33.3247 N.pl3   1  UNL1       -0.3172
     28 H           3.9905   -2.3776   33.5204 H       1  UNL1        0.1482
     29 C           3.5341   -0.7074   32.2172 C.3     1  UNL1        0.0998
     30 C           3.4510   -1.1447   30.7848 C.3     1  UNL1        0.0271
     31 C           2.6658   -0.1133   30.0300 C.3     1  UNL1        0.0604
     32 C           2.2636    0.9614   30.9960 C.3     1  UNL1        0.1412
     33 O           1.4650    2.1880   30.6679 O.3     1  UNL1       -0.3818
     34 C           2.8003    0.5943   32.3477 C.3     1  UNL1        0.1549
     35 O           2.6325    1.3892   33.6086 O.3     1  UNL1       -0.3803
     36 H           1.3435    2.7190   31.4705 H       1  UNL1        0.2104
     37 H           2.1176    2.1894   33.4203 H       1  UNL1        0.2105
     38 C           2.3401   -0.1502   28.5663 C.3     1  UNL1        0.1396
     39 O           2.7329   -1.3391   27.7403 O.3     1  UNL1       -0.3819
     40 H           3.7001   -1.3944   27.6928 H       1  UNL1        0.2104
@<TRIPOS>BOND
     1    19    20    1
     2    20    21   ar
     3    21    22   ar
     4    22    17    1
     5    17     1    1
     6     1     2   ar
     7     2     3   ar
     8     3     4   ar
     9     4     7    1
    10     7     8   ar
    11     8     9   ar
    12     9    10   ar
    13    10    11   ar
    14    11    12   ar
    15    12    13   ar
    16    13    14   ar
    17    14    15   ar
    18    15    16   ar
    19     4     5   ar
    20     5    27    1
    21    29    27    1
    22    29    30    1
    23    30    31    1
    24    31    38    1
    25    38    39    1
    26    31    32    1
    27    32    33    1
    28    32    34    1
    29    34    35    1
    30     5     6   ar
    31    22    23   ar
    32    23    24   ar
    33    24    25    1
    34    24    26   ar
    35    26    20   ar
    36     6     1   ar
    37    16     7   ar
    38    34    29    1
    39    15    10   ar
    40    17    18    1
    41    27    28    1
    42    39    40    1
    43    33    36    1
    44    35    37    1
@<TRIPOS>MOLECULE
*****
 40 44 0 0 0
SMALL
GASTEIGER

@<TRIPOS>ATOM
      1 C           1.7398    1.7753   24.8087 C.ar    1  UNL1        0.2218
      2 N           1.0920    3.1280   24.8299 N.ar    1  UNL1       -0.2119
      3 C           0.2218    3.5609   23.6874 C.ar    1  UNL1        0.1061
      4 C          -0.0007    2.6410   22.5238 C.ar    1  UNL1        0.0683
      5 C           0.6471    1.2882   22.5025 C.ar    1  UNL1        0.1343
      6 N           1.5173    0.8554   23.6450 N.ar    1  UNL1       -0.1988
      7 C          -0.8710    3.0738   21.3812 C.ar    1  UNL1        0.0854
      8 C          -2.3139    3.4058   21.6215 C.ar    1  UNL1        0.0193
      9 C          -3.1842    3.8386   20.4790 C.ar    1  UNL1        0.0030
     10 C          -2.6116    3.9394   19.0962 C.ar    1  UNL1        0.0177
     11 C          -3.4819    4.3723   17.9538 C.ar    1  UNL1        0.0015
     12 C          -2.9092    4.4731   16.5711 C.ar    1  UNL1        0.0001
     13 C          -1.4663    4.1411   16.3309 C.ar    1  UNL1        0.0015
     14 C          -0.5960    3.7083   17.4733 C.ar    1  UNL1        0.0191
     15 C          -1.1686    3.6075   18.8560 C.ar    1  UNL1        0.0813
     16 N          -0.2983    3.1746   19.9985 N.ar    1  UNL1       -0.2452
     17 N           2.6101    1.3424   25.9512 N.pl3   1  UNL1       -0.2824
     18 H           3.5900    1.3934   25.8704 H       1  UNL1        0.1551
     19 C           3.1037   -0.6926   30.7067 C.3     1  UNL1        0.0521
     20 C           2.2342   -0.1855   29.5946 C.ar    1  UNL1        0.0602
     21 C           2.8569    0.3249   28.3290 C.ar    1  UNL1        0.0294
     22 C           1.9874    0.8320   27.2168 C.ar    1  UNL1        0.0528
     23 C           0.4953    0.8287   27.3703 C.ar    1  UNL1        0.0294
     24 C          -0.1273    0.3183   28.6359 C.ar    1  UNL1        0.0602
     25 C          -1.6194    0.3150   28.7893 C.3     1  UNL1        0.0521
     26 N           0.7421   -0.1888   29.7480 N.ar    1  UNL1       -0.2539
     27 N           0.4246    0.3683   21.3387 N.pl3   1  UNL1       -0.3172
     28 H          -0.4799    0.0328   21.1424 H       1  UNL1        0.1482
     29 C           1.5802   -0.0404   20.4742 C.3     1  UNL1        0.0998
     30 C           1.7553    0.2911   19.0218 C.3     1  UNL1        0.0271
     31 C           3.0469   -0.3160   18.5601 C.3     1  UNL1        0.0604
     32 C           3.6701   -1.0227   19.7272 C.3     1  UNL1        0.1412
     33 O           4.9714   -1.7688   19.7138 O.3     1  UNL1       -0.3818
     34 C           2.7636   -0.8524   20.9101 C.3     1  UNL1        0.1549
     35 O           2.9993   -1.3983   22.2873 O.3     1  UNL1       -0.3803
     36 H           5.1451   -2.1317   20.5964 H       1  UNL1        0.2104
     37 H           3.8375   -1.8861   22.3027 H       1  UNL1        0.2105
     38 C           3.6155   -0.2312   17.1747 C.3     1  UNL1        0.1396
     39 O           3.7078   -1.4640   16.3251 O.3     1  UNL1       -0.3819
     40 H           4.3395   -2.0838   16.7222 H       1  UNL1        0.2104
@<TRIPOS>BOND
     1    19    20    1
     2    20    21   ar
     3    21    22   ar
     4    22    17    1
     5    17     1    1
     6     1     2   ar
     7     2     3   ar
     8     3     4   ar
     9     4     7    1
    10     7     8   ar
    11     8     9   ar
    12     9    10   ar
    13    10    11   ar
    14    11    12   ar
    15    12    13   ar
    16    13    14   ar
    17    14    15   ar
    18    15    16   ar
    19     4     5   ar
    20     5    27    1
    21    29    27    1
    22    29    30    1
    23    30    31    1
    24    31    38    1
    25    38    39    1
    26    31    32    1
    27    32    33    1
    28    32    34    1
    29    34    35    1
    30     5     6   ar
    31    22    23   ar
    32    23    24   ar
    33    24    25    1
    34    24    26   ar
    35    26    20   ar
    36     6     1   ar
    37    16     7   ar
    38    34    29    1
    39    15    10   ar
    40    17    18    1
    41    27    28    1
    42    39    40    1
    43    33    36    1
    44    35    37    1
@<TRIPOS>MOLECULE
*****
 40 44 0 0 0
SMALL
GASTEIGER

@<TRIPOS>ATOM
      1 C          -0.5855    2.8383   20.3164 C.ar    1  UNL1        0.2218
      2 N          -0.3080    2.2603   21.6725 N.ar    1  UNL1       -0.2119
      3 C           0.6745    1.1369   21.8222 C.ar    1  UNL1        0.1061
      4 C           1.3795    0.5913   20.6158 C.ar    1  UNL1        0.0683
      5 C           1.1019    1.1692   19.2597 C.ar    1  UNL1        0.1343
      6 N           0.1194    2.2927   19.1100 N.ar    1  UNL1       -0.1988
      7 C           2.3620   -0.5322   20.7655 C.ar    1  UNL1        0.0854
      8 C           3.3118   -0.5482   21.9264 C.ar    1  UNL1        0.0193
      9 C           4.2944   -1.6717   22.0761 C.ar    1  UNL1        0.0030
     10 C           4.3271   -2.7792   21.0649 C.ar    1  UNL1        0.0177
     11 C           5.3096   -3.9026   21.2146 C.ar    1  UNL1        0.0015
     12 C           5.3424   -5.0101   20.2034 C.ar    1  UNL1        0.0001
     13 C           4.3926   -4.9940   19.0425 C.ar    1  UNL1        0.0015
     14 C           3.4100   -3.8706   18.8928 C.ar    1  UNL1        0.0191
     15 C           3.3773   -2.7632   19.9040 C.ar    1  UNL1        0.0813
     16 N           2.3948   -1.6396   19.7543 N.ar    1  UNL1       -0.2452
     17 N          -1.5681    3.9618   20.1667 N.pl3   1  UNL1       -0.2824
     18 H          -1.2724    4.8299   19.8085 H       1  UNL1        0.1551
     19 C          -6.5527    3.3147   18.8494 C.3     1  UNL1        0.0521
     20 C          -5.4934    3.4391   19.9041 C.ar    1  UNL1        0.0602
     21 C          -4.0604    3.6382   19.5080 C.ar    1  UNL1        0.0294
     22 C          -3.0011    3.7627   20.5628 C.ar    1  UNL1        0.0528
     23 C          -3.3748    3.6879   22.0135 C.ar    1  UNL1        0.0294
     24 C          -4.8078    3.4888   22.4096 C.ar    1  UNL1        0.0602
     25 C          -5.1815    3.4141   23.8603 C.3     1  UNL1        0.0521
     26 N          -5.8671    3.3644   21.3549 N.ar    1  UNL1       -0.2539
     27 N           1.8069    0.6236   18.0533 N.pl3   1  UNL1       -0.3172
     28 H           1.2935    0.1698   17.3465 H       1  UNL1        0.1482
     29 C           3.2942    0.7696   17.9239 C.3     1  UNL1        0.0998
     30 C           4.1340    1.8374   18.5598 C.3     1  UNL1        0.0271
     31 C           5.5616    1.6011   18.1649 C.3     1  UNL1        0.0604
     32 C           5.6042    0.3871   17.2848 C.3     1  UNL1        0.1412
     33 O           6.8324   -0.2084   16.6629 O.3     1  UNL1       -0.3818
     34 C           4.2028   -0.1268   17.1360 C.3     1  UNL1        0.1549
     35 O           3.7838   -1.3264   16.3390 O.3     1  UNL1       -0.3803
     36 H           6.5851   -0.9878   16.1411 H       1  UNL1        0.2104
     37 H           4.5638   -1.7291   15.9264 H       1  UNL1        0.2105
     38 C           6.7398    2.4327   18.5775 C.3     1  UNL1        0.1396
     39 O           8.0745    2.2169   17.9279 O.3     1  UNL1       -0.3819
     40 H           8.4083    1.3361   18.1598 H       1  UNL1        0.2104
@<TRIPOS>BOND
     1    19    20    1
     2    20    21   ar
     3    21    22   ar
     4    22    17    1
     5    17     1    1
     6     1     2   ar
     7     2     3   ar
     8     3     4   ar
     9     4     7    1
    10     7     8   ar
    11     8     9   ar
    12     9    10   ar
    13    10    11   ar
    14    11    12   ar
    15    12    13   ar
    16    13    14   ar
    17    14    15   ar
    18    15    16   ar
    19     4     5   ar
    20     5    27    1
    21    29    27    1
    22    29    30    1
    23    30    31    1
    24    31    38    1
    25    38    39    1
    26    31    32    1
    27    32    33    1
    28    32    34    1
    29    34    35    1
    30     5     6   ar
    31    22    23   ar
    32    23    24   ar
    33    24    25    1
    34    24    26   ar
    35    26    20   ar
    36     6     1   ar
    37    16     7   ar
    38    34    29    1
    39    15    10   ar
    40    17    18    1
    41    27    28    1
    42    39    40    1
    43    33    36    1
    44    35    37    1
@<TRIPOS>MOLECULE
*****
 40 44 0 0 0
SMALL
GASTEIGER

@<TRIPOS>ATOM
      1 C           4.6452    1.1143   34.1807 C.ar    1  UNL1        0.2218
      2 N           6.0371    0.5733   34.3227 N.ar    1  UNL1       -0.2119
      3 C           6.4849   -0.5775   33.4713 C.ar    1  UNL1        0.1061
      4 C           5.5409   -1.1874   32.4779 C.ar    1  UNL1        0.0683
      5 C           4.1491   -0.6465   32.3360 C.ar    1  UNL1        0.1343
      6 N           3.7012    0.5043   33.1874 N.ar    1  UNL1       -0.1988
      7 C           5.9888   -2.3384   31.6265 C.ar    1  UNL1        0.0854
      8 C           6.4572   -3.6097   32.2701 C.ar    1  UNL1        0.0193
      9 C           6.9050   -4.7606   31.4187 C.ar    1  UNL1        0.0030
     10 C           6.8844   -4.6402   29.9236 C.ar    1  UNL1        0.0177
     11 C           7.3322   -5.7911   29.0723 C.ar    1  UNL1        0.0015
     12 C           7.3116   -5.6706   27.5773 C.ar    1  UNL1        0.0001
     13 C           6.8431   -4.3992   26.9337 C.ar    1  UNL1        0.0015
     14 C           6.3953   -3.2484   27.7850 C.ar    1  UNL1        0.0191
     15 C           6.4160   -3.3688   29.2800 C.ar    1  UNL1        0.0813
     16 N           5.9681   -2.2179   30.1315 N.ar    1  UNL1       -0.2452
     17 N           4.1974    2.2652   35.0322 N.pl3   1  UNL1       -0.2824
     18 H           3.9720    3.1279   34.6148 H       1  UNL1        0.1551
     19 C           6.2077    2.9012   39.7813 C.3     1  UNL1        0.0521
     20 C           5.0982    2.4197   38.8941 C.ar    1  UNL1        0.0602
     21 C           5.2026    2.5832   37.4067 C.ar    1  UNL1        0.0294
     22 C           4.0930    2.1017   36.5196 C.ar    1  UNL1        0.0528
     23 C           2.8791    1.4566   37.1198 C.ar    1  UNL1        0.0294
     24 C           2.7747    1.2931   38.6072 C.ar    1  UNL1        0.0602
     25 C           1.5608    0.6480   39.2074 C.3     1  UNL1        0.0521
     26 N           3.8842    1.7746   39.4944 N.ar    1  UNL1       -0.2539
     27 N           3.2051   -1.2565   31.3425 N.pl3   1  UNL1       -0.3172
     28 H           2.9056   -2.1875   31.4555 H       1  UNL1        0.1482
     29 C           2.7174   -0.4480   30.1770 C.3     1  UNL1        0.0998
     30 C           3.0786   -0.6687   28.7380 C.3     1  UNL1        0.0271
     31 C           2.3673    0.3661   27.9175 C.3     1  UNL1        0.0604
     32 C           1.5665    1.2264   28.8495 C.3     1  UNL1        0.1412
     33 O           0.7012    2.3863   28.4544 O.3     1  UNL1       -0.3818
     34 C           1.7828    0.7233   30.2459 C.3     1  UNL1        0.1549
     35 O           1.1719    1.2917   31.4924 O.3     1  UNL1       -0.3803
     36 H           0.2945    2.7709   29.2465 H       1  UNL1        0.2104
     37 H           0.6066    2.0451   31.2608 H       1  UNL1        0.2105
     38 C           2.4435    0.5145   26.4268 C.3     1  UNL1        0.1396
     39 O           1.2022    0.8097   25.6381 O.3     1  UNL1       -0.3819
     40 H           0.5956    0.0550   25.6954 H       1  UNL1        0.2104
@<TRIPOS>BOND
     1    19    20    1
     2    20    21   ar
     3    21    22   ar
     4    22    17    1
     5    17     1    1
     6     1     2   ar
     7     2     3   ar
     8     3     4   ar
     9     4     7    1
    10     7     8   ar
    11     8     9   ar
    12     9    10   ar
    13    10    11   ar
    14    11    12   ar
    15    12    13   ar
    16    13    14   ar
    17    14    15   ar
    18    15    16   ar
    19     4     5   ar
    20     5    27    1
    21    29    27    1
    22    29    30    1
    23    30    31    1
    24    31    38    1
    25    38    39    1
    26    31    32    1
    27    32    33    1
    28    32    34    1
    29    34    35    1
    30     5     6   ar
    31    22    23   ar
    32    23    24   ar
    33    24    25    1
    34    24    26   ar
    35    26    20   ar
    36     6     1   ar
    37    16     7   ar
    38    34    29    1
    39    15    10   ar
    40    17    18    1
    41    27    28    1
    42    39    40    1
    43    33    36    1
    44    35    37    1
@<TRIPOS>MOLECULE
*****
 40 44 0 0 0
SMALL
GASTEIGER

@<TRIPOS>ATOM
      1 C          -1.1914    4.2608   25.2939 C.ar    1  UNL1        0.2218
      2 N          -0.5450    4.4284   23.9507 N.ar    1  UNL1       -0.2119
      3 C           0.3363    3.3457   23.4022 C.ar    1  UNL1        0.1061
      4 C           0.5713    2.0954   24.1968 C.ar    1  UNL1        0.0683
      5 C          -0.0751    1.9278   25.5400 C.ar    1  UNL1        0.1343
      6 N          -0.9564    3.0105   26.0885 N.ar    1  UNL1       -0.1988
      7 C           1.4527    1.0126   23.6483 C.ar    1  UNL1        0.0854
      8 C           1.3749    0.6461   22.1958 C.ar    1  UNL1        0.0193
      9 C           2.2562   -0.4366   21.6472 C.ar    1  UNL1        0.0030
     10 C           3.2154   -1.1529   22.5512 C.ar    1  UNL1        0.0177
     11 C           4.0967   -2.2356   22.0026 C.ar    1  UNL1        0.0015
     12 C           5.0558   -2.9518   22.9065 C.ar    1  UNL1        0.0001
     13 C           5.1336   -2.5853   24.3589 C.ar    1  UNL1        0.0015
     14 C           4.2523   -1.5026   24.9075 C.ar    1  UNL1        0.0191
     15 C           3.2932   -0.7864   24.0036 C.ar    1  UNL1        0.0813
     16 N           2.4118    0.2964   24.5522 N.ar    1  UNL1       -0.2452
     17 N          -2.0728    5.3436   25.8425 N.pl3   1  UNL1       -0.2824
     18 H          -1.6754    6.1060   26.3221 H       1  UNL1        0.1551
     19 C          -6.1892    4.0146   22.9634 C.3     1  UNL1        0.0521
     20 C          -5.6178    4.6001   24.2206 C.ar    1  UNL1        0.0602
     21 C          -4.1310    4.6790   24.4029 C.ar    1  UNL1        0.0294
     22 C          -3.5596    5.2647   25.6601 C.ar    1  UNL1        0.0528
     23 C          -4.4749    5.7713   26.7350 C.ar    1  UNL1        0.0294
     24 C          -5.9617    5.6924   26.5527 C.ar    1  UNL1        0.0602
     25 C          -6.8771    6.1991   27.6275 C.3     1  UNL1        0.0521
     26 N          -6.5332    5.1069   25.2955 N.ar    1  UNL1       -0.2539
     27 N           0.1599    0.6774   26.3346 N.pl3   1  UNL1       -0.3172
     28 H           0.0668   -0.2036   25.9051 H       1  UNL1        0.1482
     29 C           0.5368    0.7693   27.7836 C.3     1  UNL1        0.0998
     30 C          -0.0133    1.7492   28.7772 C.3     1  UNL1        0.0271
     31 C           0.6398    1.4830   30.1011 C.3     1  UNL1        0.0604
     32 C           1.5936    0.3386   29.9256 C.3     1  UNL1        0.1412
     33 O           2.4591   -0.2597   30.9947 O.3     1  UNL1       -0.3818
     34 C           1.5299   -0.1024   28.4933 C.3     1  UNL1        0.1549
     35 O           2.3205   -1.2192   27.8787 O.3     1  UNL1       -0.3803
     36 H           2.9810   -0.9860   30.6194 H       1  UNL1        0.2104
     37 H           2.8891   -1.6222   28.5534 H       1  UNL1        0.2105
     38 C           0.3841    2.2300   31.3764 C.3     1  UNL1        0.1396
     39 O           0.9168    1.7012   32.6751 O.3     1  UNL1       -0.3819
     40 H           0.4776    0.8627   32.8872 H       1  UNL1        0.2104
@<TRIPOS>BOND
     1    19    20    1
     2    20    21   ar
     3    21    22   ar
     4    22    17    1
     5    17     1    1
     6     1     2   ar
     7     2     3   ar
     8     3     4   ar
     9     4     7    1
    10     7     8   ar
    11     8     9   ar
    12     9    10   ar
    13    10    11   ar
    14    11    12   ar
    15    12    13   ar
    16    13    14   ar
    17    14    15   ar
    18    15    16   ar
    19     4     5   ar
    20     5    27    1
    21    29    27    1
    22    29    30    1
    23    30    31    1
    24    31    38    1
    25    38    39    1
    26    31    32    1
    27    32    33    1
    28    32    34    1
    29    34    35    1
    30     5     6   ar
    31    22    23   ar
    32    23    24   ar
    33    24    25    1
    34    24    26   ar
    35    26    20   ar
    36     6     1   ar
    37    16     7   ar
    38    34    29    1
    39    15    10   ar
    40    17    18    1
    41    27    28    1
    42    39    40    1
    43    33    36    1
    44    35    37    1
@<TRIPOS>MOLECULE
*****
 40 44 0 0 0
SMALL
GASTEIGER

@<TRIPOS>ATOM
      1 C           1.6013    2.0407   24.4689 C.ar    1  UNL1        0.2218
      2 N           0.9644    3.3988   24.4765 N.ar    1  UNL1       -0.2119
      3 C           0.0288    3.7946   23.3729 C.ar    1  UNL1        0.1061
      4 C          -0.2698    2.8323   22.2617 C.ar    1  UNL1        0.0683
      5 C           0.3671    1.4742   22.2541 C.ar    1  UNL1        0.1343
      6 N           1.3026    1.0784   23.3577 N.ar    1  UNL1       -0.1988
      7 C          -1.2054    3.2281   21.1580 C.ar    1  UNL1        0.0854
      8 C          -0.6677    3.8673   19.9121 C.ar    1  UNL1        0.0193
      9 C          -1.6032    4.2631   18.8084 C.ar    1  UNL1        0.0030
     10 C          -3.0766    4.0197   18.9506 C.ar    1  UNL1        0.0177
     11 C          -4.0121    4.4154   17.8470 C.ar    1  UNL1        0.0015
     12 C          -5.4853    4.1720   17.9892 C.ar    1  UNL1        0.0001
     13 C          -6.0230    3.5328   19.2351 C.ar    1  UNL1        0.0015
     14 C          -5.0875    3.1370   20.3388 C.ar    1  UNL1        0.0191
     15 C          -3.6143    3.3804   20.1965 C.ar    1  UNL1        0.0813
     16 N          -2.6787    2.9847   21.3002 N.ar    1  UNL1       -0.2452
     17 N           2.5369    1.6449   25.5726 N.pl3   1  UNL1       -0.2824
     18 H           3.5071    1.7732   25.4652 H       1  UNL1        0.1551
     19 C           3.3227   -0.7218   30.1312 C.3     1  UNL1        0.0521
     20 C           2.3872   -0.1298   29.1192 C.ar    1  UNL1        0.0602
     21 C           2.9298    0.4615   27.8519 C.ar    1  UNL1        0.0294
     22 C           1.9943    1.0536   26.8399 C.ar    1  UNL1        0.0528
     23 C           0.5162    1.0544   27.0951 C.ar    1  UNL1        0.0294
     24 C          -0.0264    0.4631   28.3623 C.ar    1  UNL1        0.0602
     25 C          -1.5045    0.4639   28.6175 C.3     1  UNL1        0.0521
     26 N           0.9090   -0.1289   29.3744 N.ar    1  UNL1       -0.2539
     27 N           0.0683    0.5120   21.1428 N.pl3   1  UNL1       -0.3172
     28 H          -0.8602    0.2359   20.9670 H       1  UNL1        0.1482
     29 C           1.1843   -0.0296   20.2994 C.3     1  UNL1        0.0998
     30 C           2.1352   -1.1217   20.6908 C.3     1  UNL1        0.0271
     31 C           3.0839   -1.3412   19.5498 C.3     1  UNL1        0.0604
     32 C           2.7194   -0.3848   18.4533 C.3     1  UNL1        0.1412
     33 O           3.4079   -0.2607   17.1265 O.3     1  UNL1       -0.3818
     34 C           1.5454    0.4258   18.9166 C.3     1  UNL1        0.1549
     35 O           0.8538    1.5028   18.1343 O.3     1  UNL1       -0.3803
     36 H           2.9766    0.4318   16.6019 H       1  UNL1        0.2104
     37 H           1.2832    1.6011   17.2701 H       1  UNL1        0.2105
     38 C           4.2010   -2.3415   19.5121 C.3     1  UNL1        0.1396
     39 O           4.5427   -3.0360   18.2272 O.3     1  UNL1       -0.3819
     40 H           3.8046   -3.6068   17.9620 H       1  UNL1        0.2104
@<TRIPOS>BOND
     1    19    20    1
     2    20    21   ar
     3    21    22   ar
     4    22    17    1
     5    17     1    1
     6     1     2   ar
     7     2     3   ar
     8     3     4   ar
     9     4     7    1
    10     7     8   ar
    11     8     9   ar
    12     9    10   ar
    13    10    11   ar
    14    11    12   ar
    15    12    13   ar
    16    13    14   ar
    17    14    15   ar
    18    15    16   ar
    19     4     5   ar
    20     5    27    1
    21    29    27    1
    22    29    30    1
    23    30    31    1
    24    31    38    1
    25    38    39    1
    26    31    32    1
    27    32    33    1
    28    32    34    1
    29    34    35    1
    30     5     6   ar
    31    22    23   ar
    32    23    24   ar
    33    24    25    1
    34    24    26   ar
    35    26    20   ar
    36     6     1   ar
    37    16     7   ar
    38    34    29    1
    39    15    10   ar
    40    17    18    1
    41    27    28    1
    42    39    40    1
    43    33    36    1
    44    35    37    1
@<TRIPOS>MOLECULE
*****
 40 44 0 0 0
SMALL
GASTEIGER

@<TRIPOS>ATOM
      1 C           8.3702   -4.4736   23.0740 C.ar    1  UNL1        0.2218
      2 N           7.8619   -5.0381   21.7805 N.ar    1  UNL1       -0.2119
      3 C           6.9073   -4.2438   20.9392 C.ar    1  UNL1        0.1061
      4 C           6.4609   -2.8851   21.3915 C.ar    1  UNL1        0.0683
      5 C           6.9691   -2.3206   22.6849 C.ar    1  UNL1        0.1343
      6 N           7.9238   -3.1149   23.5262 N.ar    1  UNL1       -0.1988
      7 C           5.5062   -2.0907   20.5502 C.ar    1  UNL1        0.0854
      8 C           5.9331   -1.5883   19.2028 C.ar    1  UNL1        0.0193
      9 C           4.9785   -0.7940   18.3616 C.ar    1  UNL1        0.0030
     10 C           3.5969   -0.5021   18.8676 C.ar    1  UNL1        0.0177
     11 C           2.6423    0.2922   18.0264 C.ar    1  UNL1        0.0015
     12 C           1.2608    0.5841   18.5325 C.ar    1  UNL1        0.0001
     13 C           0.8339    0.0817   19.8798 C.ar    1  UNL1        0.0015
     14 C           1.7885   -0.7126   20.7211 C.ar    1  UNL1        0.0191
     15 C           3.1700   -1.0045   20.2150 C.ar    1  UNL1        0.0813
     16 N           4.1247   -1.7988   21.0563 N.ar    1  UNL1       -0.2452
     17 N           9.3249   -5.2679   23.9152 N.pl3   1  UNL1       -0.2824
     18 H          10.2038   -5.5244   23.5534 H       1  UNL1        0.1551
     19 C           8.0975   -8.9673   27.3515 C.3     1  UNL1        0.0521
     20 C           8.3267   -7.5212   27.0260 C.ar    1  UNL1        0.0602
     21 C           8.7112   -7.1177   25.6334 C.ar    1  UNL1        0.0294
     22 C           8.9404   -5.6714   25.3079 C.ar    1  UNL1        0.0528
     23 C           8.7851   -4.6288   26.3749 C.ar    1  UNL1        0.0294
     24 C           8.4006   -5.0322   27.7675 C.ar    1  UNL1        0.0602
     25 C           8.2453   -3.9896   28.8346 C.3     1  UNL1        0.0521
     26 N           8.1714   -6.4784   28.0931 N.ar    1  UNL1       -0.2539
     27 N           6.5227   -0.9618   23.1371 N.pl3   1  UNL1       -0.3172
     28 H           6.9599   -0.1556   22.7792 H       1  UNL1        0.1482
     29 C           5.4101   -0.8314   24.1347 C.3     1  UNL1        0.0998
     30 C           4.4395    0.3083   24.2290 C.3     1  UNL1        0.0271
     31 C           3.5023    0.0263   25.3657 C.3     1  UNL1        0.0604
     32 C           3.8936   -1.2878   25.9739 C.3     1  UNL1        0.1412
     33 O           3.2236   -1.9547   27.1385 O.3     1  UNL1       -0.3818
     34 C           5.0727   -1.8179   25.2131 C.3     1  UNL1        0.1549
     35 O           5.7887   -3.1080   25.4834 O.3     1  UNL1       -0.3803
     36 H           3.6709   -2.7934   27.3320 H       1  UNL1        0.2104
     37 H           5.3716   -3.5580   26.2346 H       1  UNL1        0.2105
     38 C           2.3721    0.9042   25.8152 C.3     1  UNL1        0.1396
     39 O           1.3961    0.4050   26.8389 O.3     1  UNL1       -0.3819
     40 H           0.8896   -0.3349   26.4690 H       1  UNL1        0.2104
@<TRIPOS>BOND
     1    19    20    1
     2    20    21   ar
     3    21    22   ar
     4    22    17    1
     5    17     1    1
     6     1     2   ar
     7     2     3   ar
     8     3     4   ar
     9     4     7    1
    10     7     8   ar
    11     8     9   ar
    12     9    10   ar
    13    10    11   ar
    14    11    12   ar
    15    12    13   ar
    16    13    14   ar
    17    14    15   ar
    18    15    16   ar
    19     4     5   ar
    20     5    27    1
    21    29    27    1
    22    29    30    1
    23    30    31    1
    24    31    38    1
    25    38    39    1
    26    31    32    1
    27    32    33    1
    28    32    34    1
    29    34    35    1
    30     5     6   ar
    31    22    23   ar
    32    23    24   ar
    33    24    25    1
    34    24    26   ar
    35    26    20   ar
    36     6     1   ar
    37    16     7   ar
    38    34    29    1
    39    15    10   ar
    40    17    18    1
    41    27    28    1
    42    39    40    1
    43    33    36    1
    44    35    37    1
@<TRIPOS>MOLECULE
*****
 40 44 0 0 0
SMALL
GASTEIGER

@<TRIPOS>ATOM
      1 C           6.2530   -5.0168   28.6547 C.ar    1  UNL1        0.2218
      2 N           6.7824   -5.5849   29.9381 N.ar    1  UNL1       -0.2119
      3 C           6.9943   -4.6902   31.1233 C.ar    1  UNL1        0.1061
      4 C           6.6769   -3.2275   31.0250 C.ar    1  UNL1        0.0683
      5 C           6.1476   -2.6595   29.7416 C.ar    1  UNL1        0.1343
      6 N           5.9356   -3.5541   28.5564 N.ar    1  UNL1       -0.1988
      7 C           6.8889   -2.3327   32.2101 C.ar    1  UNL1        0.0854
      8 C           8.2742   -1.8895   32.5770 C.ar    1  UNL1        0.0193
      9 C           8.4862   -0.9948   33.7621 C.ar    1  UNL1        0.0030
     10 C           7.3128   -0.5432   34.5804 C.ar    1  UNL1        0.0177
     11 C           7.5248    0.3515   35.7655 C.ar    1  UNL1        0.0015
     12 C           6.3516    0.8030   36.5837 C.ar    1  UNL1        0.0001
     13 C           4.9663    0.3598   36.2168 C.ar    1  UNL1        0.0015
     14 C           4.7543   -0.5349   35.0317 C.ar    1  UNL1        0.0191
     15 C           5.9276   -0.9864   34.2135 C.ar    1  UNL1        0.0813
     16 N           5.7156   -1.8812   33.0283 N.ar    1  UNL1       -0.2452
     17 N           6.0411   -5.9116   27.4696 N.pl3   1  UNL1       -0.2824
     18 H           5.3577   -6.6196   27.5032 H       1  UNL1        0.1551
     19 C           9.5063   -7.7483   24.0609 C.3     1  UNL1        0.0521
     20 C           8.6029   -6.6461   24.5288 C.ar    1  UNL1        0.0602
     21 C           7.7737   -6.8300   25.7652 C.ar    1  UNL1        0.0294
     22 C           6.8703   -5.7277   26.2332 C.ar    1  UNL1        0.0528
     23 C           6.7961   -4.4417   25.4648 C.ar    1  UNL1        0.0294
     24 C           7.6253   -4.2578   24.2284 C.ar    1  UNL1        0.0602
     25 C           7.5511   -2.9717   23.4601 C.3     1  UNL1        0.0521
     26 N           8.5287   -5.3599   23.7605 N.ar    1  UNL1       -0.2539
     27 N           5.8302   -1.1967   29.6433 N.pl3   1  UNL1       -0.3172
     28 H           6.5360   -0.5282   29.7995 H       1  UNL1        0.1482
     29 C           4.4375   -0.7523   29.3071 C.3     1  UNL1        0.0998
     30 C           4.0046   -0.1015   28.0269 C.3     1  UNL1        0.0271
     31 C           2.5328    0.1723   28.1206 C.3     1  UNL1        0.0604
     32 C           2.0560   -0.3094   29.4588 C.3     1  UNL1        0.1412
     33 O           0.6491   -0.2331   29.9734 O.3     1  UNL1       -0.3818
     34 C           3.2333   -0.8808   30.1921 C.3     1  UNL1        0.1549
     35 O           3.2102   -1.4762   31.5687 O.3     1  UNL1       -0.3803
     36 H           0.6099   -0.6135   30.8649 H       1  UNL1        0.2104
     37 H           2.3079   -1.4377   31.9225 H       1  UNL1        0.2105
     38 C           1.6863    0.8148   27.0621 C.3     1  UNL1        0.1396
     39 O           1.0738    2.1620   27.3069 O.3     1  UNL1       -0.3819
     40 H           0.4193    2.0949   28.0196 H       1  UNL1        0.2104
@<TRIPOS>BOND
     1    19    20    1
     2    20    21   ar
     3    21    22   ar
     4    22    17    1
     5    17     1    1
     6     1     2   ar
     7     2     3   ar
     8     3     4   ar
     9     4     7    1
    10     7     8   ar
    11     8     9   ar
    12     9    10   ar
    13    10    11   ar
    14    11    12   ar
    15    12    13   ar
    16    13    14   ar
    17    14    15   ar
    18    15    16   ar
    19     4     5   ar
    20     5    27    1
    21    29    27    1
    22    29    30    1
    23    30    31    1
    24    31    38    1
    25    38    39    1
    26    31    32    1
    27    32    33    1
    28    32    34    1
    29    34    35    1
    30     5     6   ar
    31    22    23   ar
    32    23    24   ar
    33    24    25    1
    34    24    26   ar
    35    26    20   ar
    36     6     1   ar
    37    16     7   ar
    38    34    29    1
    39    15    10   ar
    40    17    18    1
    41    27    28    1
    42    39    40    1
    43    33    36    1
    44    35    37    1
