@<TRIPOS>MOLECULE
*****
 30 34 0 0 0
SMALL
GASTEIGER

@<TRIPOS>ATOM
      1 C         -15.7197   -1.7512   19.7945 C.ar    1  UNL1        0.1171
      2 C         -17.1217   -2.2586   19.6305 C.ar    1  UNL1        0.0978
      3 N         -18.0618   -1.1617   20.0344 N.ar    1  UNL1       -0.3089
      4 C         -17.2408    0.0236   20.4481 C.ar    1  UNL1        0.1521
      5 N         -15.7932   -0.3408   20.2998 N.ar    1  UNL1       -0.2266
      6 C         -17.9173    1.2814   20.9064 C.3     1  UNL1        0.1933
      7 O         -19.4149    1.3541   20.9509 O.3     1  UNL1       -0.3422
      8 C         -20.2360    0.1689   20.5373 C.3     1  UNL1        0.1675
      9 C         -19.5593   -1.0890   20.0790 C.3     1  UNL1        0.1393
     10 C         -12.1765   -5.6537   19.0522 C.2     1  UNL1        0.1350
     11 C         -10.7242   -5.6756   18.6777 C.2     1  UNL1        0.0988
     12 C          -9.9936   -4.3890   18.4316 C.2     1  UNL1        0.0143
     13 C         -10.7153   -3.0802   18.5599 C.2     1  UNL1        0.0162
     14 C         -12.1676   -3.0583   18.9344 C.2     1  UNL1        0.0700
     15 N         -13.1356   -1.9300   19.1344 N.2     1  UNL1       -0.2477
     16 C         -14.4644   -2.5194   19.5042 C.2     1  UNL1        0.0965
     17 C         -14.3178   -4.0120   19.5327 C.2     1  UNL1        0.0077
     18 C         -12.8982   -4.3450   19.1806 C.3     1  UNL1        0.1210
     19 C         -13.6986   -7.5765   18.1944 C.3     1  UNL1        0.2520
     20 O         -12.9071   -6.9404   19.2984 O.2     1  UNL1       -0.4743
     21 C         -10.0024   -6.9844   18.5494 C.1     1  UNL1        0.1032
     22 N          -9.2808   -8.2930   18.4211 N.1     1  UNL1       -0.1907
     23 C         -17.0963    2.4666   21.3200 C.ar    1  UNL1        0.0100
     24 C         -16.2787    3.2048   20.3019 C.ar    1  UNL1       -0.0017
     25 C         -15.4577    4.3901   20.7156 C.ar    1  UNL1        0.0020
     26 C         -15.4542    4.8371   22.1475 C.ar    1  UNL1        0.0293
     27 C         -16.2717    4.0989   23.1656 C.ar    1  UNL1        0.1359
     28 F         -16.2683    4.5458   24.5975 F       1  UNL1       -0.2045
     29 C         -17.0928    2.9137   22.7519 C.ar    1  UNL1        0.0043
     30 C         -17.9103    2.1754   23.7700 C.3     1  UNL1        0.0331
@<TRIPOS>BOND
     1    19    20    1
     2    20    10    1
     3    10    11    2
     4    11    21    1
     5    21    22    3
     6    11    12    1
     7    12    13    2
     8    13    14    1
     9    14    15    2
    10    15    16    1
    11    16     1    1
    12     1     2   ar
    13     2     3   ar
    14     3     4   ar
    15     4     5   ar
    16     4     6    1
    17     6    23    1
    18    23    24   ar
    19    24    25   ar
    20    25    26   ar
    21    26    27   ar
    22    27    28    1
    23    27    29   ar
    24    29    30    1
    25     6     7    1
    26     7     8    1
    27     8     9    1
    28    16    17    2
    29    17    18    1
    30    18    10    1
    31    18    14    1
    32     5     1   ar
    33    29    23   ar
    34     9     3    1
@<TRIPOS>MOLECULE
*****
 30 34 0 0 0
SMALL
GASTEIGER

@<TRIPOS>ATOM
      1 C           6.7821   -4.2652   24.5550 C.ar    1  UNL1        0.1171
      2 C           7.6565   -5.4774   24.4286 C.ar    1  UNL1        0.0978
      3 N           8.2064   -5.7960   25.7873 N.ar    1  UNL1       -0.3089
      4 C           7.6717   -4.7808   26.7535 C.ar    1  UNL1        0.1521
      5 N           6.7915   -3.8347   25.9918 N.ar    1  UNL1       -0.2266
      6 C           8.0555   -4.8490   28.2019 C.3     1  UNL1        0.1933
      7 O           8.9739   -5.9325   28.6843 O.3     1  UNL1       -0.3422
      8 C           9.5086   -6.9477   27.7182 C.3     1  UNL1        0.1675
      9 C           9.1248   -6.8795   26.2696 C.3     1  UNL1        0.1393
     10 C           5.2497   -2.4840   19.7786 C.2     1  UNL1        0.1350
     11 C           4.0849   -1.6669   19.3036 C.2     1  UNL1        0.0988
     12 C           3.0577   -1.1843   20.2842 C.2     1  UNL1        0.0143
     13 C           3.1951   -1.5188   21.7400 C.2     1  UNL1        0.0162
     14 C           4.3598   -2.3359   22.2151 C.2     1  UNL1        0.0700
     15 N           4.7573   -2.8191   23.5784 N.2     1  UNL1       -0.2477
     16 C           6.0303   -3.6003   23.4402 C.2     1  UNL1        0.0965
     17 C           6.4195   -3.6000   21.9916 C.2     1  UNL1        0.0077
     18 C           5.3871   -2.8185   21.2344 C.3     1  UNL1        0.1210
     19 C           7.4912   -2.1335   18.5127 C.3     1  UNL1        0.2520
     20 O           6.2770   -2.9667   18.7980 O.2     1  UNL1       -0.4743
     21 C           3.9476   -1.3325   17.8477 C.1     1  UNL1        0.1032
     22 N           3.8101   -0.9980   16.3920 N.1     1  UNL1       -0.1907
     23 C           7.5209   -3.8338   29.1681 C.ar    1  UNL1        0.0100
     24 C           7.5471   -2.3761   28.8153 C.ar    1  UNL1       -0.0017
     25 C           7.0125   -1.3608   29.7814 C.ar    1  UNL1        0.0020
     26 C           6.4515   -1.8033   31.1004 C.ar    1  UNL1        0.0293
     27 C           6.4252   -3.2610   31.4532 C.ar    1  UNL1        0.1359
     28 F           5.8643   -3.7035   32.7721 F       1  UNL1       -0.2045
     29 C           6.9599   -4.2762   30.4870 C.ar    1  UNL1        0.0043
     30 C           6.9336   -5.7339   30.8398 C.3     1  UNL1        0.0331
@<TRIPOS>BOND
     1    19    20    1
     2    20    10    1
     3    10    11    2
     4    11    21    1
     5    21    22    3
     6    11    12    1
     7    12    13    2
     8    13    14    1
     9    14    15    2
    10    15    16    1
    11    16     1    1
    12     1     2   ar
    13     2     3   ar
    14     3     4   ar
    15     4     5   ar
    16     4     6    1
    17     6    23    1
    18    23    24   ar
    19    24    25   ar
    20    25    26   ar
    21    26    27   ar
    22    27    28    1
    23    27    29   ar
    24    29    30    1
    25     6     7    1
    26     7     8    1
    27     8     9    1
    28    16    17    2
    29    17    18    1
    30    18    10    1
    31    18    14    1
    32     5     1   ar
    33    29    23   ar
    34     9     3    1
@<TRIPOS>MOLECULE
*****
 30 34 0 0 0
SMALL
GASTEIGER

@<TRIPOS>ATOM
      1 C          -0.1701    2.1077   20.1020 C.ar    1  UNL1        0.1171
      2 C          -0.1861    2.8595   18.8040 C.ar    1  UNL1        0.0978
      3 N          -1.3769    3.7715   18.8113 N.ar    1  UNL1       -0.3089
      4 C          -2.0969    3.5835   20.1137 C.ar    1  UNL1        0.1521
      5 N          -1.3510    2.5551   20.9114 N.ar    1  UNL1       -0.2266
      6 C          -3.3387    4.3729   20.4050 C.3     1  UNL1        0.1933
      7 O          -3.8604    5.3504   19.3939 O.3     1  UNL1       -0.3422
      8 C          -3.1405    5.5385   18.0915 C.3     1  UNL1        0.1675
      9 C          -1.8987    4.7490   17.8002 C.3     1  UNL1        0.1393
     10 C           3.4713   -1.7749   20.0842 C.2     1  UNL1        0.1350
     11 C           4.2657   -2.4537   21.1603 C.2     1  UNL1        0.0988
     12 C           4.0911   -2.0445   22.5927 C.2     1  UNL1        0.0143
     13 C           3.1220   -0.9564   22.9492 C.2     1  UNL1        0.0162
     14 C           2.3276   -0.2776   21.8731 C.2     1  UNL1        0.0700
     15 N           1.3053    0.8190   21.9206 N.2     1  UNL1       -0.2477
     16 C           0.8481    1.0876   20.5175 C.2     1  UNL1        0.0965
     17 C           1.5878    0.1569   19.6028 C.2     1  UNL1        0.0077
     18 C           2.5022   -0.6868   20.4406 C.3     1  UNL1        0.1210
     19 C           4.5649   -1.4071   17.7564 C.3     1  UNL1        0.2520
     20 O           3.6459   -2.1841   18.6517 O.2     1  UNL1       -0.4743
     21 C           5.2348   -3.5418   20.8038 C.1     1  UNL1        0.1032
     22 N           6.2039   -4.6298   20.4473 N.1     1  UNL1       -0.1907
     23 C          -4.0586    4.1848   21.7074 C.ar    1  UNL1        0.0100
     24 C          -3.2807    4.0709   22.9848 C.ar    1  UNL1       -0.0017
     25 C          -4.0007    3.8828   24.2872 C.ar    1  UNL1        0.0020
     26 C          -5.4987    3.8086   24.3122 C.ar    1  UNL1        0.0293
     27 C          -6.2767    3.9226   23.0348 C.ar    1  UNL1        0.1359
     28 F          -7.7746    3.8485   23.0597 F       1  UNL1       -0.2045
     29 C          -5.5566    4.1107   21.7324 C.ar    1  UNL1        0.0043
     30 C          -6.3346    4.2246   20.4550 C.3     1  UNL1        0.0331
@<TRIPOS>BOND
     1    19    20    1
     2    20    10    1
     3    10    11    2
     4    11    21    1
     5    21    22    3
     6    11    12    1
     7    12    13    2
     8    13    14    1
     9    14    15    2
    10    15    16    1
    11    16     1    1
    12     1     2   ar
    13     2     3   ar
    14     3     4   ar
    15     4     5   ar
    16     4     6    1
    17     6    23    1
    18    23    24   ar
    19    24    25   ar
    20    25    26   ar
    21    26    27   ar
    22    27    28    1
    23    27    29   ar
    24    29    30    1
    25     6     7    1
    26     7     8    1
    27     8     9    1
    28    16    17    2
    29    17    18    1
    30    18    10    1
    31    18    14    1
    32     5     1   ar
    33    29    23   ar
    34     9     3    1
@<TRIPOS>MOLECULE
*****
 30 34 0 0 0
SMALL
GASTEIGER

@<TRIPOS>ATOM
      1 C           6.4860   -3.2417   22.0681 C.ar    1  UNL1        0.1171
      2 C           7.3485   -3.2881   20.8417 C.ar    1  UNL1        0.0978
      3 N           6.7208   -2.4098   19.8002 N.ar    1  UNL1       -0.3089
      4 C           5.4705   -1.8206   20.3829 C.ar    1  UNL1        0.1521
      5 N           5.3254   -2.3348   21.7846 N.ar    1  UNL1       -0.2266
      6 C           4.6257   -0.8921   19.5619 C.3     1  UNL1        0.1933
      7 O           5.0311   -0.5527   18.1582 O.3     1  UNL1       -0.3422
      8 C           6.2814   -1.1419   17.5754 C.3     1  UNL1        0.1675
      9 C           7.1263   -2.0705   18.3965 C.3     1  UNL1        0.1393
     10 C           6.6725   -4.6333   27.2026 C.2     1  UNL1        0.1350
     11 C           7.2309   -5.8177   27.9343 C.2     1  UNL1        0.0988
     12 C           7.9082   -6.9184   27.1732 C.2     1  UNL1        0.0143
     13 C           8.0272   -6.8350   25.6802 C.2     1  UNL1        0.0162
     14 C           7.4688   -5.6506   24.9485 C.2     1  UNL1        0.0700
     15 N           7.4369   -5.2946   23.4917 N.2     1  UNL1       -0.2477
     16 C           6.7398   -3.9738   23.3525 C.2     1  UNL1        0.0965
     17 C           6.3409   -3.5134   24.7233 C.2     1  UNL1        0.0077
     18 C           6.7915   -4.5498   25.7097 C.3     1  UNL1        0.1210
     19 C           6.7653   -2.3054   28.3524 C.3     1  UNL1        0.2520
     20 O           5.9952   -3.5325   27.9638 O.2     1  UNL1       -0.4743
     21 C           7.1119   -5.9012   29.4273 C.1     1  UNL1        0.1032
     22 N           6.9930   -5.9846   30.9203 N.1     1  UNL1       -0.1907
     23 C           3.3753   -0.3029   20.1447 C.ar    1  UNL1        0.0100
     24 C           2.0580   -0.9921   19.9456 C.ar    1  UNL1       -0.0017
     25 C           0.8077   -0.4030   20.5284 C.ar    1  UNL1        0.0020
     26 C           0.8747    0.8755   21.3102 C.ar    1  UNL1        0.0293
     27 C           2.1921    1.5647   21.5093 C.ar    1  UNL1        0.1359
     28 F           2.2592    2.8431   22.2910 F       1  UNL1       -0.2045
     29 C           3.4424    0.9755   20.9265 C.ar    1  UNL1        0.0043
     30 C           4.7597    1.6647   21.1255 C.3     1  UNL1        0.0331
@<TRIPOS>BOND
     1    19    20    1
     2    20    10    1
     3    10    11    2
     4    11    21    1
     5    21    22    3
     6    11    12    1
     7    12    13    2
     8    13    14    1
     9    14    15    2
    10    15    16    1
    11    16     1    1
    12     1     2   ar
    13     2     3   ar
    14     3     4   ar
    15     4     5   ar
    16     4     6    1
    17     6    23    1
    18    23    24   ar
    19    24    25   ar
    20    25    26   ar
    21    26    27   ar
    22    27    28    1
    23    27    29   ar
    24    29    30    1
    25     6     7    1
    26     7     8    1
    27     8     9    1
    28    16    17    2
    29    17    18    1
    30    18    10    1
    31    18    14    1
    32     5     1   ar
    33    29    23   ar
    34     9     3    1
@<TRIPOS>MOLECULE
*****
 30 34 0 0 0
SMALL
GASTEIGER

@<TRIPOS>ATOM
      1 C           4.6321   -2.2907   23.5088 C.ar    1  UNL1        0.1171
      2 C           5.3295   -3.3907   22.7647 C.ar    1  UNL1        0.0978
      3 N           4.9496   -3.2847   21.3175 N.ar    1  UNL1       -0.3089
      4 C           4.0173   -2.1192   21.1671 C.ar    1  UNL1        0.1521
      5 N           3.8211   -1.5049   22.5215 N.ar    1  UNL1       -0.2266
      6 C           3.4676   -1.7679   19.8164 C.3     1  UNL1        0.1933
      7 O           3.8500   -2.5820   18.6161 O.3     1  UNL1       -0.3422
      8 C           4.7823   -3.7475   18.7663 C.3     1  UNL1        0.1675
      9 C           5.3320   -4.0988   20.1171 C.3     1  UNL1        0.1393
     10 C           3.7148   -0.5489   28.4544 C.2     1  UNL1        0.1350
     11 C           4.4216   -0.7336   29.7645 C.2     1  UNL1        0.0988
     12 C           5.6676   -1.5657   29.8337 C.2     1  UNL1        0.0143
     13 C           6.2071   -2.2132   28.5928 C.2     1  UNL1        0.0162
     14 C           5.5003   -2.0285   27.2827 C.2     1  UNL1        0.0700
     15 N           5.7936   -2.5397   25.9033 N.2     1  UNL1       -0.2477
     16 C           4.7287   -2.0236   24.9816 C.2     1  UNL1        0.0965
     17 C           3.7773   -1.1933   25.7913 C.2     1  UNL1        0.0077
     18 C           4.2542   -1.1964   27.2135 C.3     1  UNL1        0.1210
     19 C           1.1452   -0.3156   28.7590 C.3     1  UNL1        0.2520
     20 O           2.4687    0.2832   28.3852 O.2     1  UNL1       -0.4743
     21 C           3.8821   -0.0861   31.0054 C.1     1  UNL1        0.1032
     22 N           3.3426    0.5613   32.2463 N.1     1  UNL1       -0.1907
     23 C           2.5353   -0.6024   19.6662 C.ar    1  UNL1        0.0100
     24 C           1.1566   -0.6641   20.2539 C.ar    1  UNL1       -0.0017
     25 C           0.2244    0.5014   20.1036 C.ar    1  UNL1        0.0020
     26 C           0.6709    1.7287   19.3656 C.ar    1  UNL1        0.0293
     27 C           2.0496    1.7904   18.7779 C.ar    1  UNL1        0.1359
     28 F           2.4961    3.0176   18.0400 F       1  UNL1       -0.2045
     29 C           2.9818    0.6249   18.9282 C.ar    1  UNL1        0.0043
     30 C           4.3605    0.6866   18.3406 C.3     1  UNL1        0.0331
@<TRIPOS>BOND
     1    19    20    1
     2    20    10    1
     3    10    11    2
     4    11    21    1
     5    21    22    3
     6    11    12    1
     7    12    13    2
     8    13    14    1
     9    14    15    2
    10    15    16    1
    11    16     1    1
    12     1     2   ar
    13     2     3   ar
    14     3     4   ar
    15     4     5   ar
    16     4     6    1
    17     6    23    1
    18    23    24   ar
    19    24    25   ar
    20    25    26   ar
    21    26    27   ar
    22    27    28    1
    23    27    29   ar
    24    29    30    1
    25     6     7    1
    26     7     8    1
    27     8     9    1
    28    16    17    2
    29    17    18    1
    30    18    10    1
    31    18    14    1
    32     5     1   ar
    33    29    23   ar
    34     9     3    1
@<TRIPOS>MOLECULE
*****
 30 34 0 0 0
SMALL
GASTEIGER

@<TRIPOS>ATOM
      1 C           6.6412   -4.4893   24.5292 C.ar    1  UNL1        0.1171
      2 C           7.5322   -5.6911   24.4204 C.ar    1  UNL1        0.0978
      3 N           8.1396   -5.9414   25.7689 N.ar    1  UNL1       -0.3089
      4 C           7.6240   -4.8943   26.7112 C.ar    1  UNL1        0.1521
      5 N           6.6978   -3.9968   25.9449 N.ar    1  UNL1       -0.2266
      6 C           8.0643   -4.8934   28.1450 C.3     1  UNL1        0.1933
      7 O           9.0203   -5.9394   28.6367 O.3     1  UNL1       -0.3422
      8 C           9.5360   -6.9865   27.6946 C.3     1  UNL1        0.1675
      9 C           9.0956   -6.9874   26.2606 C.3     1  UNL1        0.1393
     10 C           3.2507   -1.4973   21.7208 C.2     1  UNL1        0.1350
     11 C           2.8753   -1.4436   20.2695 C.2     1  UNL1        0.0988
     12 C           3.5208   -2.3810   19.2927 C.2     1  UNL1        0.0143
     13 C           4.5418   -3.3724   19.7670 C.2     1  UNL1        0.0162
     14 C           4.9172   -3.4262   21.2182 C.2     1  UNL1        0.0700
     15 N           5.8834   -4.2897   21.9736 N.2     1  UNL1       -0.2477
     16 C           5.8350   -3.8859   23.4175 C.2     1  UNL1        0.0965
     17 C           4.8389   -2.7728   23.5544 C.2     1  UNL1        0.0077
     18 C           4.2716   -2.4886   22.1951 C.3     1  UNL1        0.1210
     19 C           3.2493    0.7583   23.0100 C.3     1  UNL1        0.2520
     20 O           2.6051   -0.5598   22.6977 O.2     1  UNL1       -0.4743
     21 C           1.8543   -0.4522   19.7952 C.1     1  UNL1        0.1032
     22 N           0.8334    0.5391   19.3210 N.1     1  UNL1       -0.1907
     23 C           7.5487   -3.8463   29.0872 C.ar    1  UNL1        0.0100
     24 C           7.6116   -2.3971   28.7052 C.ar    1  UNL1       -0.0017
     25 C           7.0960   -1.3500   29.6474 C.ar    1  UNL1        0.0020
     26 C           6.5173   -1.7521   30.9717 C.ar    1  UNL1        0.0293
     27 C           6.4544   -3.2013   31.3537 C.ar    1  UNL1        0.1359
     28 F           5.8758   -3.6035   32.6779 F       1  UNL1       -0.2045
     29 C           6.9701   -4.2484   30.4114 C.ar    1  UNL1        0.0043
     30 C           6.9071   -5.6975   30.7934 C.3     1  UNL1        0.0331
@<TRIPOS>BOND
     1    19    20    1
     2    20    10    1
     3    10    11    2
     4    11    21    1
     5    21    22    3
     6    11    12    1
     7    12    13    2
     8    13    14    1
     9    14    15    2
    10    15    16    1
    11    16     1    1
    12     1     2   ar
    13     2     3   ar
    14     3     4   ar
    15     4     5   ar
    16     4     6    1
    17     6    23    1
    18    23    24   ar
    19    24    25   ar
    20    25    26   ar
    21    26    27   ar
    22    27    28    1
    23    27    29   ar
    24    29    30    1
    25     6     7    1
    26     7     8    1
    27     8     9    1
    28    16    17    2
    29    17    18    1
    30    18    10    1
    31    18    14    1
    32     5     1   ar
    33    29    23   ar
    34     9     3    1
@<TRIPOS>MOLECULE
*****
 30 34 0 0 0
SMALL
GASTEIGER

@<TRIPOS>ATOM
      1 C           0.3893    1.5865   19.9575 C.ar    1  UNL1        0.1171
      2 C           0.4239    2.3519   18.6680 C.ar    1  UNL1        0.0978
      3 N          -0.7113    3.3323   18.6803 N.ar    1  UNL1       -0.3089
      4 C          -1.4476    3.1727   19.9775 C.ar    1  UNL1        0.1521
      5 N          -0.7673    2.0937   20.7668 N.ar    1  UNL1       -0.2266
      6 C          -2.6422    4.0306   20.2722 C.3     1  UNL1        0.1933
      7 O          -3.1007    5.0480   19.2699 O.3     1  UNL1       -0.3422
      8 C          -2.3645    5.2076   17.9728 C.3     1  UNL1        0.1675
      9 C          -1.1698    4.3497   17.6780 C.3     1  UNL1        0.1393
     10 C           3.6806   -1.5387   22.7388 C.2     1  UNL1        0.1350
     11 C           4.4864   -2.7569   22.3973 C.2     1  UNL1        0.0988
     12 C           4.4449   -3.3180   21.0069 C.2     1  UNL1        0.0143
     13 C           3.5976   -2.6610   19.9578 C.2     1  UNL1        0.0162
     14 C           2.7918   -1.4428   20.2993 C.2     1  UNL1        0.0700
     15 N           1.8712   -0.5866   19.4812 N.2     1  UNL1       -0.2477
     16 C           1.3438    0.5038   20.3660 C.2     1  UNL1        0.0965
     17 C           1.9383    0.3214   21.7310 C.2     1  UNL1        0.0077
     18 C           2.8332   -0.8817   21.6898 C.3     1  UNL1        0.1210
     19 C           4.6266    0.1764   24.4456 C.3     1  UNL1        0.2520
     20 O           3.7220   -0.9775   24.1292 O.2     1  UNL1       -0.4743
     21 C           5.3337   -3.4139   23.4463 C.1     1  UNL1        0.1032
     22 N           6.1810   -4.0708   24.4954 N.1     1  UNL1       -0.1907
     23 C          -3.3784    3.8710   21.5694 C.ar    1  UNL1        0.0100
     24 C          -2.6169    3.7940   22.8594 C.ar    1  UNL1       -0.0017
     25 C          -3.3530    3.6344   24.1566 C.ar    1  UNL1        0.0020
     26 C          -4.8508    3.5517   24.1637 C.ar    1  UNL1        0.0293
     27 C          -5.6123    3.6287   22.8736 C.ar    1  UNL1        0.1359
     28 F          -7.1100    3.5460   22.8807 F       1  UNL1       -0.2045
     29 C          -4.8761    3.7883   21.5765 C.ar    1  UNL1        0.0043
     30 C          -5.6376    3.8652   20.2865 C.3     1  UNL1        0.0331
@<TRIPOS>BOND
     1    19    20    1
     2    20    10    1
     3    10    11    2
     4    11    21    1
     5    21    22    3
     6    11    12    1
     7    12    13    2
     8    13    14    1
     9    14    15    2
    10    15    16    1
    11    16     1    1
    12     1     2   ar
    13     2     3   ar
    14     3     4   ar
    15     4     5   ar
    16     4     6    1
    17     6    23    1
    18    23    24   ar
    19    24    25   ar
    20    25    26   ar
    21    26    27   ar
    22    27    28    1
    23    27    29   ar
    24    29    30    1
    25     6     7    1
    26     7     8    1
    27     8     9    1
    28    16    17    2
    29    17    18    1
    30    18    10    1
    31    18    14    1
    32     5     1   ar
    33    29    23   ar
    34     9     3    1
@<TRIPOS>MOLECULE
*****
 30 34 0 0 0
SMALL
GASTEIGER

@<TRIPOS>ATOM
      1 C           4.3053   -1.4907   25.5648 C.ar    1  UNL1        0.1171
      2 C           5.3291   -1.8428   26.6030 C.ar    1  UNL1        0.0978
      3 N           4.8069   -1.4004   27.9377 N.ar    1  UNL1       -0.3089
      4 C           3.4603   -0.7748   27.7245 C.ar    1  UNL1        0.1521
      5 N           3.1503   -0.8306   26.2579 N.ar    1  UNL1       -0.2266
      6 C           2.6904   -0.2352   28.8933 C.3     1  UNL1        0.1933
      7 O           3.2670   -0.3212   30.2754 O.3     1  UNL1       -0.3422
      8 C           4.6136   -0.9467   30.4887 C.3     1  UNL1        0.1675
      9 C           5.3835   -1.4863   29.3198 C.3     1  UNL1        0.1393
     10 C           3.9574   -1.1018   20.2674 C.2     1  UNL1        0.1350
     11 C           4.4180   -1.9690   19.1335 C.2     1  UNL1        0.0988
     12 C           5.1458   -3.2496   19.4164 C.2     1  UNL1        0.0143
     13 C           5.4131   -3.6632   20.8333 C.2     1  UNL1        0.0162
     14 C           4.9525   -2.7960   21.9673 C.2     1  UNL1        0.0700
     15 N           5.0713   -2.9427   23.4553 N.2     1  UNL1       -0.2477
     16 C           4.4169   -1.7526   24.0921 C.2     1  UNL1        0.0965
     17 C           3.8936   -0.8704   22.9976 C.2     1  UNL1        0.0077
     18 C           4.2247   -1.5153   21.6843 C.3     1  UNL1        0.1210
     19 C           1.7306    0.2147   20.0264 C.3     1  UNL1        0.2520
     20 O           3.2296    0.1789   19.9845 O.2     1  UNL1       -0.4743
     21 C           4.1507   -1.5554   17.7166 C.1     1  UNL1        0.1032
     22 N           3.8835   -1.1418   16.2997 N.1     1  UNL1       -0.1907
     23 C           1.3439    0.3903   28.6800 C.ar    1  UNL1        0.0100
     24 C           0.0990   -0.4213   28.8839 C.ar    1  UNL1       -0.0017
     25 C          -1.2475    0.2042   28.6705 C.ar    1  UNL1        0.0020
     26 C          -1.3492    1.6415   28.2534 C.ar    1  UNL1        0.0293
     27 C          -0.1044    2.4532   28.0495 C.ar    1  UNL1        0.1359
     28 F          -0.2060    3.8904   27.6323 F       1  UNL1       -0.2045
     29 C           1.2421    1.8275   28.2628 C.ar    1  UNL1        0.0043
     30 C           2.4870    2.6392   28.0590 C.3     1  UNL1        0.0331
@<TRIPOS>BOND
     1    19    20    1
     2    20    10    1
     3    10    11    2
     4    11    21    1
     5    21    22    3
     6    11    12    1
     7    12    13    2
     8    13    14    1
     9    14    15    2
    10    15    16    1
    11    16     1    1
    12     1     2   ar
    13     2     3   ar
    14     3     4   ar
    15     4     5   ar
    16     4     6    1
    17     6    23    1
    18    23    24   ar
    19    24    25   ar
    20    25    26   ar
    21    26    27   ar
    22    27    28    1
    23    27    29   ar
    24    29    30    1
    25     6     7    1
    26     7     8    1
    27     8     9    1
    28    16    17    2
    29    17    18    1
    30    18    10    1
    31    18    14    1
    32     5     1   ar
    33    29    23   ar
    34     9     3    1
@<TRIPOS>MOLECULE
*****
 30 34 0 0 0
SMALL
GASTEIGER

@<TRIPOS>ATOM
      1 C           2.3896    0.2675   23.2232 C.ar    1  UNL1        0.1171
      2 C           1.4969    1.2952   22.5930 C.ar    1  UNL1        0.0978
      3 N           1.5019    1.0669   21.1105 N.ar    1  UNL1       -0.3089
      4 C           2.3977   -0.1018   20.8244 C.ar    1  UNL1        0.1521
      5 N           2.9463   -0.5959   22.1302 N.ar    1  UNL1       -0.2266
      6 C           2.5980   -0.5651   19.4119 C.3     1  UNL1        0.1933
      7 O           1.9026    0.1402   18.2854 O.3     1  UNL1       -0.3422
      8 C           1.0069    1.3089   18.5714 C.3     1  UNL1        0.1675
      9 C           0.8066    1.7722   19.9840 C.3     1  UNL1        0.1393
     10 C           2.3740    0.8805   28.5107 C.2     1  UNL1        0.1350
     11 C           3.1158    0.2153   29.6320 C.2     1  UNL1        0.0988
     12 C           4.1043   -0.8732   29.3356 C.2     1  UNL1        0.0143
     13 C           4.3511   -1.2966   27.9178 C.2     1  UNL1        0.0162
     14 C           3.6094   -0.6313   26.7966 C.2     1  UNL1        0.0700
     15 N           3.6431   -0.8349   25.3109 N.2     1  UNL1       -0.2477
     16 C           2.6754    0.1279   24.6891 C.2     1  UNL1        0.0965
     17 C           2.0436    0.9264   25.7905 C.2     1  UNL1        0.0077
     18 C           2.6208    0.4572   27.0930 C.3     1  UNL1        0.1210
     19 C          -0.0846    1.6716   28.7920 C.3     1  UNL1        0.2520
     20 O           1.3855    1.9691   28.8072 O.2     1  UNL1       -0.4743
     21 C           2.8690    0.6387   31.0497 C.1     1  UNL1        0.1032
     22 N           2.6221    1.0620   32.4674 N.1     1  UNL1       -0.1907
     23 C           3.4938   -1.7338   19.1259 C.ar    1  UNL1        0.0100
     24 C           3.0310   -3.1268   19.4350 C.ar    1  UNL1       -0.0017
     25 C           3.9268   -4.2955   19.1490 C.ar    1  UNL1        0.0020
     26 C           5.2853   -4.0712   18.5539 C.ar    1  UNL1        0.0293
     27 C           5.7481   -2.6783   18.2447 C.ar    1  UNL1        0.1359
     28 F           7.1065   -2.4539   17.6496 F       1  UNL1       -0.2045
     29 C           4.8522   -1.5096   18.5307 C.ar    1  UNL1        0.0043
     30 C           5.3150   -0.1167   18.2216 C.3     1  UNL1        0.0331
@<TRIPOS>BOND
     1    19    20    1
     2    20    10    1
     3    10    11    2
     4    11    21    1
     5    21    22    3
     6    11    12    1
     7    12    13    2
     8    13    14    1
     9    14    15    2
    10    15    16    1
    11    16     1    1
    12     1     2   ar
    13     2     3   ar
    14     3     4   ar
    15     4     5   ar
    16     4     6    1
    17     6    23    1
    18    23    24   ar
    19    24    25   ar
    20    25    26   ar
    21    26    27   ar
    22    27    28    1
    23    27    29   ar
    24    29    30    1
    25     6     7    1
    26     7     8    1
    27     8     9    1
    28    16    17    2
    29    17    18    1
    30    18    10    1
    31    18    14    1
    32     5     1   ar
    33    29    23   ar
    34     9     3    1
