@<TRIPOS>MOLECULE
*****
 56 61 0 0 0
SMALL
GASTEIGER

@<TRIPOS>ATOM
      1 C           3.0494    1.3202   26.2206 C.3     1  UNL1        0.1269
      2 O           2.3385    0.0389   25.8999 O.3     1  UNL1       -0.3830
      3 H           2.1018   -0.4146   26.7240 H       1  UNL1        0.2104
      4 C           3.5234    2.2127   25.1121 C.3     1  UNL1        0.0401
      5 C           3.4737    1.7348   23.6912 C.3     1  UNL1        0.0833
      6 O           5.6320    0.6976   22.6833 O.2     1  UNL1       -0.2751
      7 C           4.2650    0.5295   23.2772 C.2     1  UNL1        0.2226
      8 N           3.6890   -0.8438   23.4571 N.am    1  UNL1       -0.2999
      9 H           2.7917   -0.9541   23.8469 H       1  UNL1        0.1498
     10 C           4.4802   -2.0490   23.0431 C.3     1  UNL1        0.1278
     11 C           4.4647   -2.5014   21.6130 C.ar    1  UNL1        0.0320
     12 C           3.6581   -1.7485   20.5969 C.ar    1  UNL1        0.0004
     13 C           3.6426   -2.2009   19.1669 C.ar    1  UNL1       -0.0001
     14 C           4.4338   -3.4061   18.7529 C.ar    1  UNL1        0.0031
     15 C           5.2404   -4.1590   19.7690 C.ar    1  UNL1        0.0366
     16 C           5.2559   -3.7066   21.1991 C.ar    1  UNL1        0.1362
     17 O           6.0625   -4.4596   22.2152 O.3     1  UNL1       -0.4730
     18 C           6.0780   -4.0072   23.6453 C.3     1  UNL1        0.2364
     19 C           5.2868   -2.8019   24.0592 C.3     1  UNL1        0.1762
     20 O           5.3023   -2.3495   25.4893 O.3     1  UNL1       -0.3788
     21 H           5.8681   -2.9413   26.0095 H       1  UNL1        0.2106
     22 C           2.6329    2.4621   22.6842 C.3     1  UNL1        0.0355
     23 C           2.1085    1.7364   21.4808 C.ar    1  UNL1       -0.0217
     24 C           0.9485    0.7954   21.6188 C.ar    1  UNL1       -0.0043
     25 C           0.4241    0.0697   20.4153 C.ar    1  UNL1       -0.0003
     26 C           1.0597    0.2850   19.0738 C.ar    1  UNL1       -0.0000
     27 C           2.2196    1.2260   18.9357 C.ar    1  UNL1       -0.0003
     28 C           2.7440    1.9517   20.1392 C.ar    1  UNL1       -0.0043
     29 C           3.2862    1.7091   27.6499 C.3     1  UNL1        0.1021
     30 N           4.1127    0.8285   28.5396 N.3     1  UNL1       -0.2621
     31 C           5.6023    0.7779   28.3702 C.3     1  UNL1        0.0901
     32 C           6.4288   -0.1026   29.2600 C.3     1  UNL1        0.0900
     33 N           5.7656   -0.9325   30.3191 N.3     1  UNL1       -0.2635
     34 C           4.2761   -0.8819   30.4884 C.3     1  UNL1        0.0980
     35 C           3.4496   -0.0013   29.5987 C.3     1  UNL1        0.1510
     36 C           1.9601    0.0493   29.7680 C.2     1  UNL1        0.2386
     37 O           1.3642    0.7254   30.9671 O.2     1  UNL1       -0.2736
     38 N           1.0665   -0.5761   28.7382 N.am    1  UNL1       -0.2961
     39 H           1.4576   -1.0198   27.9512 H       1  UNL1        0.1497
     40 C          -0.4230   -0.5254   28.9075 C.3     1  UNL1        0.1939
     41 C          -1.2010    0.6346   28.3606 C.3     1  UNL1        0.4154
     42 F          -1.9790    1.7946   27.8136 F       1  UNL1       -0.1682
     43 F          -2.2761    0.3937   29.3785 F       1  UNL1       -0.1682
     44 F          -0.1260    0.8756   27.3426 F       1  UNL1       -0.1682
     45 C           6.5921   -1.8131   31.2088 C.3     1  UNL1        0.1377
     46 C           6.7924   -3.2576   30.8575 C.ar    1  UNL1        0.1390
     47 C           6.7607   -4.4107   31.8164 C.ar    1  UNL1        0.0375
     48 C           7.0083   -5.6684   31.0373 C.ar    1  UNL1        0.0403
     49 C           7.1931   -5.2925   29.5969 C.ar    1  UNL1        0.1450
     50 O           7.0597   -3.8026   29.4858 O.2     1  UNL1       -0.4564
     51 C           7.4638   -6.2402   28.4661 C.ar    1  UNL1        0.0376
     52 C           8.4104   -7.3875   28.6594 C.ar    1  UNL1        0.0237
     53 C           8.6811   -8.3352   27.5286 C.ar    1  UNL1        0.0990
     54 N           8.0051   -8.1355   26.2046 N.ar    1  UNL1       -0.2423
     55 C           7.0584   -6.9881   26.0113 C.ar    1  UNL1        0.0990
     56 C           6.7878   -6.0405   27.1420 C.ar    1  UNL1        0.0237
@<TRIPOS>BOND
     1     6     7    2
     2     7     8   am
     3    10     8    1
     4    10    11    1
     5    11    12   ar
     6    12    13   ar
     7    13    14   ar
     8    14    15   ar
     9    15    16   ar
    10    16    17    1
    11    17    18    1
    12    18    19    1
    13    19    20    1
    14     7     5    1
    15     5    22    1
    16    22    23    1
    17    23    24   ar
    18    24    25   ar
    19    25    26   ar
    20    26    27   ar
    21    27    28   ar
    22     5     4    1
    23     4     1    1
    24     1     2    1
    25     1    29    1
    26    29    30    1
    27    30    31    1
    28    31    32    1
    29    32    33    1
    30    33    45    1
    31    45    46    1
    32    46    47   ar
    33    47    48   ar
    34    48    49   ar
    35    49    51    1
    36    51    52   ar
    37    52    53   ar
    38    53    54   ar
    39    54    55   ar
    40    55    56   ar
    41    49    50   ar
    42    33    34    1
    43    34    35    1
    44    35    36    1
    45    36    37    2
    46    36    38   am
    47    38    40    1
    48    40    41    1
    49    41    42    1
    50    41    43    1
    51    41    44    1
    52    19    10    1
    53    28    23   ar
    54    35    30    1
    55    16    11   ar
    56    50    46   ar
    57    56    51   ar
    58     8     9    1
    59    20    21    1
    60     2     3    1
    61    38    39    1
@<TRIPOS>MOLECULE
*****
 56 61 0 0 0
SMALL
GASTEIGER

@<TRIPOS>ATOM
      1 C           4.8212   -1.9129   27.6129 C.3     1  UNL1        0.1269
      2 O           3.4480   -1.9839   27.0137 O.3     1  UNL1       -0.3830
      3 H           2.9155   -1.2403   27.3367 H       1  UNL1        0.2104
      4 C           5.8439   -2.9555   27.2703 C.3     1  UNL1        0.0401
      5 C           6.5832   -2.8812   25.9674 C.3     1  UNL1        0.0833
      6 O           6.5786   -0.9631   24.2150 O.2     1  UNL1       -0.2751
      7 C           5.9554   -2.2020   24.7864 C.2     1  UNL1        0.2226
      8 N           4.7043   -2.7618   24.1770 N.am    1  UNL1       -0.2999
      9 H           4.2952   -3.5749   24.5520 H       1  UNL1        0.1498
     10 C           4.0764   -2.0826   22.9961 C.3     1  UNL1        0.1278
     11 C           4.4224   -2.5249   21.6051 C.ar    1  UNL1        0.0320
     12 C           5.3962   -3.6463   21.3951 C.ar    1  UNL1        0.0004
     13 C           5.7421   -4.0886   20.0041 C.ar    1  UNL1       -0.0001
     14 C           5.1143   -3.4094   18.8232 C.ar    1  UNL1        0.0031
     15 C           4.1405   -2.2880   19.0333 C.ar    1  UNL1        0.0366
     16 C           3.7945   -1.8458   20.4242 C.ar    1  UNL1        0.1362
     17 O           2.8207   -0.7243   20.6343 O.3     1  UNL1       -0.4730
     18 C           2.4748   -0.2820   22.0252 C.3     1  UNL1        0.2364
     19 C           3.1027   -0.9612   23.2061 C.3     1  UNL1        0.1762
     20 O           2.7567   -0.5190   24.5971 O.3     1  UNL1       -0.3788
     21 H           2.1184    0.2102   24.5551 H       1  UNL1        0.2106
     22 C           7.9504   -3.4861   25.8452 C.3     1  UNL1        0.0355
     23 C           8.1315   -4.7924   25.1306 C.ar    1  UNL1       -0.0217
     24 C           8.4918   -4.8071   23.6746 C.ar    1  UNL1       -0.0043
     25 C           8.6729   -6.1135   22.9600 C.ar    1  UNL1       -0.0003
     26 C           8.4936   -7.4050   23.7013 C.ar    1  UNL1       -0.0000
     27 C           8.1333   -7.3903   25.1573 C.ar    1  UNL1       -0.0003
     28 C           7.9522   -6.0840   25.8720 C.ar    1  UNL1       -0.0043
     29 C           5.1719   -0.7993   28.5548 C.3     1  UNL1        0.1021
     30 N           4.9942   -0.9833   30.0328 N.3     1  UNL1       -0.2621
     31 C           6.0735   -1.6395   30.8421 C.3     1  UNL1        0.0901
     32 C           5.8958   -1.8234   32.3201 C.3     1  UNL1        0.0900
     33 N           4.6389   -1.3511   32.9889 N.3     1  UNL1       -0.2635
     34 C           3.5598   -0.6949   32.1797 C.3     1  UNL1        0.0980
     35 C           3.7374   -0.5110   30.7016 C.3     1  UNL1        0.1510
     36 C           2.6583    0.1451   29.8924 C.2     1  UNL1        0.2386
     37 O           2.6844    1.6283   29.6701 O.2     1  UNL1       -0.2736
     38 N           1.5530   -0.6819   29.3055 N.am    1  UNL1       -0.2961
     39 H           1.5359   -1.6554   29.4514 H       1  UNL1        0.1497
     40 C           0.4739   -0.0258   28.4962 C.3     1  UNL1        0.1939
     41 C          -0.9084    0.1132   29.0620 C.3     1  UNL1        0.4154
     42 F          -2.2906    0.2521   29.6277 F       1  UNL1       -0.1682
     43 F          -1.3438   -1.1011   28.2965 F       1  UNL1       -0.1682
     44 F          -0.4730    1.3274   29.8274 F       1  UNL1       -0.1682
     45 C           4.4612   -1.5350   34.4670 C.3     1  UNL1        0.1377
     46 C           5.0540   -0.5425   35.4228 C.ar    1  UNL1        0.1390
     47 C           6.5069   -0.1877   35.5370 C.ar    1  UNL1        0.0375
     48 C           6.6488    0.8435   36.6171 C.ar    1  UNL1        0.0403
     49 C           5.2835    1.1260   37.1704 C.ar    1  UNL1        0.1450
     50 O           4.2978    0.2694   36.4323 O.2     1  UNL1       -0.4564
     51 C           4.9605    2.0950   38.2689 C.ar    1  UNL1        0.0376
     52 C           3.5664    2.6298   38.4114 C.ar    1  UNL1        0.0237
     53 C           3.2434    3.5988   39.5100 C.ar    1  UNL1        0.0990
     54 N           4.3146    4.0329   40.4659 N.ar    1  UNL1       -0.2423
     55 C           5.7089    3.4981   40.3235 C.ar    1  UNL1        0.0990
     56 C           6.0317    2.5292   39.2250 C.ar    1  UNL1        0.0237
@<TRIPOS>BOND
     1     6     7    2
     2     7     8   am
     3    10     8    1
     4    10    11    1
     5    11    12   ar
     6    12    13   ar
     7    13    14   ar
     8    14    15   ar
     9    15    16   ar
    10    16    17    1
    11    17    18    1
    12    18    19    1
    13    19    20    1
    14     7     5    1
    15     5    22    1
    16    22    23    1
    17    23    24   ar
    18    24    25   ar
    19    25    26   ar
    20    26    27   ar
    21    27    28   ar
    22     5     4    1
    23     4     1    1
    24     1     2    1
    25     1    29    1
    26    29    30    1
    27    30    31    1
    28    31    32    1
    29    32    33    1
    30    33    45    1
    31    45    46    1
    32    46    47   ar
    33    47    48   ar
    34    48    49   ar
    35    49    51    1
    36    51    52   ar
    37    52    53   ar
    38    53    54   ar
    39    54    55   ar
    40    55    56   ar
    41    49    50   ar
    42    33    34    1
    43    34    35    1
    44    35    36    1
    45    36    37    2
    46    36    38   am
    47    38    40    1
    48    40    41    1
    49    41    42    1
    50    41    43    1
    51    41    44    1
    52    19    10    1
    53    28    23   ar
    54    35    30    1
    55    16    11   ar
    56    50    46   ar
    57    56    51   ar
    58     8     9    1
    59    20    21    1
    60     2     3    1
    61    38    39    1
@<TRIPOS>MOLECULE
*****
 56 61 0 0 0
SMALL
GASTEIGER

@<TRIPOS>ATOM
      1 C           4.6780   -1.3749   26.4519 C.3     1  UNL1        0.1269
      2 O           3.2215   -1.6917   26.2843 O.3     1  UNL1       -0.3830
      3 H           2.7049   -1.1925   26.9361 H       1  UNL1        0.2104
      4 C           5.6941   -2.0226   25.5586 C.3     1  UNL1        0.0401
      5 C           5.5885   -1.8719   24.0699 C.3     1  UNL1        0.0833
      6 O           5.2323    0.5332   23.1541 O.2     1  UNL1       -0.2751
      7 C           4.6880   -0.8250   23.4840 C.2     1  UNL1        0.2226
      8 N           3.2432   -1.1365   23.2280 N.am    1  UNL1       -0.2999
      9 H           2.8860   -2.0280   23.4445 H       1  UNL1        0.1498
     10 C           2.3427   -0.0897   22.6421 C.3     1  UNL1        0.1278
     11 C           2.2875    0.1057   21.1559 C.ar    1  UNL1        0.0320
     12 C           3.1328   -0.7457   20.2556 C.ar    1  UNL1        0.0004
     13 C           3.0776   -0.5503   18.7694 C.ar    1  UNL1       -0.0001
     14 C           2.1771    0.4964   18.1835 C.ar    1  UNL1        0.0031
     15 C           1.3318    1.3478   19.0838 C.ar    1  UNL1        0.0366
     16 C           1.3870    1.1524   20.5700 C.ar    1  UNL1        0.1362
     17 O           0.5417    2.0039   21.4703 O.3     1  UNL1       -0.4730
     18 C           0.5969    1.8085   22.9565 C.3     1  UNL1        0.2364
     19 C           1.4974    0.7617   23.5424 C.3     1  UNL1        0.1762
     20 O           1.5526    0.5663   25.0286 O.3     1  UNL1       -0.3788
     21 H           0.9500    1.1923   25.4596 H       1  UNL1        0.2106
     22 C           6.3834   -2.7681   23.1671 C.3     1  UNL1        0.0355
     23 C           5.8562   -3.1221   21.8082 C.ar    1  UNL1       -0.0217
     24 C           6.5564   -2.6234   20.5789 C.ar    1  UNL1       -0.0043
     25 C           6.0291   -2.9775   19.2199 C.ar    1  UNL1       -0.0003
     26 C           4.8018   -3.8300   19.0903 C.ar    1  UNL1       -0.0000
     27 C           4.1017   -4.3286   20.3196 C.ar    1  UNL1       -0.0003
     28 C           4.6289   -3.9747   21.6785 C.ar    1  UNL1       -0.0043
     29 C           5.1185   -0.4103   27.5129 C.3     1  UNL1        0.1021
     30 N           5.1101   -0.8256   28.9543 N.3     1  UNL1       -0.2621
     31 C           6.3061   -1.5129   29.5437 C.3     1  UNL1        0.0901
     32 C           6.2977   -1.9282   30.9850 C.3     1  UNL1        0.0900
     33 N           5.0934   -1.6562   31.8369 N.3     1  UNL1       -0.2635
     34 C           3.8975   -0.9689   31.2475 C.3     1  UNL1        0.0980
     35 C           3.9059   -0.5536   29.8061 C.3     1  UNL1        0.1510
     36 C           2.7100    0.1336   29.2167 C.2     1  UNL1        0.2386
     37 O           2.7021    1.6258   29.0640 O.2     1  UNL1       -0.2736
     38 N           1.5220   -0.6713   28.7799 N.am    1  UNL1       -0.2961
     39 H           1.5272   -1.6507   28.8801 H       1  UNL1        0.1497
     40 C           0.3261    0.0160   28.1904 C.3     1  UNL1        0.1939
     41 C          -0.9423    0.1262   28.9837 C.3     1  UNL1        0.4154
     42 F          -2.2106    0.2365   29.7769 F       1  UNL1       -0.1682
     43 F          -1.4574   -1.1237   28.3339 F       1  UNL1       -0.1682
     44 F          -0.4272    1.3762   29.6335 F       1  UNL1       -0.1682
     45 C           5.0850   -2.0715   33.2783 C.3     1  UNL1        0.1377
     46 C           5.4167   -1.0738   34.3482 C.ar    1  UNL1        0.1390
     47 C           6.7604   -0.4515   34.5875 C.ar    1  UNL1        0.0375
     48 C           6.6371    0.4837   35.7538 C.ar    1  UNL1        0.0403
     49 C           5.2171    0.4393   36.2353 C.ar    1  UNL1        0.1450
     50 O           4.4629   -0.5232   35.3666 O.2     1  UNL1       -0.4564
     51 C           4.6508    1.2204   37.3839 C.ar    1  UNL1        0.0376
     52 C           3.1890    1.1261   37.7068 C.ar    1  UNL1        0.0237
     53 C           2.6228    1.9071   38.8554 C.ar    1  UNL1        0.0990
     54 N           3.5183    2.7825   39.6810 N.ar    1  UNL1       -0.2423
     55 C           4.9801    2.8768   39.3581 C.ar    1  UNL1        0.0990
     56 C           5.5463    2.0958   38.2096 C.ar    1  UNL1        0.0237
@<TRIPOS>BOND
     1     6     7    2
     2     7     8   am
     3    10     8    1
     4    10    11    1
     5    11    12   ar
     6    12    13   ar
     7    13    14   ar
     8    14    15   ar
     9    15    16   ar
    10    16    17    1
    11    17    18    1
    12    18    19    1
    13    19    20    1
    14     7     5    1
    15     5    22    1
    16    22    23    1
    17    23    24   ar
    18    24    25   ar
    19    25    26   ar
    20    26    27   ar
    21    27    28   ar
    22     5     4    1
    23     4     1    1
    24     1     2    1
    25     1    29    1
    26    29    30    1
    27    30    31    1
    28    31    32    1
    29    32    33    1
    30    33    45    1
    31    45    46    1
    32    46    47   ar
    33    47    48   ar
    34    48    49   ar
    35    49    51    1
    36    51    52   ar
    37    52    53   ar
    38    53    54   ar
    39    54    55   ar
    40    55    56   ar
    41    49    50   ar
    42    33    34    1
    43    34    35    1
    44    35    36    1
    45    36    37    2
    46    36    38   am
    47    38    40    1
    48    40    41    1
    49    41    42    1
    50    41    43    1
    51    41    44    1
    52    19    10    1
    53    28    23   ar
    54    35    30    1
    55    16    11   ar
    56    50    46   ar
    57    56    51   ar
    58     8     9    1
    59    20    21    1
    60     2     3    1
    61    38    39    1
@<TRIPOS>MOLECULE
*****
 56 61 0 0 0
SMALL
GASTEIGER

@<TRIPOS>ATOM
      1 C           4.4808   -0.8989   26.1157 C.3     1  UNL1        0.1269
      2 O           3.5241   -2.0019   26.4594 O.3     1  UNL1       -0.3830
      3 H           3.3676   -2.0075   27.4167 H       1  UNL1        0.2104
      4 C           4.8885   -0.6771   24.6893 C.3     1  UNL1        0.0401
      5 C           4.3463   -1.5637   23.6078 C.3     1  UNL1        0.0833
      6 O           4.3573   -3.9325   22.5406 O.2     1  UNL1       -0.2751
      7 C           5.0851   -2.8100   23.2189 C.2     1  UNL1        0.2226
      8 N           6.5517   -2.9336   23.5083 N.am    1  UNL1       -0.2999
      9 H           7.0294   -2.1968   23.9535 H       1  UNL1        0.1498
     10 C           7.2905   -4.1798   23.1195 C.3     1  UNL1        0.1278
     11 C           7.4652   -5.2892   24.1137 C.ar    1  UNL1        0.0320
     12 C           6.9012   -5.1525   25.4969 C.ar    1  UNL1        0.0004
     13 C           7.0759   -6.2619   26.4912 C.ar    1  UNL1       -0.0001
     14 C           7.8147   -7.5081   26.1023 C.ar    1  UNL1        0.0031
     15 C           8.3787   -7.6448   24.7192 C.ar    1  UNL1        0.0366
     16 C           8.2040   -6.5354   23.7249 C.ar    1  UNL1        0.1362
     17 O           8.7681   -6.6721   22.3417 O.3     1  UNL1       -0.4730
     18 C           8.5934   -5.5627   21.3474 C.3     1  UNL1        0.2364
     19 C           7.8545   -4.3165   21.7363 C.3     1  UNL1        0.1762
     20 O           7.6798   -3.2070   20.7420 O.3     1  UNL1       -0.3788
     21 H           8.1007   -3.4547   19.9040 H       1  UNL1        0.2106
     22 C           3.0654   -1.2042   22.9150 C.3     1  UNL1        0.0355
     23 C           3.0815   -0.8012   21.4703 C.ar    1  UNL1       -0.0217
     24 C           1.8019   -0.4315   20.7804 C.ar    1  UNL1       -0.0043
     25 C           1.8181   -0.0285   19.3356 C.ar    1  UNL1       -0.0003
     26 C           3.1139    0.0047   18.5807 C.ar    1  UNL1       -0.0000
     27 C           4.3935   -0.3651   19.2706 C.ar    1  UNL1       -0.0003
     28 C           4.3773   -0.7681   20.7153 C.ar    1  UNL1       -0.0043
     29 C           5.0297   -0.0176   27.1984 C.3     1  UNL1        0.1021
     30 N           5.1362   -0.5330   28.6030 N.3     1  UNL1       -0.2621
     31 C           6.3856   -1.2305   29.0533 C.3     1  UNL1        0.0901
     32 C           6.4920   -1.7460   30.4579 C.3     1  UNL1        0.0900
     33 N           5.3492   -1.5639   31.4123 N.3     1  UNL1       -0.2635
     34 C           4.0999   -0.8664   30.9620 C.3     1  UNL1        0.0980
     35 C           3.9934   -0.3510   29.5574 C.3     1  UNL1        0.1510
     36 C           2.7442    0.3465   29.1071 C.2     1  UNL1        0.2386
     37 O           2.6292    1.8365   29.2357 O.2     1  UNL1       -0.2736
     38 N           1.6098   -0.4461   28.5281 N.am    1  UNL1       -0.2961
     39 H           1.6852   -1.4241   28.4437 H       1  UNL1        0.1497
     40 C           0.3605    0.2514   28.0779 C.3     1  UNL1        0.1939
     41 C          -0.8683    0.2184   28.9375 C.3     1  UNL1        0.4154
     42 F          -2.0971    0.1853   29.7971 F       1  UNL1       -0.1682
     43 F          -0.4067    1.4578   29.6450 F       1  UNL1       -0.1682
     44 F          -1.3299   -1.0211   28.2300 F       1  UNL1       -0.1682
     45 C           5.4556   -2.0793   32.8169 C.3     1  UNL1        0.1377
     46 C           5.8278   -1.1471   33.9317 C.ar    1  UNL1        0.1390
     47 C           7.1774   -0.5304   34.1518 C.ar    1  UNL1        0.0375
     48 C           7.0995    0.3298   35.3781 C.ar    1  UNL1        0.0403
     49 C           5.7018    0.2448   35.9159 C.ar    1  UNL1        0.1450
     50 O           4.9159   -0.6680   35.0220 O.2     1  UNL1       -0.4564
     51 C           5.1814    0.9489   37.1339 C.ar    1  UNL1        0.0376
     52 C           6.0882    1.8399   37.9300 C.ar    1  UNL1        0.0237
     53 C           5.5678    2.5440   39.1479 C.ar    1  UNL1        0.0990
     54 N           4.1406    2.3572   39.5697 N.ar    1  UNL1       -0.2423
     55 C           3.2336    1.4662   38.7736 C.ar    1  UNL1        0.0990
     56 C           3.7541    0.7621   37.5557 C.ar    1  UNL1        0.0237
@<TRIPOS>BOND
     1     6     7    2
     2     7     8   am
     3    10     8    1
     4    10    11    1
     5    11    12   ar
     6    12    13   ar
     7    13    14   ar
     8    14    15   ar
     9    15    16   ar
    10    16    17    1
    11    17    18    1
    12    18    19    1
    13    19    20    1
    14     7     5    1
    15     5    22    1
    16    22    23    1
    17    23    24   ar
    18    24    25   ar
    19    25    26   ar
    20    26    27   ar
    21    27    28   ar
    22     5     4    1
    23     4     1    1
    24     1     2    1
    25     1    29    1
    26    29    30    1
    27    30    31    1
    28    31    32    1
    29    32    33    1
    30    33    45    1
    31    45    46    1
    32    46    47   ar
    33    47    48   ar
    34    48    49   ar
    35    49    51    1
    36    51    52   ar
    37    52    53   ar
    38    53    54   ar
    39    54    55   ar
    40    55    56   ar
    41    49    50   ar
    42    33    34    1
    43    34    35    1
    44    35    36    1
    45    36    37    2
    46    36    38   am
    47    38    40    1
    48    40    41    1
    49    41    42    1
    50    41    43    1
    51    41    44    1
    52    19    10    1
    53    28    23   ar
    54    35    30    1
    55    16    11   ar
    56    50    46   ar
    57    56    51   ar
    58     8     9    1
    59    20    21    1
    60     2     3    1
    61    38    39    1
@<TRIPOS>MOLECULE
*****
 56 61 0 0 0
SMALL
GASTEIGER

@<TRIPOS>ATOM
      1 C           3.4928   -0.7025   30.7270 C.3     1  UNL1        0.1269
      2 O           2.0273   -0.9719   30.5547 O.3     1  UNL1       -0.3830
      3 H           1.7314   -0.6170   29.7018 H       1  UNL1        0.2104
      4 C           4.1971   -1.1544   31.9719 C.3     1  UNL1        0.0401
      5 C           4.1418   -0.3129   33.2123 C.3     1  UNL1        0.0833
      6 O           4.5592    2.2236   32.8356 O.2     1  UNL1       -0.2751
      7 C           3.6228    1.0928   33.1426 C.2     1  UNL1        0.2226
      8 N           2.1674    1.3675   33.3798 N.am    1  UNL1       -0.2999
      9 H           1.5528    0.6253   33.5813 H       1  UNL1        0.1498
     10 C           1.6484    2.7731   33.3100 C.3     1  UNL1        0.1278
     11 C           1.7752    3.6793   34.4986 C.ar    1  UNL1        0.0320
     12 C           2.4211    3.1799   35.7569 C.ar    1  UNL1        0.0004
     13 C           2.5480    4.0861   36.9455 C.ar    1  UNL1       -0.0001
     14 C           2.0290    5.4917   36.8758 C.ar    1  UNL1        0.0031
     15 C           1.3831    5.9911   35.6175 C.ar    1  UNL1        0.0366
     16 C           1.2562    5.0849   34.4289 C.ar    1  UNL1        0.1362
     17 O           0.6103    5.5843   33.1705 O.3     1  UNL1       -0.4730
     18 C           0.4834    4.6781   31.9819 C.3     1  UNL1        0.2364
     19 C           1.0025    3.2725   32.0517 C.3     1  UNL1        0.1762
     20 O           0.8756    2.3663   30.8632 O.3     1  UNL1       -0.3788
     21 H           0.4382    2.8415   30.1395 H       1  UNL1        0.2106
     22 C           4.6054   -0.8771   34.5226 C.3     1  UNL1        0.0355
     23 C           5.1192    0.0387   35.5937 C.ar    1  UNL1       -0.0217
     24 C           4.2753    0.3312   36.7988 C.ar    1  UNL1       -0.0043
     25 C           4.7892    1.2471   37.8699 C.ar    1  UNL1       -0.0003
     26 C           6.1470    1.8704   37.7359 C.ar    1  UNL1       -0.0000
     27 C           6.9909    1.5779   36.5308 C.ar    1  UNL1       -0.0003
     28 C           6.4770    0.6621   35.4597 C.ar    1  UNL1       -0.0043
     29 C           4.2540    0.0188   29.6544 C.3     1  UNL1        0.1021
     30 N           4.5914   -0.6836   28.3727 N.3     1  UNL1       -0.2621
     31 C           5.7776   -1.5997   28.3092 C.3     1  UNL1        0.0901
     32 C           6.1150   -2.3020   27.0275 C.3     1  UNL1        0.0900
     33 N           5.2663   -2.0883   25.8092 N.3     1  UNL1       -0.2635
     34 C           4.0802   -1.1723   25.8727 C.3     1  UNL1        0.0980
     35 C           3.7428   -0.4699   27.1545 C.3     1  UNL1        0.1510
     36 C           2.5567    0.4461   27.2180 C.2     1  UNL1        0.2386
     37 O           2.6878    1.8744   26.7788 O.2     1  UNL1       -0.2736
     38 N           1.2395   -0.0661   27.7207 N.am    1  UNL1       -0.2961
     39 H           1.1534   -1.0035   28.0089 H       1  UNL1        0.1497
     40 C           0.0534    0.8499   27.7842 C.3     1  UNL1        0.1939
     41 C          -1.1825    0.4267   28.5215 C.3     1  UNL1        0.4154
     42 F          -2.4183    0.0036   29.2587 F       1  UNL1       -0.1682
     43 F          -0.4714   -0.8006   29.0092 F       1  UNL1       -0.1682
     44 F          -1.8936    1.6541   28.0338 F       1  UNL1       -0.1682
     45 C           5.6037   -2.7907   24.5275 C.3     1  UNL1        0.1377
     46 C           5.3507   -2.1145   23.2126 C.ar    1  UNL1        0.1390
     47 C           6.3958   -1.6927   22.2226 C.ar    1  UNL1        0.0375
     48 C           5.6993   -1.0589   21.0551 C.ar    1  UNL1        0.0403
     49 C           4.2238   -1.0890   21.3235 C.ar    1  UNL1        0.1450
     50 O           4.0084   -1.7413   22.6569 O.2     1  UNL1       -0.4564
     51 C           3.1519   -0.5596   20.4175 C.ar    1  UNL1        0.0376
     52 C           3.5118   -0.0214   19.0645 C.ar    1  UNL1        0.0237
     53 C           2.4399    0.5080   18.1585 C.ar    1  UNL1        0.0990
     54 N           1.0081    0.4992   18.6056 N.ar    1  UNL1       -0.2423
     55 C           0.6482   -0.0390   19.9587 C.ar    1  UNL1        0.0990
     56 C           1.7201   -0.5684   20.8646 C.ar    1  UNL1        0.0237
@<TRIPOS>BOND
     1     6     7    2
     2     7     8   am
     3    10     8    1
     4    10    11    1
     5    11    12   ar
     6    12    13   ar
     7    13    14   ar
     8    14    15   ar
     9    15    16   ar
    10    16    17    1
    11    17    18    1
    12    18    19    1
    13    19    20    1
    14     7     5    1
    15     5    22    1
    16    22    23    1
    17    23    24   ar
    18    24    25   ar
    19    25    26   ar
    20    26    27   ar
    21    27    28   ar
    22     5     4    1
    23     4     1    1
    24     1     2    1
    25     1    29    1
    26    29    30    1
    27    30    31    1
    28    31    32    1
    29    32    33    1
    30    33    45    1
    31    45    46    1
    32    46    47   ar
    33    47    48   ar
    34    48    49   ar
    35    49    51    1
    36    51    52   ar
    37    52    53   ar
    38    53    54   ar
    39    54    55   ar
    40    55    56   ar
    41    49    50   ar
    42    33    34    1
    43    34    35    1
    44    35    36    1
    45    36    37    2
    46    36    38   am
    47    38    40    1
    48    40    41    1
    49    41    42    1
    50    41    43    1
    51    41    44    1
    52    19    10    1
    53    28    23   ar
    54    35    30    1
    55    16    11   ar
    56    50    46   ar
    57    56    51   ar
    58     8     9    1
    59    20    21    1
    60     2     3    1
    61    38    39    1
@<TRIPOS>MOLECULE
*****
 56 61 0 0 0
SMALL
GASTEIGER

@<TRIPOS>ATOM
      1 C           0.3268    1.9824   19.5058 C.3     1  UNL1        0.1269
      2 O          -0.5885    1.2367   20.4311 O.3     1  UNL1       -0.3830
      3 H          -1.0725    1.8685   20.9857 H       1  UNL1        0.2104
      4 C           1.1916    1.2296   18.5387 C.3     1  UNL1        0.0401
      5 C           2.3962    0.4847   19.0326 C.3     1  UNL1        0.0833
      6 O           3.9546    1.4437   20.8770 O.2     1  UNL1       -0.2751
      7 C           2.7969    0.5788   20.4751 C.2     1  UNL1        0.2226
      8 N           2.0399   -0.1921   21.5156 N.am    1  UNL1       -0.2999
      9 H           1.2801   -0.7598   21.2518 H       1  UNL1        0.1498
     10 C           2.4406   -0.0980   22.9580 C.3     1  UNL1        0.1278
     11 C           3.4974   -1.0118   23.5040 C.ar    1  UNL1        0.0320
     12 C           4.1536   -2.0197   22.6076 C.ar    1  UNL1        0.0004
     13 C           5.2104   -2.9335   23.1536 C.ar    1  UNL1       -0.0001
     14 C           5.6111   -2.8394   24.5960 C.ar    1  UNL1        0.0031
     15 C           4.9549   -1.8315   25.4924 C.ar    1  UNL1        0.0366
     16 C           3.8980   -0.9178   24.9464 C.ar    1  UNL1        0.1362
     17 O           3.2418    0.0901   25.8429 O.3     1  UNL1       -0.4730
     18 C           2.1850    1.0039   25.2969 C.3     1  UNL1        0.2364
     19 C           1.7844    0.9098   23.8544 C.3     1  UNL1        0.1762
     20 O           0.7275    1.8236   23.3084 O.3     1  UNL1       -0.3788
     21 H           0.4098    2.4085   24.0140 H       1  UNL1        0.2106
     22 C           3.2002   -0.3544   18.0841 C.3     1  UNL1        0.0355
     23 C           3.9700   -1.5358   18.5956 C.ar    1  UNL1       -0.0217
     24 C           5.4635   -1.4634   18.7146 C.ar    1  UNL1       -0.0043
     25 C           6.2332   -2.6449   19.2261 C.ar    1  UNL1       -0.0003
     26 C           5.5095   -3.8988   19.6185 C.ar    1  UNL1       -0.0000
     27 C           4.0160   -3.9712   19.4994 C.ar    1  UNL1       -0.0003
     28 C           3.2462   -2.7897   18.9880 C.ar    1  UNL1       -0.0043
     29 C           0.3772    3.4810   19.5475 C.3     1  UNL1        0.1021
     30 N           0.5674    4.1889   20.8563 N.3     1  UNL1       -0.2621
     31 C           1.9494    4.4073   21.3969 C.3     1  UNL1        0.0901
     32 C           2.1396    5.1152   22.7056 C.3     1  UNL1        0.0900
     33 N           0.9477    5.6046   23.4738 N.3     1  UNL1       -0.2635
     34 C          -0.4343    5.3861   22.9331 C.3     1  UNL1        0.0980
     35 C          -0.6245    4.6783   21.6244 C.3     1  UNL1        0.1510
     36 C          -2.0064    4.4599   21.0837 C.2     1  UNL1        0.2386
     37 O          -2.5825    5.4213   20.0868 O.2     1  UNL1       -0.2736
     38 N          -2.8125    3.2799   21.5400 N.am    1  UNL1       -0.2961
     39 H          -2.4345    2.6489   22.1943 H       1  UNL1        0.1497
     40 C          -4.1945    3.0615   20.9994 C.3     1  UNL1        0.1939
     41 C          -5.3905    3.4124   21.8339 C.3     1  UNL1        0.4154
     42 F          -6.5865    3.7634   22.6685 F       1  UNL1       -0.1682
     43 F          -5.9141    4.2724   20.7221 F       1  UNL1       -0.1682
     44 F          -4.8669    2.5525   22.9458 F       1  UNL1       -0.1682
     45 C           1.1379    6.3124   24.7825 C.3     1  UNL1        0.1377
     46 C           0.9566    5.5671   26.0716 C.ar    1  UNL1        0.1390
     47 C           0.9091    6.1747   27.4422 C.ar    1  UNL1        0.0375
     48 C           0.7141    5.0665   28.4341 C.ar    1  UNL1        0.0403
     49 C           0.6410    3.7739   27.6764 C.ar    1  UNL1        0.1450
     50 O           0.7908    4.0833   26.2163 O.2     1  UNL1       -0.4564
     51 C           0.4513    2.4112   28.2740 C.ar    1  UNL1        0.0376
     52 C           1.4605    1.8700   29.2427 C.ar    1  UNL1        0.0237
     53 C           1.2709    0.5072   29.8403 C.ar    1  UNL1        0.0990
     54 N           0.0720   -0.3142   29.4691 N.ar    1  UNL1       -0.2423
     55 C          -0.9373    0.2271   28.5002 C.ar    1  UNL1        0.0990
     56 C          -0.7476    1.5897   27.9028 C.ar    1  UNL1        0.0237
@<TRIPOS>BOND
     1     6     7    2
     2     7     8   am
     3    10     8    1
     4    10    11    1
     5    11    12   ar
     6    12    13   ar
     7    13    14   ar
     8    14    15   ar
     9    15    16   ar
    10    16    17    1
    11    17    18    1
    12    18    19    1
    13    19    20    1
    14     7     5    1
    15     5    22    1
    16    22    23    1
    17    23    24   ar
    18    24    25   ar
    19    25    26   ar
    20    26    27   ar
    21    27    28   ar
    22     5     4    1
    23     4     1    1
    24     1     2    1
    25     1    29    1
    26    29    30    1
    27    30    31    1
    28    31    32    1
    29    32    33    1
    30    33    45    1
    31    45    46    1
    32    46    47   ar
    33    47    48   ar
    34    48    49   ar
    35    49    51    1
    36    51    52   ar
    37    52    53   ar
    38    53    54   ar
    39    54    55   ar
    40    55    56   ar
    41    49    50   ar
    42    33    34    1
    43    34    35    1
    44    35    36    1
    45    36    37    2
    46    36    38   am
    47    38    40    1
    48    40    41    1
    49    41    42    1
    50    41    43    1
    51    41    44    1
    52    19    10    1
    53    28    23   ar
    54    35    30    1
    55    16    11   ar
    56    50    46   ar
    57    56    51   ar
    58     8     9    1
    59    20    21    1
    60     2     3    1
    61    38    39    1
@<TRIPOS>MOLECULE
*****
 56 61 0 0 0
SMALL
GASTEIGER

@<TRIPOS>ATOM
      1 C           0.4339    1.0819   20.1038 C.3     1  UNL1        0.1269
      2 O           0.0279   -0.3081   20.4952 O.3     1  UNL1       -0.3830
      3 H          -0.8978   -0.3051   20.7848 H       1  UNL1        0.2104
      4 C           1.8275    1.3470   19.6165 C.3     1  UNL1        0.0401
      5 C           2.8734    0.2765   19.7164 C.3     1  UNL1        0.0833
      6 O           4.8447    0.6462   21.3679 O.2     1  UNL1       -0.2751
      7 C           3.5355   -0.0046   21.0327 C.2     1  UNL1        0.2226
      8 N           2.8884   -0.9367   22.0138 N.am    1  UNL1       -0.2999
      9 H           2.0291   -1.3639   21.7938 H       1  UNL1        0.1498
     10 C           3.5505   -1.2178   23.3301 C.3     1  UNL1        0.1278
     11 C           4.6607   -2.2232   23.4116 C.ar    1  UNL1        0.0320
     12 C           5.1089   -2.9474   22.1768 C.ar    1  UNL1        0.0004
     13 C           6.2191   -3.9527   22.2583 C.ar    1  UNL1       -0.0001
     14 C           6.8812   -4.2339   23.5746 C.ar    1  UNL1        0.0031
     15 C           6.4330   -3.5097   24.8093 C.ar    1  UNL1        0.0366
     16 C           5.3228   -2.5043   24.7278 C.ar    1  UNL1        0.1362
     17 O           4.8746   -1.7801   25.9627 O.3     1  UNL1       -0.4730
     18 C           3.7644   -0.7748   25.8812 C.3     1  UNL1        0.2364
     19 C           3.1023   -0.4937   24.5648 C.3     1  UNL1        0.1762
     20 O           1.9920    0.5117   24.4833 O.3     1  UNL1       -0.3788
     21 H           1.8280    0.8843   25.3637 H       1  UNL1        0.2106
     22 C           3.2572   -0.5129   18.5000 C.3     1  UNL1        0.0355
     23 C           3.7837   -1.9097   18.6478 C.ar    1  UNL1       -0.0217
     24 C           2.8620   -3.0189   19.0601 C.ar    1  UNL1       -0.0043
     25 C           3.3885   -4.4157   19.2078 C.ar    1  UNL1       -0.0003
     26 C           4.8367   -4.7032   18.9433 C.ar    1  UNL1       -0.0000
     27 C           5.7585   -3.5939   18.5310 C.ar    1  UNL1       -0.0003
     28 C           5.2320   -2.1972   18.3833 C.ar    1  UNL1       -0.0043
     29 C          -0.5538    2.2068   20.1998 C.3     1  UNL1        0.1021
     30 N          -0.9465    2.7475   21.5427 N.3     1  UNL1       -0.2621
     31 C          -0.1183    2.4272   22.7516 C.3     1  UNL1        0.0901
     32 C          -0.5110    2.9679   24.0945 C.3     1  UNL1        0.0900
     33 N          -1.7320    3.8289   24.2285 N.3     1  UNL1       -0.2635
     34 C          -2.5602    4.1492   23.0196 C.3     1  UNL1        0.0980
     35 C          -2.1675    3.6085   21.6767 C.3     1  UNL1        0.1510
     36 C          -2.9957    3.9287   20.4678 C.2     1  UNL1        0.2386
     37 O          -2.5750    5.0304   19.5408 O.2     1  UNL1       -0.2736
     38 N          -4.2447    3.1473   20.1859 N.am    1  UNL1       -0.2961
     39 H          -4.5209    2.4242   20.7943 H       1  UNL1        0.1497
     40 C          -5.0729    3.4676   18.9770 C.3     1  UNL1        0.1939
     41 C          -6.4491    4.0415   19.1412 C.3     1  UNL1        0.4154
     42 F          -7.8252    4.6153   19.3055 F       1  UNL1       -0.1682
     43 F          -5.8551    5.3183   19.6576 F       1  UNL1       -0.1682
     44 F          -7.0431    2.7646   18.6249 F       1  UNL1       -0.1682
     45 C          -2.1247    4.3696   25.5714 C.3     1  UNL1        0.1377
     46 C          -1.2257    4.1644   26.7546 C.ar    1  UNL1        0.1390
     47 C          -0.6600    5.2434   27.6297 C.ar    1  UNL1        0.0375
     48 C           0.1806    4.5901   28.6864 C.ar    1  UNL1        0.0403
     49 C           0.1344    3.1073   28.4644 C.ar    1  UNL1        0.1450
     50 O          -0.7348    2.8443   27.2705 O.2     1  UNL1       -0.4564
     51 C           0.8344    2.0698   29.2911 C.ar    1  UNL1        0.0376
     52 C           1.0387    0.6879   28.7446 C.ar    1  UNL1        0.0237
     53 C           1.7388   -0.3496   29.5713 C.ar    1  UNL1        0.0990
     54 N           2.2345   -0.0052   30.9445 N.ar    1  UNL1       -0.2423
     55 C           2.0302    1.3767   31.4910 C.ar    1  UNL1        0.0990
     56 C           1.3302    2.4141   30.6643 C.ar    1  UNL1        0.0237
@<TRIPOS>BOND
     1     6     7    2
     2     7     8   am
     3    10     8    1
     4    10    11    1
     5    11    12   ar
     6    12    13   ar
     7    13    14   ar
     8    14    15   ar
     9    15    16   ar
    10    16    17    1
    11    17    18    1
    12    18    19    1
    13    19    20    1
    14     7     5    1
    15     5    22    1
    16    22    23    1
    17    23    24   ar
    18    24    25   ar
    19    25    26   ar
    20    26    27   ar
    21    27    28   ar
    22     5     4    1
    23     4     1    1
    24     1     2    1
    25     1    29    1
    26    29    30    1
    27    30    31    1
    28    31    32    1
    29    32    33    1
    30    33    45    1
    31    45    46    1
    32    46    47   ar
    33    47    48   ar
    34    48    49   ar
    35    49    51    1
    36    51    52   ar
    37    52    53   ar
    38    53    54   ar
    39    54    55   ar
    40    55    56   ar
    41    49    50   ar
    42    33    34    1
    43    34    35    1
    44    35    36    1
    45    36    37    2
    46    36    38   am
    47    38    40    1
    48    40    41    1
    49    41    42    1
    50    41    43    1
    51    41    44    1
    52    19    10    1
    53    28    23   ar
    54    35    30    1
    55    16    11   ar
    56    50    46   ar
    57    56    51   ar
    58     8     9    1
    59    20    21    1
    60     2     3    1
    61    38    39    1
@<TRIPOS>MOLECULE
*****
 56 61 0 0 0
SMALL
GASTEIGER

@<TRIPOS>ATOM
      1 C           4.8465   -0.7612   28.5285 C.3     1  UNL1        0.1269
      2 O           4.0002   -1.8732   27.9834 O.3     1  UNL1       -0.3830
      3 H           3.2901   -1.5012   27.4372 H       1  UNL1        0.2104
      4 C           6.0191   -1.0742   29.4100 C.3     1  UNL1        0.0401
      5 C           6.4918   -2.4903   29.5547 C.3     1  UNL1        0.0833
      6 O           8.5014   -3.2097   28.0734 O.2     1  UNL1       -0.2751
      7 C           7.0299   -3.2268   28.3638 C.2     1  UNL1        0.2226
      8 N           6.0964   -3.9803   27.4634 N.am    1  UNL1       -0.2999
      9 H           5.1306   -3.9915   27.6540 H       1  UNL1        0.1498
     10 C           6.6343   -4.7168   26.2725 C.3     1  UNL1        0.1278
     11 C           6.6358   -4.0615   24.9232 C.ar    1  UNL1        0.0320
     12 C           6.0992   -2.6698   24.7648 C.ar    1  UNL1        0.0004
     13 C           6.1006   -2.0145   23.4155 C.ar    1  UNL1       -0.0001
     14 C           6.6386   -2.7509   22.2246 C.ar    1  UNL1        0.0031
     15 C           7.1752   -4.1427   22.3831 C.ar    1  UNL1        0.0366
     16 C           7.1737   -4.7980   23.7324 C.ar    1  UNL1        0.1362
     17 O           7.7103   -6.1898   23.8908 O.3     1  UNL1       -0.4730
     18 C           7.7089   -6.8451   25.2401 C.3     1  UNL1        0.2364
     19 C           7.1709   -6.1085   26.4310 C.3     1  UNL1        0.1762
     20 O           7.1695   -6.7638   27.7803 O.3     1  UNL1       -0.3788
     21 H           7.5474   -7.6542   27.7077 H       1  UNL1        0.2106
     22 C           6.4265   -3.1701   30.8902 C.3     1  UNL1        0.0355
     23 C           6.0720   -2.3821   32.1163 C.ar    1  UNL1       -0.0217
     24 C           7.0955   -1.4936   32.7588 C.ar    1  UNL1       -0.0043
     25 C           6.7408   -0.7056   33.9850 C.ar    1  UNL1       -0.0003
     26 C           5.3627   -0.8062   34.5686 C.ar    1  UNL1       -0.0000
     27 C           4.3392   -1.6948   33.9261 C.ar    1  UNL1       -0.0003
     28 C           4.6938   -2.4827   32.7000 C.ar    1  UNL1       -0.0043
     29 C           4.5202    0.6637   28.1922 C.3     1  UNL1        0.1021
     30 N           3.7208    0.9801   26.9631 N.3     1  UNL1       -0.2621
     31 C           4.4180    1.2312   25.6589 C.3     1  UNL1        0.0901
     32 C           3.6186    1.5476   24.4297 C.3     1  UNL1        0.0900
     33 N           2.1218    1.6127   24.5048 N.3     1  UNL1       -0.2635
     34 C           1.4246    1.3615   25.8089 C.3     1  UNL1        0.0980
     35 C           2.2241    1.0452   27.0380 C.3     1  UNL1        0.1510
     36 C           1.5269    0.7940   28.3421 C.2     1  UNL1        0.2386
     37 O           1.2983   -0.6121   28.8118 O.2     1  UNL1       -0.2736
     38 N           1.0582    1.9490   29.1767 N.am    1  UNL1       -0.2961
     39 H           1.2082    2.8719   28.8685 H       1  UNL1        0.1497
     40 C           0.3610    1.6979   30.4808 C.3     1  UNL1        0.1939
     41 C           0.9603    2.2007   31.7607 C.3     1  UNL1        0.4154
     42 F           1.5595    2.7035   33.0406 F       1  UNL1       -0.1682
     43 F           1.8739    1.0117   31.8001 F       1  UNL1       -0.1682
     44 F           0.0466    3.3896   31.7214 F       1  UNL1       -0.1682
     45 C           1.3224    1.9290   23.2756 C.3     1  UNL1        0.1377
     46 C           1.4472    1.0639   22.0565 C.ar    1  UNL1        0.1390
     47 C           0.3309    0.6755   21.1329 C.ar    1  UNL1        0.0375
     48 C           0.9040   -0.1930   20.0526 C.ar    1  UNL1        0.0403
     49 C           2.3746   -0.3414   20.3085 C.ar    1  UNL1        0.1450
     50 O           2.7103    0.4355   21.5470 O.2     1  UNL1       -0.4564
     51 C           3.3400   -1.1284   19.4726 C.ar    1  UNL1        0.0376
     52 C           3.6796   -2.5403   19.8484 C.ar    1  UNL1        0.0237
     53 C           4.6450   -3.3273   19.0125 C.ar    1  UNL1        0.0990
     54 N           5.2707   -2.7025   17.8010 N.ar    1  UNL1       -0.2423
     55 C           4.9310   -1.2905   17.4252 C.ar    1  UNL1        0.0990
     56 C           3.9657   -0.5036   18.2610 C.ar    1  UNL1        0.0237
@<TRIPOS>BOND
     1     6     7    2
     2     7     8   am
     3    10     8    1
     4    10    11    1
     5    11    12   ar
     6    12    13   ar
     7    13    14   ar
     8    14    15   ar
     9    15    16   ar
    10    16    17    1
    11    17    18    1
    12    18    19    1
    13    19    20    1
    14     7     5    1
    15     5    22    1
    16    22    23    1
    17    23    24   ar
    18    24    25   ar
    19    25    26   ar
    20    26    27   ar
    21    27    28   ar
    22     5     4    1
    23     4     1    1
    24     1     2    1
    25     1    29    1
    26    29    30    1
    27    30    31    1
    28    31    32    1
    29    32    33    1
    30    33    45    1
    31    45    46    1
    32    46    47   ar
    33    47    48   ar
    34    48    49   ar
    35    49    51    1
    36    51    52   ar
    37    52    53   ar
    38    53    54   ar
    39    54    55   ar
    40    55    56   ar
    41    49    50   ar
    42    33    34    1
    43    34    35    1
    44    35    36    1
    45    36    37    2
    46    36    38   am
    47    38    40    1
    48    40    41    1
    49    41    42    1
    50    41    43    1
    51    41    44    1
    52    19    10    1
    53    28    23   ar
    54    35    30    1
    55    16    11   ar
    56    50    46   ar
    57    56    51   ar
    58     8     9    1
    59    20    21    1
    60     2     3    1
    61    38    39    1
@<TRIPOS>MOLECULE
*****
 56 61 0 0 0
SMALL
GASTEIGER

@<TRIPOS>ATOM
      1 C           3.3286   -0.7048   30.8102 C.3     1  UNL1        0.1269
      2 O           1.8598   -0.8998   30.5767 O.3     1  UNL1       -0.3830
      3 H           1.6069   -0.4797   29.7397 H       1  UNL1        0.2104
      4 C           3.9725   -1.2638   32.0442 C.3     1  UNL1        0.0401
      5 C           4.0676   -0.4268   33.2853 C.3     1  UNL1        0.0833
      6 O           4.6679    2.0824   32.9788 O.2     1  UNL1       -0.2751
      7 C           3.6512    1.0139   33.2521 C.2     1  UNL1        0.2226
      8 N           2.2181    1.3861   33.4922 N.am    1  UNL1       -0.2999
      9 H           1.5508    0.6848   33.6716 H       1  UNL1        0.1498
     10 C           1.8016    2.8267   33.4590 C.3     1  UNL1        0.1278
     11 C           1.4222    3.4679   32.1571 C.ar    1  UNL1        0.0320
     12 C           1.4592    2.6685   30.8885 C.ar    1  UNL1        0.0004
     13 C           1.0798    3.3098   29.5866 C.ar    1  UNL1       -0.0001
     14 C           0.6633    4.7504   29.5534 C.ar    1  UNL1        0.0031
     15 C           0.6263    5.5498   30.8220 C.ar    1  UNL1        0.0366
     16 C           1.0057    4.9085   32.1239 C.ar    1  UNL1        0.1362
     17 O           0.9687    5.7080   33.3926 O.3     1  UNL1       -0.4730
     18 C           1.3481    5.0668   34.6945 C.3     1  UNL1        0.2364
     19 C           1.7646    3.6261   34.7277 C.3     1  UNL1        0.1762
     20 O           2.1440    2.9849   36.0295 O.3     1  UNL1       -0.3788
     21 H           2.0662    3.6352   36.7450 H       1  UNL1        0.2106
     22 C           4.5792   -1.0304   34.5597 C.3     1  UNL1        0.0355
     23 C           5.1829   -0.1529   35.6158 C.ar    1  UNL1       -0.0217
     24 C           4.3351    0.3533   36.7450 C.ar    1  UNL1       -0.0043
     25 C           4.9389    1.2309   37.8012 C.ar    1  UNL1       -0.0003
     26 C           6.3904    1.6022   37.7281 C.ar    1  UNL1       -0.0000
     27 C           7.2381    1.0960   36.5989 C.ar    1  UNL1       -0.0003
     28 C           6.6344    0.2185   35.5428 C.ar    1  UNL1       -0.0043
     29 C           4.1535    0.0491   29.8096 C.3     1  UNL1        0.1021
     30 N           4.6305   -0.6351   28.5629 N.3     1  UNL1       -0.2621
     31 C           5.8423   -1.5180   28.6087 C.3     1  UNL1        0.0901
     32 C           6.3193   -2.2023   27.3620 C.3     1  UNL1        0.0900
     33 N           5.5844   -2.0036   26.0695 N.3     1  UNL1       -0.2635
     34 C           4.3727   -1.1208   26.0237 C.3     1  UNL1        0.0980
     35 C           3.8957   -0.4365   27.2704 C.3     1  UNL1        0.1510
     36 C           2.6840    0.4464   27.2246 C.2     1  UNL1        0.2386
     37 O           2.8121    1.8734   26.7806 O.2     1  UNL1       -0.2736
     38 N           1.3440   -0.0978   27.6228 N.am    1  UNL1       -0.2961
     39 H           1.2599   -1.0344   27.9142 H       1  UNL1        0.1497
     40 C           0.1323    0.7851   27.5770 C.3     1  UNL1        0.1939
     41 C          -1.0728    0.4483   28.4044 C.3     1  UNL1        0.4154
     42 F          -2.2779    0.1116   29.2316 F       1  UNL1       -0.1682
     43 F          -0.4405   -0.8545   28.7951 F       1  UNL1       -0.1682
     44 F          -1.7052    1.7511   28.0136 F       1  UNL1       -0.1682
     45 C           6.0614   -2.6879   24.8228 C.3     1  UNL1        0.1377
     46 C           5.3462   -2.4633   23.5235 C.ar    1  UNL1        0.1390
     47 C           4.6357   -3.5089   22.7160 C.ar    1  UNL1        0.0375
     48 C           4.0662   -2.8457   21.4971 C.ar    1  UNL1        0.0403
     49 C           4.4247   -1.3901   21.5513 C.ar    1  UNL1        0.1450
     50 O           5.2158   -1.1538   22.8037 O.2     1  UNL1       -0.4564
     51 C           4.0568   -0.3529   20.5320 C.ar    1  UNL1        0.0376
     52 C           4.3619    1.0930   20.7894 C.ar    1  UNL1        0.0237
     53 C           3.9940    2.1302   19.7702 C.ar    1  UNL1        0.0990
     54 N           3.3210    1.7214   18.4935 N.ar    1  UNL1       -0.2423
     55 C           3.0158    0.2755   18.2361 C.ar    1  UNL1        0.0990
     56 C           3.3838   -0.7616   19.2553 C.ar    1  UNL1        0.0237
@<TRIPOS>BOND
     1     6     7    2
     2     7     8   am
     3    10     8    1
     4    10    11    1
     5    11    12   ar
     6    12    13   ar
     7    13    14   ar
     8    14    15   ar
     9    15    16   ar
    10    16    17    1
    11    17    18    1
    12    18    19    1
    13    19    20    1
    14     7     5    1
    15     5    22    1
    16    22    23    1
    17    23    24   ar
    18    24    25   ar
    19    25    26   ar
    20    26    27   ar
    21    27    28   ar
    22     5     4    1
    23     4     1    1
    24     1     2    1
    25     1    29    1
    26    29    30    1
    27    30    31    1
    28    31    32    1
    29    32    33    1
    30    33    45    1
    31    45    46    1
    32    46    47   ar
    33    47    48   ar
    34    48    49   ar
    35    49    51    1
    36    51    52   ar
    37    52    53   ar
    38    53    54   ar
    39    54    55   ar
    40    55    56   ar
    41    49    50   ar
    42    33    34    1
    43    34    35    1
    44    35    36    1
    45    36    37    2
    46    36    38   am
    47    38    40    1
    48    40    41    1
    49    41    42    1
    50    41    43    1
    51    41    44    1
    52    19    10    1
    53    28    23   ar
    54    35    30    1
    55    16    11   ar
    56    50    46   ar
    57    56    51   ar
    58     8     9    1
    59    20    21    1
    60     2     3    1
    61    38    39    1
