@<TRIPOS>MOLECULE
*****
 27 29 0 0 0
SMALL
GASTEIGER

@<TRIPOS>ATOM
      1 N          -0.9985    3.2153   20.0297 N.am    1  UNL1       -0.2987
      2 C          -0.1733    2.6132   18.9314 C.2     1  UNL1        0.2460
      3 O          -0.2343    3.1869   17.5467 O.2     1  UNL1       -0.2701
      4 H          -0.9585    2.8388   20.9385 H       1  UNL1        0.1500
      5 C           0.7130    1.4373   19.2176 C.ar    1  UNL1        0.0534
      6 C           1.9611    1.2255   18.4130 C.ar    1  UNL1        0.0045
      7 C           2.8473    0.0496   18.6992 C.ar    1  UNL1        0.0001
      8 C           2.4855   -0.9144   19.7900 C.ar    1  UNL1        0.0002
      9 C           1.2374   -0.7025   20.5946 C.ar    1  UNL1        0.0001
     10 C           0.3511    0.4734   20.3084 C.ar    1  UNL1        0.0045
     11 C           3.3717   -2.0902   20.0763 C.ar    1  UNL1        0.0054
     12 C           4.0247   -2.2278   21.4197 C.ar    1  UNL1        0.0208
     13 C           4.9110   -3.4036   21.7059 C.ar    1  UNL1        0.1013
     14 N           5.1442   -4.4419   20.6487 N.ar    1  UNL1       -0.2165
     15 C           4.4912   -4.3044   19.3054 C.ar    1  UNL1        0.2223
     16 F           4.7244   -5.3427   18.2482 F       1  UNL1       -0.1832
     17 C           3.6049   -3.1285   19.0192 C.ar    1  UNL1        0.0497
     18 C          -1.8848    4.3912   19.7435 C.3     1  UNL1        0.0945
     19 C          -1.3001    5.7705   19.6691 C.3     1  UNL1        0.0262
     20 C          -5.7757    4.1144   20.4742 C.ar    1  UNL1        0.1385
     21 C          -6.2976    3.7807   19.1081 C.ar    1  UNL1        0.0369
     22 C          -5.3486    3.6504   17.9538 C.ar    1  UNL1        0.0028
     23 C          -3.8777    3.8539   18.1656 C.ar    1  UNL1       -0.0025
     24 C          -3.3558    4.1877   19.5317 C.ar    1  UNL1       -0.0015
     25 C          -4.3048    4.3179   20.6860 C.ar    1  UNL1        0.0342
     26 C          -6.2351    4.0300   23.0299 C.3     1  UNL1        0.2525
     27 O          -6.7248    4.2447   21.6285 O.3     1  UNL1       -0.4714
@<TRIPOS>BOND
     1    26    27    1
     2    27    20    1
     3    20    21   ar
     4    21    22   ar
     5    22    23   ar
     6    23    24   ar
     7    24    18    1
     8    18    19    1
     9    18     1    1
    10     1     2   am
    11     2     3    2
    12     2     5    1
    13     5     6   ar
    14     6     7   ar
    15     7     8   ar
    16     8    11    1
    17    11    12   ar
    18    12    13   ar
    19    13    14   ar
    20    14    15   ar
    21    15    16    1
    22    15    17   ar
    23     8     9   ar
    24     9    10   ar
    25    24    25   ar
    26    25    20   ar
    27    10     5   ar
    28    17    11   ar
    29     1     4    1
@<TRIPOS>MOLECULE
*****
 27 29 0 0 0
SMALL
GASTEIGER

@<TRIPOS>ATOM
      1 N          -1.8502    2.3807   20.6902 N.am    1  UNL1       -0.2987
      2 C          -0.4430    2.5418   21.1838 C.2     1  UNL1        0.2460
      3 O           0.0086    3.8570   21.7463 O.2     1  UNL1       -0.2701
      4 H          -2.1466    1.5175   20.3210 H       1  UNL1        0.1500
      5 C           0.5127    1.3877   21.1150 C.ar    1  UNL1        0.0534
      6 C           1.4100    1.0866   22.2788 C.ar    1  UNL1        0.0045
      7 C           2.3657   -0.0675   22.2100 C.ar    1  UNL1        0.0001
      8 C           2.4241   -0.9204   20.9774 C.ar    1  UNL1        0.0002
      9 C           1.5269   -0.6192   19.8137 C.ar    1  UNL1        0.0001
     10 C           0.5712    0.5348   19.8825 C.ar    1  UNL1        0.0045
     11 C           3.3798   -2.0745   20.9086 C.ar    1  UNL1        0.0054
     12 C           4.2283   -2.4175   22.0971 C.ar    1  UNL1        0.0208
     13 C           5.1840   -3.5716   22.0283 C.ar    1  UNL1        0.1013
     14 N           5.2912   -4.3826   20.7709 N.ar    1  UNL1       -0.2165
     15 C           4.4428   -4.0396   19.5825 C.ar    1  UNL1        0.2223
     16 F           4.5500   -4.8506   18.3252 F       1  UNL1       -0.1832
     17 C           3.4871   -2.8855   19.6513 C.ar    1  UNL1        0.0497
     18 C          -2.8059    3.5348   20.7590 C.3     1  UNL1        0.0945
     19 C          -2.8135    4.5681   19.6718 C.3     1  UNL1        0.0262
     20 C          -4.1773    3.7622   24.4762 C.ar    1  UNL1        0.1385
     21 C          -5.6503    3.8967   24.2272 C.ar    1  UNL1        0.0369
     22 C          -6.1753    3.9106   22.8221 C.ar    1  UNL1        0.0028
     23 C          -5.2272    3.7899   21.6660 C.ar    1  UNL1       -0.0025
     24 C          -3.7541    3.6554   21.9151 C.ar    1  UNL1       -0.0015
     25 C          -3.2292    3.6416   23.3202 C.ar    1  UNL1        0.0342
     26 C          -4.3884    4.4803   26.9641 C.3     1  UNL1        0.2525
     27 O          -3.6524    3.7484   25.8813 O.3     1  UNL1       -0.4714
@<TRIPOS>BOND
     1    26    27    1
     2    27    20    1
     3    20    21   ar
     4    21    22   ar
     5    22    23   ar
     6    23    24   ar
     7    24    18    1
     8    18    19    1
     9    18     1    1
    10     1     2   am
    11     2     3    2
    12     2     5    1
    13     5     6   ar
    14     6     7   ar
    15     7     8   ar
    16     8    11    1
    17    11    12   ar
    18    12    13   ar
    19    13    14   ar
    20    14    15   ar
    21    15    16    1
    22    15    17   ar
    23     8     9   ar
    24     9    10   ar
    25    24    25   ar
    26    25    20   ar
    27    10     5   ar
    28    17    11   ar
    29     1     4    1
@<TRIPOS>MOLECULE
*****
 27 29 0 0 0
SMALL
GASTEIGER

@<TRIPOS>ATOM
      1 N          -1.7523    2.4188   20.8547 N.am    1  UNL1       -0.2987
      2 C          -0.3457    2.5575   21.3569 C.2     1  UNL1        0.2460
      3 O           0.1116    3.8535   21.9581 O.2     1  UNL1       -0.2701
      4 H          -2.0525    1.5682   20.4601 H       1  UNL1        0.1500
      5 C           0.6036    1.4004   21.2578 C.ar    1  UNL1        0.0534
      6 C           0.4473    0.3943   20.1563 C.ar    1  UNL1        0.0045
      7 C           1.3967   -0.7629   20.0572 C.ar    1  UNL1        0.0001
      8 C           2.5022   -0.9139   21.0598 C.ar    1  UNL1        0.0002
      9 C           2.6584    0.0922   22.1612 C.ar    1  UNL1        0.0001
     10 C           1.7091    1.2494   22.2603 C.ar    1  UNL1        0.0045
     11 C           3.4516   -2.0710   20.9607 C.ar    1  UNL1        0.0054
     12 C           4.3014   -2.4468   22.1383 C.ar    1  UNL1        0.0208
     13 C           5.2508   -3.6039   22.0393 C.ar    1  UNL1        0.1013
     14 N           5.3502   -4.3853   20.7627 N.ar    1  UNL1       -0.2165
     15 C           4.5004   -4.0095   19.5852 C.ar    1  UNL1        0.2223
     16 F           4.5998   -4.7909   18.3086 F       1  UNL1       -0.1832
     17 C           3.5510   -2.8524   19.6842 C.ar    1  UNL1        0.0497
     18 C          -2.7017    3.5759   20.9537 C.3     1  UNL1        0.0945
     19 C          -2.7408    4.6090   19.8670 C.3     1  UNL1        0.0262
     20 C          -5.9986    3.9937   23.1230 C.ar    1  UNL1        0.1385
     21 C          -5.4322    3.9479   24.5112 C.ar    1  UNL1        0.0369
     22 C          -3.9557    3.7780   24.7136 C.ar    1  UNL1        0.0028
     23 C          -3.0455    3.6541   23.5278 C.ar    1  UNL1       -0.0025
     24 C          -3.6118    3.6999   22.1396 C.ar    1  UNL1       -0.0015
     25 C          -5.0884    3.8697   21.9372 C.ar    1  UNL1        0.0342
     26 C          -8.3138    4.7821   23.9995 C.3     1  UNL1        0.2525
     27 O          -7.4751    4.1636   22.9206 O.3     1  UNL1       -0.4714
@<TRIPOS>BOND
     1    26    27    1
     2    27    20    1
     3    20    21   ar
     4    21    22   ar
     5    22    23   ar
     6    23    24   ar
     7    24    18    1
     8    18    19    1
     9    18     1    1
    10     1     2   am
    11     2     3    2
    12     2     5    1
    13     5     6   ar
    14     6     7   ar
    15     7     8   ar
    16     8    11    1
    17    11    12   ar
    18    12    13   ar
    19    13    14   ar
    20    14    15   ar
    21    15    16    1
    22    15    17   ar
    23     8     9   ar
    24     9    10   ar
    25    24    25   ar
    26    25    20   ar
    27    10     5   ar
    28    17    11   ar
    29     1     4    1
@<TRIPOS>MOLECULE
*****
 27 29 0 0 0
SMALL
GASTEIGER

@<TRIPOS>ATOM
      1 N          -0.5696    2.9146   17.4538 N.am    1  UNL1       -0.2987
      2 C           0.2228    2.8453   18.7255 C.2     1  UNL1        0.2460
      3 O           0.2369    4.0145   19.6651 O.2     1  UNL1       -0.2701
      4 H          -0.5789    2.1472   16.8372 H       1  UNL1        0.1500
      5 C           1.0012    1.6068   19.0576 C.ar    1  UNL1        0.0534
      6 C           0.4807    0.6472   20.0864 C.ar    1  UNL1        0.0045
      7 C           1.2591   -0.5912   20.4186 C.ar    1  UNL1        0.0001
      8 C           2.5580   -0.8701   19.7220 C.ar    1  UNL1        0.0002
      9 C           3.0785    0.0895   18.6933 C.ar    1  UNL1        0.0001
     10 C           2.3001    1.3280   18.3611 C.ar    1  UNL1        0.0045
     11 C           3.3364   -2.1085   20.0541 C.ar    1  UNL1        0.0054
     12 C           3.8094   -2.3431   21.4582 C.ar    1  UNL1        0.0208
     13 C           4.5878   -3.5815   21.7904 C.ar    1  UNL1        0.1013
     14 N           4.8932   -4.5854   20.7184 N.ar    1  UNL1       -0.2165
     15 C           4.4203   -4.3508   19.3144 C.ar    1  UNL1        0.2223
     16 F           4.7257   -5.3547   18.2425 F       1  UNL1       -0.1832
     17 C           3.6419   -3.1124   18.9823 C.ar    1  UNL1        0.0497
     18 C          -1.3480    4.1530   17.1217 C.3     1  UNL1        0.0945
     19 C          -0.6841    5.2831   16.3923 C.3     1  UNL1        0.0262
     20 C          -4.6431    4.0956   19.3328 C.ar    1  UNL1        0.1385
     21 C          -5.6751    4.4780   18.3136 C.ar    1  UNL1        0.0369
     22 C          -5.2647    4.7521   16.8971 C.ar    1  UNL1        0.0028
     23 C          -3.8224    4.6437   16.4998 C.ar    1  UNL1       -0.0025
     24 C          -2.7904    4.2614   17.5190 C.ar    1  UNL1       -0.0015
     25 C          -3.2008    3.9873   18.9355 C.ar    1  UNL1        0.0342
     26 C          -6.3745    4.3188   21.2570 C.3     1  UNL1        0.2525
     27 O          -5.0535    3.8216   20.7493 O.3     1  UNL1       -0.4714
@<TRIPOS>BOND
     1    26    27    1
     2    27    20    1
     3    20    21   ar
     4    21    22   ar
     5    22    23   ar
     6    23    24   ar
     7    24    18    1
     8    18    19    1
     9    18     1    1
    10     1     2   am
    11     2     3    2
    12     2     5    1
    13     5     6   ar
    14     6     7   ar
    15     7     8   ar
    16     8    11    1
    17    11    12   ar
    18    12    13   ar
    19    13    14   ar
    20    14    15   ar
    21    15    16    1
    22    15    17   ar
    23     8     9   ar
    24     9    10   ar
    25    24    25   ar
    26    25    20   ar
    27    10     5   ar
    28    17    11   ar
    29     1     4    1
@<TRIPOS>MOLECULE
*****
 27 29 0 0 0
SMALL
GASTEIGER

@<TRIPOS>ATOM
      1 N         -15.7363    0.2110   18.8819 N.am    1  UNL1       -0.2987
      2 C         -14.2546    0.1453   18.6578 C.2     1  UNL1        0.2460
      3 O         -13.4548    1.4102   18.5547 O.2     1  UNL1       -0.2701
      4 H         -16.2612   -0.6191   18.9495 H       1  UNL1        0.1500
      5 C         -13.5726   -1.1852   18.5367 C.ar    1  UNL1        0.0534
      6 C         -12.0814   -1.2785   18.6699 C.ar    1  UNL1        0.0045
      7 C         -11.3994   -2.6090   18.5488 C.ar    1  UNL1        0.0001
      8 C         -12.2087   -3.8462   18.2946 C.ar    1  UNL1        0.0002
      9 C         -13.6998   -3.7528   18.1614 C.ar    1  UNL1        0.0001
     10 C         -14.3818   -2.4223   18.2824 C.ar    1  UNL1        0.0045
     11 C         -11.5267   -5.1767   18.1735 C.ar    1  UNL1        0.0054
     12 C         -11.9729   -6.1559   17.1284 C.ar    1  UNL1        0.0208
     13 C         -11.2910   -7.4864   17.0073 C.ar    1  UNL1        0.1013
     14 N         -10.1628   -7.8377   17.9314 N.ar    1  UNL1       -0.2165
     15 C          -9.7166   -6.8586   18.9764 C.ar    1  UNL1        0.2223
     16 F          -8.5884   -7.2099   19.9005 F       1  UNL1       -0.1832
     17 C         -10.3985   -5.5281   19.0975 C.ar    1  UNL1        0.0497
     18 C         -16.4182    1.5415   19.0029 C.3     1  UNL1        0.0945
     19 C         -17.0506    2.1726   17.7980 C.3     1  UNL1        0.0262
     20 C         -17.3627    2.3870   22.7637 C.ar    1  UNL1        0.1385
     21 C         -16.5670    3.6398   22.9810 C.ar    1  UNL1        0.0369
     22 C         -15.7217    4.1932   21.8723 C.ar    1  UNL1        0.0028
     23 C         -15.6721    3.4938   20.5463 C.ar    1  UNL1       -0.0025
     24 C         -16.4678    2.2410   20.3290 C.ar    1  UNL1       -0.0015
     25 C         -17.3131    1.6876   21.4377 C.ar    1  UNL1        0.0342
     26 C         -19.4882    2.5170   24.2522 C.3     1  UNL1        0.2525
     27 O         -18.2080    1.8336   23.8724 O.3     1  UNL1       -0.4714
@<TRIPOS>BOND
     1    26    27    1
     2    27    20    1
     3    20    21   ar
     4    21    22   ar
     5    22    23   ar
     6    23    24   ar
     7    24    18    1
     8    18    19    1
     9    18     1    1
    10     1     2   am
    11     2     3    2
    12     2     5    1
    13     5     6   ar
    14     6     7   ar
    15     7     8   ar
    16     8    11    1
    17    11    12   ar
    18    12    13   ar
    19    13    14   ar
    20    14    15   ar
    21    15    16    1
    22    15    17   ar
    23     8     9   ar
    24     9    10   ar
    25    24    25   ar
    26    25    20   ar
    27    10     5   ar
    28    17    11   ar
    29     1     4    1
@<TRIPOS>MOLECULE
*****
 27 29 0 0 0
SMALL
GASTEIGER

@<TRIPOS>ATOM
      1 N          -1.6059    2.4703   21.0670 N.am    1  UNL1       -0.2987
      2 C          -0.4492    2.6842   20.1364 C.2     1  UNL1        0.2460
      3 O          -0.2630    4.0122   19.4642 O.2     1  UNL1       -0.2701
      4 H          -1.7281    1.5987   21.5082 H       1  UNL1        0.1500
      5 C           0.5214    1.5702   19.8779 C.ar    1  UNL1        0.0534
      6 C           1.4642    1.6517   18.7139 C.ar    1  UNL1        0.0045
      7 C           2.4348    0.5377   18.4554 C.ar    1  UNL1        0.0001
      8 C           2.4626   -0.6579   19.3609 C.ar    1  UNL1        0.0002
      9 C           1.5200   -0.7395   20.5247 C.ar    1  UNL1        0.0001
     10 C           0.5494    0.3746   20.7832 C.ar    1  UNL1        0.0045
     11 C           3.4332   -1.7720   19.1024 C.ar    1  UNL1        0.0054
     12 C           4.7727   -1.4742   18.4962 C.ar    1  UNL1        0.0208
     13 C           5.7433   -2.5883   18.2377 C.ar    1  UNL1        0.1013
     14 N           5.3745   -4.0001   18.5854 N.ar    1  UNL1       -0.2165
     15 C           4.0351   -4.2978   19.1915 C.ar    1  UNL1        0.2223
     16 F           3.6663   -5.7096   19.5392 F       1  UNL1       -0.1832
     17 C           3.0645   -3.1838   19.4500 C.ar    1  UNL1        0.0497
     18 C          -2.5765    3.5843   21.3255 C.3     1  UNL1        0.0945
     19 C          -2.3027    4.5804   22.4131 C.3     1  UNL1        0.0262
     20 C          -4.9659    3.9025   18.1727 C.ar    1  UNL1        0.1385
     21 C          -6.3098    3.9383   18.8380 C.ar    1  UNL1        0.0369
     22 C          -6.4093    3.8561   20.3325 C.ar    1  UNL1        0.0028
     23 C          -5.1649    3.7381   21.1616 C.ar    1  UNL1       -0.0025
     24 C          -3.8210    3.7023   20.4963 C.ar    1  UNL1       -0.0015
     25 C          -3.7215    3.7845   19.0019 C.ar    1  UNL1        0.0342
     26 C          -3.6231    3.5158   15.9825 C.3     1  UNL1        0.2525
     27 O          -4.8664    3.9847   16.6783 O.3     1  UNL1       -0.4714
@<TRIPOS>BOND
     1    26    27    1
     2    27    20    1
     3    20    21   ar
     4    21    22   ar
     5    22    23   ar
     6    23    24   ar
     7    24    18    1
     8    18    19    1
     9    18     1    1
    10     1     2   am
    11     2     3    2
    12     2     5    1
    13     5     6   ar
    14     6     7   ar
    15     7     8   ar
    16     8    11    1
    17    11    12   ar
    18    12    13   ar
    19    13    14   ar
    20    14    15   ar
    21    15    16    1
    22    15    17   ar
    23     8     9   ar
    24     9    10   ar
    25    24    25   ar
    26    25    20   ar
    27    10     5   ar
    28    17    11   ar
    29     1     4    1
@<TRIPOS>MOLECULE
*****
 27 29 0 0 0
SMALL
GASTEIGER

@<TRIPOS>ATOM
      1 N          -1.8381    2.4628   20.8613 N.am    1  UNL1       -0.2987
      2 C          -0.4115    2.6005   21.3037 C.2     1  UNL1        0.2460
      3 O           0.0764    3.9016   21.8688 O.2     1  UNL1       -0.2701
      4 H          -2.1582    1.6089   20.4904 H       1  UNL1        0.1500
      5 C           0.5274    1.4370   21.1811 C.ar    1  UNL1        0.0534
      6 C           0.5319    0.6052   19.9328 C.ar    1  UNL1        0.0045
      7 C           1.4707   -0.5582   19.8102 C.ar    1  UNL1        0.0001
      8 C           2.4050   -0.8898   20.9359 C.ar    1  UNL1        0.0002
      9 C           2.4005   -0.0580   22.1841 C.ar    1  UNL1        0.0001
     10 C           1.4617    1.1054   22.3067 C.ar    1  UNL1        0.0045
     11 C           3.3439   -2.0532   20.8133 C.ar    1  UNL1        0.0054
     12 C           3.5086   -2.7483   19.4943 C.ar    1  UNL1        0.0208
     13 C           4.4475   -3.9117   19.3717 C.ar    1  UNL1        0.1013
     14 N           5.2216   -4.3801   20.5681 N.ar    1  UNL1       -0.2165
     15 C           5.0568   -3.6851   21.8871 C.ar    1  UNL1        0.2223
     16 F           5.8309   -4.1534   23.0836 F       1  UNL1       -0.1832
     17 C           4.1180   -2.5216   22.0097 C.ar    1  UNL1        0.0497
     18 C          -2.7769    3.6263   20.9839 C.3     1  UNL1        0.0945
     19 C          -2.8002    4.6863   19.9228 C.3     1  UNL1        0.0262
     20 C          -4.0480    3.7626   24.7410 C.ar    1  UNL1        0.1385
     21 C          -5.5235    3.9364   24.5349 C.ar    1  UNL1        0.0369
     22 C          -6.0835    4.0069   23.1452 C.ar    1  UNL1        0.0028
     23 C          -5.1680    3.9035   21.9615 C.ar    1  UNL1       -0.0025
     24 C          -3.6925    3.7297   22.1676 C.ar    1  UNL1       -0.0015
     25 C          -3.1325    3.6592   23.5573 C.ar    1  UNL1        0.0342
     26 C          -2.0941    4.1748   26.4030 C.3     1  UNL1        0.2525
     27 O          -3.4879    3.6921   26.1307 O.3     1  UNL1       -0.4714
@<TRIPOS>BOND
     1    26    27    1
     2    27    20    1
     3    20    21   ar
     4    21    22   ar
     5    22    23   ar
     6    23    24   ar
     7    24    18    1
     8    18    19    1
     9    18     1    1
    10     1     2   am
    11     2     3    2
    12     2     5    1
    13     5     6   ar
    14     6     7   ar
    15     7     8   ar
    16     8    11    1
    17    11    12   ar
    18    12    13   ar
    19    13    14   ar
    20    14    15   ar
    21    15    16    1
    22    15    17   ar
    23     8     9   ar
    24     9    10   ar
    25    24    25   ar
    26    25    20   ar
    27    10     5   ar
    28    17    11   ar
    29     1     4    1
@<TRIPOS>MOLECULE
*****
 27 29 0 0 0
SMALL
GASTEIGER

@<TRIPOS>ATOM
      1 N          -0.0500    3.1569   24.1612 N.am    1  UNL1       -0.2987
      2 C           0.3160    1.7051   24.2517 C.2     1  UNL1        0.2460
      3 O          -0.0432    0.9159   25.4758 O.2     1  UNL1       -0.2701
      4 H           0.1858    3.6748   23.3578 H       1  UNL1        0.1500
      5 C           1.0412    1.0424   23.1182 C.ar    1  UNL1        0.0534
      6 C           2.2824    0.2438   23.3867 C.ar    1  UNL1        0.0045
      7 C           3.0076   -0.4189   22.2532 C.ar    1  UNL1        0.0001
      8 C           2.4917   -0.2831   20.8512 C.ar    1  UNL1        0.0002
      9 C           1.2506    0.5154   20.5828 C.ar    1  UNL1        0.0001
     10 C           0.5254    1.1781   21.7163 C.ar    1  UNL1        0.0045
     11 C           3.2169   -0.9459   19.7177 C.ar    1  UNL1        0.0054
     12 C           3.4574   -0.1963   18.4409 C.ar    1  UNL1        0.0208
     13 C           4.1827   -0.8590   17.3074 C.ar    1  UNL1        0.1013
     14 N           4.6673   -2.2714   17.4507 N.ar    1  UNL1       -0.2165
     15 C           4.4267   -3.0209   18.7275 C.ar    1  UNL1        0.2223
     16 F           4.9114   -4.4332   18.8709 F       1  UNL1       -0.1832
     17 C           3.7015   -2.3581   19.8610 C.ar    1  UNL1        0.0497
     18 C          -0.7752    3.8196   25.2947 C.3     1  UNL1        0.0945
     19 C          -0.0009    4.4493   26.4145 C.3     1  UNL1        0.0262
     20 C          -4.5423    3.6004   24.0655 C.ar    1  UNL1        0.1385
     21 C          -5.2739    3.9189   25.3357 C.ar    1  UNL1        0.0369
     22 C          -4.5060    4.2043   26.5922 C.ar    1  UNL1        0.0028
     23 C          -3.0064    4.1712   26.5785 C.ar    1  UNL1       -0.0025
     24 C          -2.2748    3.8527   25.3084 C.ar    1  UNL1       -0.0015
     25 C          -3.0428    3.5673   24.0519 C.ar    1  UNL1        0.0342
     26 C          -6.5069    4.1477   22.4559 C.3     1  UNL1        0.2525
     27 O          -5.3103    3.3150   22.8090 O.3     1  UNL1       -0.4714
@<TRIPOS>BOND
     1    26    27    1
     2    27    20    1
     3    20    21   ar
     4    21    22   ar
     5    22    23   ar
     6    23    24   ar
     7    24    18    1
     8    18    19    1
     9    18     1    1
    10     1     2   am
    11     2     3    2
    12     2     5    1
    13     5     6   ar
    14     6     7   ar
    15     7     8   ar
    16     8    11    1
    17    11    12   ar
    18    12    13   ar
    19    13    14   ar
    20    14    15   ar
    21    15    16    1
    22    15    17   ar
    23     8     9   ar
    24     9    10   ar
    25    24    25   ar
    26    25    20   ar
    27    10     5   ar
    28    17    11   ar
    29     1     4    1
@<TRIPOS>MOLECULE
*****
 27 29 0 0 0
SMALL
GASTEIGER

@<TRIPOS>ATOM
      1 N           4.5195   -3.7449   21.3520 N.am    1  UNL1       -0.2987
      2 C           5.8623   -3.3624   21.9001 C.2     1  UNL1        0.2460
      3 O           6.9615   -2.9452   20.9685 O.2     1  UNL1       -0.2701
      4 H           3.7980   -4.0187   21.9634 H       1  UNL1        0.1500
      5 C           6.1060   -3.3971   23.3798 C.ar    1  UNL1        0.0534
      6 C           5.6183   -2.2743   24.2467 C.ar    1  UNL1        0.0045
      7 C           5.8620   -2.3090   25.7264 C.ar    1  UNL1        0.0001
      8 C           6.5934   -3.4665   26.3391 C.ar    1  UNL1        0.0002
      9 C           7.0810   -4.5892   25.4722 C.ar    1  UNL1        0.0001
     10 C           6.8373   -4.5545   23.9925 C.ar    1  UNL1        0.0045
     11 C           6.8371   -3.5012   27.8188 C.ar    1  UNL1        0.0054
     12 C           7.3208   -2.2712   28.5282 C.ar    1  UNL1        0.0208
     13 C           7.5645   -2.3059   30.0079 C.ar    1  UNL1        0.1013
     14 N           7.3245   -3.5706   30.7781 N.ar    1  UNL1       -0.2165
     15 C           6.8409   -4.8004   30.0686 C.ar    1  UNL1        0.2223
     16 F           6.6009   -6.0651   30.8388 F       1  UNL1       -0.1832
     17 C           6.5972   -4.7658   28.5889 C.ar    1  UNL1        0.0497
     18 C           4.2757   -3.7102   19.8723 C.3     1  UNL1        0.0945
     19 C           4.4262   -4.9608   19.0579 C.3     1  UNL1        0.0262
     20 C           2.5659   -0.1848   19.2416 C.ar    1  UNL1        0.1385
     21 C           3.0931    0.1458   17.8768 C.ar    1  UNL1        0.0369
     22 C           4.0145   -0.8090   17.1771 C.ar    1  UNL1        0.0028
     23 C           4.4087   -2.0943   17.8423 C.ar    1  UNL1       -0.0025
     24 C           3.8815   -2.4249   19.2071 C.ar    1  UNL1       -0.0015
     25 C           2.9601   -1.4701   19.9067 C.ar    1  UNL1        0.0342
     26 C           0.2919    0.3089   20.3970 C.3     1  UNL1        0.2525
     27 O           1.6445    0.7699   19.9412 O.3     1  UNL1       -0.4714
@<TRIPOS>BOND
     1    26    27    1
     2    27    20    1
     3    20    21   ar
     4    21    22   ar
     5    22    23   ar
     6    23    24   ar
     7    24    18    1
     8    18    19    1
     9    18     1    1
    10     1     2   am
    11     2     3    2
    12     2     5    1
    13     5     6   ar
    14     6     7   ar
    15     7     8   ar
    16     8    11    1
    17    11    12   ar
    18    12    13   ar
    19    13    14   ar
    20    14    15   ar
    21    15    16    1
    22    15    17   ar
    23     8     9   ar
    24     9    10   ar
    25    24    25   ar
    26    25    20   ar
    27    10     5   ar
    28    17    11   ar
    29     1     4    1
