@<TRIPOS>MOLECULE
*****
 34 37 0 0 0
SMALL
GASTEIGER

@<TRIPOS>ATOM
      1 C          -9.8153  -17.2157   24.1307 C.3     1  UNL1        0.0468
      2 C         -10.2317  -18.4167   25.8010 C.3     1  UNL1        0.0069
      3 C          -9.1128  -16.6326   23.8206 C.3     1  UNL1        0.0500
      4 C          -8.9701  -16.0965   23.0319 C.3     1  UNL1        0.1694
      5 C          -9.1386  -15.4818   21.7950 C.3     1  UNL1        0.0435
      6 C          -8.4270  -14.5395   20.8699 C.3     1  UNL1        0.0040
      7 C          -9.6791  -15.9965   22.1484 C.3     1  UNL1        0.0038
      8 C          -7.7053  -15.8291   23.8332 C.3     1  UNL1        0.0001
      9 C         -10.2344  -16.5319   22.5230 C.3     1  UNL1        0.0001
     10 C         -10.8653  -16.6834   22.1548 C.3     1  UNL1        0.0005
     11 C         -11.5551  -16.8378   21.7327 C.3     1  UNL1        0.0093
     12 C         -12.6336  -16.8593   20.6904 C.3     1  UNL1        0.0082
     13 C         -12.2072  -15.9654   19.5638 C.3     1  UNL1        0.0645
     14 C         -10.8652  -15.3915   19.9098 C.2     1  UNL1        0.1504
     15 O         -10.0665  -14.4446   19.0639 O.2     1  UNL1       -0.2961
     16 C         -10.4622  -15.9307   21.2503 C.3     1  UNL1        0.0610
     17 C         -11.1668  -17.3293   22.9753 C.3     1  UNL1        0.0276
     18 C         -13.0850  -18.4057   22.9258 C.3     1  UNL1        0.0025
     19 C         -10.6662  -17.5043   23.7806 C.3     1  UNL1        0.1141
     20 O         -11.7099  -18.8863   25.1373 O.3     1  UNL1       -0.3841
     21 H         -11.1696  -19.0311   25.9298 H       1  UNL1        0.2103
     22 C          -8.3144  -16.6310   27.0033 C.2     1  UNL1       -0.0048
     23 C          -8.6395  -17.5232   25.8421 C.2     1  UNL1       -0.0243
     24 O          -7.0520  -15.0201   23.0814 O.3     1  UNL1       -0.4516
     25 C          -5.8844  -15.6018   23.8219 C.2     1  UNL1        0.3284
     26 O          -5.2153  -14.8112   24.9069 O.2     1  UNL1       -0.2491
     27 C          -5.3859  -16.9738   23.4774 C.3     1  UNL1        0.1728
     28 S          -3.9304  -17.3031   23.6294 S.3     1  UNL1       -0.0830
     29 C          -3.1210  -17.6960   22.4291 C.ar    1  UNL1        0.1072
     30 C          -3.0180  -19.1392   22.0337 C.ar    1  UNL1        0.0255
     31 C          -2.2087  -19.5321   20.8334 C.ar    1  UNL1        0.0037
     32 C          -1.5023  -18.4817   20.0286 C.ar    1  UNL1        0.0207
     33 C          -1.6052  -17.0384   20.4240 C.ar    1  UNL1        0.0994
     34 N          -2.4146  -16.6455   21.6243 N.ar    1  UNL1       -0.2376
@<TRIPOS>BOND
     1    22    23    2
     2    23     1    1
     3     1     2    1
     4     1     3    1
     5     3     4    1
     6     4    24    1
     7    24    25    1
     8    25    26    2
     9    25    27    1
    10    27    28    1
    11    28    29    1
    12    29    30   ar
    13    30    31   ar
    14    31    32   ar
    15    32    33   ar
    16    33    34   ar
    17     4     5    1
    18     5     6    1
    19     5     7    1
    20     7     8    1
    21     7     9    1
    22     9    10    1
    23    11    10    1
    24    11    12    1
    25    12    13    1
    26    13    14    1
    27    14    15    2
    28    16    14    1
    29    11    17    1
    30    17    18    1
    31    17    19    1
    32    19    20    1
    33    19     1    1
    34    34    29   ar
    35    16     5    1
    36    16    11    1
    37    20    21    1
@<TRIPOS>MOLECULE
*****
 34 37 0 0 0
SMALL
GASTEIGER

@<TRIPOS>ATOM
      1 C         -10.0129  -17.2814   24.1963 C.3     1  UNL1        0.0468
      2 C         -10.5214  -18.4403   25.8709 C.3     1  UNL1        0.0069
      3 C          -9.2646  -16.7615   23.8811 C.3     1  UNL1        0.0500
      4 C          -9.0809  -16.2406   23.0907 C.3     1  UNL1        0.1694
      5 C          -9.2032  -15.6150   21.8538 C.3     1  UNL1        0.0435
      6 C          -8.4185  -14.7387   20.9230 C.3     1  UNL1        0.0040
      7 C          -9.7840  -16.0807   22.2112 C.3     1  UNL1        0.0038
      8 C          -7.7930  -16.0825   23.8841 C.3     1  UNL1        0.0001
      9 C         -10.3811  -16.5658   22.5900 C.3     1  UNL1        0.0001
     10 C         -11.0249  -16.6626   22.2258 C.3     1  UNL1        0.0005
     11 C         -11.7281  -16.7574   21.8079 C.3     1  UNL1        0.0093
     12 C         -12.8106  -16.6867   20.7721 C.3     1  UNL1        0.0082
     13 C         -12.3155  -15.8342   19.6416 C.3     1  UNL1        0.0645
     14 C         -10.9269  -15.3779   19.9788 C.2     1  UNL1        0.1504
     15 O         -10.0545  -14.5045   19.1267 O.2     1  UNL1       -0.2961
     16 C         -10.5638  -15.9485   21.3177 C.3     1  UNL1        0.0610
     17 C         -11.3761  -17.2792   23.0491 C.3     1  UNL1        0.0276
     18 C         -13.3803  -18.1860   23.0126 C.3     1  UNL1        0.0025
     19 C         -10.8877  -17.4959   23.8516 C.3     1  UNL1        0.1141
     20 O         -12.0386  -18.7811   25.2167 O.3     1  UNL1       -0.3841
     21 H         -11.5080  -18.9712   26.0062 H       1  UNL1        0.2103
     22 C          -8.4829  -16.8371   27.0785 C.2     1  UNL1       -0.0048
     23 C          -8.8578  -17.6875   25.9011 C.2     1  UNL1       -0.0243
     24 O          -7.0768  -15.3338   23.1271 O.3     1  UNL1       -0.4516
     25 C          -5.8588  -16.2079   23.1773 C.2     1  UNL1        0.3284
     26 O          -4.4931  -15.5892   23.2215 O.2     1  UNL1       -0.2491
     27 C          -6.0065  -17.7005   23.1831 C.3     1  UNL1        0.1728
     28 S          -6.1981  -18.4403   21.8923 S.3     1  UNL1       -0.0830
     29 C          -7.5582  -18.9462   21.5125 C.ar    1  UNL1        0.1072
     30 C          -8.3460  -19.7783   22.4804 C.ar    1  UNL1        0.0255
     31 C          -9.7061  -20.2843   22.1006 C.ar    1  UNL1        0.0037
     32 C         -10.2783  -19.9580   20.7529 C.ar    1  UNL1        0.0207
     33 C          -9.4904  -19.1259   19.7850 C.ar    1  UNL1        0.0994
     34 N          -8.1303  -18.6200   20.1648 N.ar    1  UNL1       -0.2376
@<TRIPOS>BOND
     1    22    23    2
     2    23     1    1
     3     1     2    1
     4     1     3    1
     5     3     4    1
     6     4    24    1
     7    24    25    1
     8    25    26    2
     9    25    27    1
    10    27    28    1
    11    28    29    1
    12    29    30   ar
    13    30    31   ar
    14    31    32   ar
    15    32    33   ar
    16    33    34   ar
    17     4     5    1
    18     5     6    1
    19     5     7    1
    20     7     8    1
    21     7     9    1
    22     9    10    1
    23    11    10    1
    24    11    12    1
    25    12    13    1
    26    13    14    1
    27    14    15    2
    28    16    14    1
    29    11    17    1
    30    17    18    1
    31    17    19    1
    32    19    20    1
    33    19     1    1
    34    34    29   ar
    35    16     5    1
    36    16    11    1
    37    20    21    1
@<TRIPOS>MOLECULE
*****
 34 37 0 0 0
SMALL
GASTEIGER

@<TRIPOS>ATOM
      1 C          -5.9768  -18.5924   22.0554 C.3     1  UNL1        0.0468
      2 C          -4.1128  -19.5411   22.2315 C.3     1  UNL1        0.0069
      3 C          -6.4358  -17.8319   22.4304 C.3     1  UNL1        0.0500
      4 C          -7.3063  -17.4343   22.3121 C.3     1  UNL1        0.1694
      5 C          -8.6006  -17.1776   21.8705 C.3     1  UNL1        0.0435
      6 C          -9.7198  -16.2025   22.0867 C.3     1  UNL1        0.0040
      7 C          -8.1246  -17.8011   21.6127 C.3     1  UNL1        0.0038
      8 C          -6.6763  -16.5205   23.3519 C.3     1  UNL1        0.0001
      9 C          -7.6231  -18.4457   21.3510 C.3     1  UNL1        0.0001
     10 C          -7.9036  -18.9120   20.8407 C.3     1  UNL1        0.0005
     11 C          -8.2313  -19.4154   20.2776 C.3     1  UNL1        0.0093
     12 C          -9.1530  -20.0744   19.2946 C.3     1  UNL1        0.0082
     13 C         -10.4365  -19.2986   19.2707 C.3     1  UNL1        0.0645
     14 C         -10.3081  -18.1601   20.2389 C.2     1  UNL1        0.1504
     15 O         -11.3582  -17.1302   20.5331 O.2     1  UNL1       -0.2961
     16 C          -8.9451  -18.2323   20.8612 C.3     1  UNL1        0.0610
     17 C          -6.9704  -19.4687   20.8640 C.3     1  UNL1        0.0276
     18 C          -6.6773  -21.2451   19.5995 C.3     1  UNL1        0.0025
     19 C          -6.1983  -19.2705   21.4064 C.3     1  UNL1        0.1141
     20 O          -4.5568  -20.7005   21.0893 O.3     1  UNL1       -0.3841
     21 H          -3.8056  -20.4609   21.6542 H       1  UNL1        0.2103
     22 C          -3.2874  -17.0249   23.1303 C.2     1  UNL1       -0.0048
     23 C          -4.3561  -18.0665   23.2811 C.2     1  UNL1       -0.0243
     24 O          -7.5994  -15.6580   23.5766 O.3     1  UNL1       -0.4516
     25 C          -7.6074  -15.7936   25.0703 C.2     1  UNL1        0.3284
     26 O          -6.3410  -15.5918   25.8485 O.2     1  UNL1       -0.2491
     27 C          -8.8817  -16.1311   25.7860 C.3     1  UNL1        0.1728
     28 S          -9.2146  -17.5616   26.0905 S.3     1  UNL1       -0.0830
     29 C          -9.8697  -18.4177   25.0474 C.ar    1  UNL1        0.1072
     30 C          -9.1844  -19.6585   24.5569 C.ar    1  UNL1        0.0255
     31 C          -9.8394  -20.5146   23.5138 C.ar    1  UNL1        0.0037
     32 C         -11.1798  -20.1298   22.9613 C.ar    1  UNL1        0.0207
     33 C         -11.8652  -18.8890   23.4518 C.ar    1  UNL1        0.0994
     34 N         -11.2101  -18.0329   24.4949 N.ar    1  UNL1       -0.2376
@<TRIPOS>BOND
     1    22    23    2
     2    23     1    1
     3     1     2    1
     4     1     3    1
     5     3     4    1
     6     4    24    1
     7    24    25    1
     8    25    26    2
     9    25    27    1
    10    27    28    1
    11    28    29    1
    12    29    30   ar
    13    30    31   ar
    14    31    32   ar
    15    32    33   ar
    16    33    34   ar
    17     4     5    1
    18     5     6    1
    19     5     7    1
    20     7     8    1
    21     7     9    1
    22     9    10    1
    23    11    10    1
    24    11    12    1
    25    12    13    1
    26    13    14    1
    27    14    15    2
    28    16    14    1
    29    11    17    1
    30    17    18    1
    31    17    19    1
    32    19    20    1
    33    19     1    1
    34    34    29   ar
    35    16     5    1
    36    16    11    1
    37    20    21    1
@<TRIPOS>MOLECULE
*****
 34 37 0 0 0
SMALL
GASTEIGER

@<TRIPOS>ATOM
      1 C           4.4008   -2.3984   22.2404 C.3     1  UNL1        0.0468
      2 C           5.7697   -3.5961   23.2879 C.3     1  UNL1        0.0069
      3 C           4.1023   -2.2723   21.3323 C.3     1  UNL1        0.0500
      4 C           3.4597   -1.6984   20.8992 C.3     1  UNL1        0.1694
      5 C           2.4798   -0.7379   20.6679 C.3     1  UNL1        0.0435
      6 C           1.6876   -0.1487   19.5387 C.3     1  UNL1        0.0040
      7 C           2.8015   -0.9217   21.4059 C.3     1  UNL1        0.0038
      8 C           4.0126   -2.4987   19.7300 C.3     1  UNL1        0.0001
      9 C           3.1413   -1.1192   22.1681 C.3     1  UNL1        0.0001
     10 C           2.8908   -0.7438   22.7621 C.3     1  UNL1        0.0005
     11 C           2.6012   -0.3185   23.4050 C.3     1  UNL1        0.0093
     12 C           1.8418    0.6351   24.2790 C.3     1  UNL1        0.0082
     13 C           0.9082    1.4205   23.4064 C.3     1  UNL1        0.0645
     14 C           1.0906    0.9523   21.9931 C.2     1  UNL1        0.1504
     15 O           0.3556    1.4684   20.7916 O.2     1  UNL1       -0.2961
     16 C           2.1369   -0.1225   21.9922 C.3     1  UNL1        0.0610
     17 C           3.5701   -1.3172   23.3874 C.3     1  UNL1        0.0276
     18 C           3.6664   -0.9843   25.5600 C.3     1  UNL1        0.0025
     19 C           4.1803   -2.0027   23.0918 C.3     1  UNL1        0.1141
     20 O           5.3423   -2.8670   24.7480 O.3     1  UNL1       -0.3841
     21 H           5.9395   -3.5489   24.4026 H       1  UNL1        0.2103
     22 C           6.9631   -3.7767   20.6975 C.2     1  UNL1       -0.0048
     23 C           5.6898   -3.8725   21.4845 C.2     1  UNL1       -0.0243
     24 O           3.3634   -2.0313   18.7267 O.3     1  UNL1       -0.4516
     25 C           4.5449   -1.7001   17.8640 C.2     1  UNL1        0.3284
     26 O           5.6219   -2.7206   17.6432 O.2     1  UNL1       -0.2491
     27 C           4.6495   -0.3486   17.2220 C.3     1  UNL1        0.1728
     28 S           5.5931    0.6756   17.7796 S.3     1  UNL1       -0.0830
     29 C           5.5153    1.0572   19.2282 C.ar    1  UNL1        0.1072
     30 C           6.4064    0.3845   20.2298 C.ar    1  UNL1        0.0255
     31 C           6.3286    0.7661   21.6784 C.ar    1  UNL1        0.0037
     32 C           5.3597    1.8204   22.1253 C.ar    1  UNL1        0.0207
     33 C           4.4686    2.4931   21.1236 C.ar    1  UNL1        0.0994
     34 N           4.5464    2.1115   19.6750 N.ar    1  UNL1       -0.2376
@<TRIPOS>BOND
     1    22    23    2
     2    23     1    1
     3     1     2    1
     4     1     3    1
     5     3     4    1
     6     4    24    1
     7    24    25    1
     8    25    26    2
     9    25    27    1
    10    27    28    1
    11    28    29    1
    12    29    30   ar
    13    30    31   ar
    14    31    32   ar
    15    32    33   ar
    16    33    34   ar
    17     4     5    1
    18     5     6    1
    19     5     7    1
    20     7     8    1
    21     7     9    1
    22     9    10    1
    23    11    10    1
    24    11    12    1
    25    12    13    1
    26    13    14    1
    27    14    15    2
    28    16    14    1
    29    11    17    1
    30    17    18    1
    31    17    19    1
    32    19    20    1
    33    19     1    1
    34    34    29   ar
    35    16     5    1
    36    16    11    1
    37    20    21    1
@<TRIPOS>MOLECULE
*****
 34 37 0 0 0
SMALL
GASTEIGER

@<TRIPOS>ATOM
      1 C         -12.9458   -5.3414   19.2679 C.3     1  UNL1        0.0468
      2 C         -11.5502   -6.8797   18.9651 C.3     1  UNL1        0.0069
      3 C         -12.9490   -4.3830   19.3735 C.3     1  UNL1        0.0500
      4 C         -13.6301   -3.7145   19.5122 C.3     1  UNL1        0.1694
      5 C         -14.8587   -3.0886   19.6987 C.3     1  UNL1        0.0435
      6 C         -15.4348   -1.7190   19.9044 C.3     1  UNL1        0.0040
      7 C         -14.7486   -3.9009   19.5989 C.3     1  UNL1        0.0038
      8 C         -12.3612   -2.8766   19.4827 C.3     1  UNL1        0.0001
      9 C         -14.6246   -4.7430   19.4945 C.3     1  UNL1        0.0001
     10 C         -15.2280   -5.1815   19.5042 C.3     1  UNL1        0.0005
     11 C         -15.9061   -5.6483   19.5178 C.3     1  UNL1        0.0093
     12 C         -17.3247   -6.1286   19.6010 C.3     1  UNL1        0.0082
     13 C         -18.2064   -4.9344   19.8167 C.3     1  UNL1        0.0645
     14 C         -17.3328   -3.7161   19.8669 C.2     1  UNL1        0.1504
     15 O         -17.7990   -2.3045   20.0667 O.2     1  UNL1       -0.2961
     16 C         -15.9111   -4.1573   19.6822 C.3     1  UNL1        0.0610
     17 C         -14.5821   -6.0416   19.3478 C.3     1  UNL1        0.0276
     18 C         -15.4136   -8.0734   19.2042 C.3     1  UNL1        0.0025
     19 C         -13.6223   -6.0284   19.2572 C.3     1  UNL1        0.1141
     20 O         -12.7774   -8.0372   18.9555 O.3     1  UNL1       -0.3841
     21 H         -11.8133   -7.9730   18.8702 H       1  UNL1        0.2103
     22 C          -9.9833   -4.8377   17.9203 C.2     1  UNL1       -0.0048
     23 C         -10.8601   -5.1931   19.0843 C.2     1  UNL1       -0.0243
     24 O         -12.7986   -1.6828   19.6558 O.3     1  UNL1       -0.4516
     25 C         -12.0967   -1.0746   18.4780 C.2     1  UNL1        0.3284
     26 O         -10.6433   -1.3603   18.2416 O.2     1  UNL1       -0.2491
     27 C         -12.8481   -0.1807   17.5366 C.3     1  UNL1        0.1728
     28 S         -13.3401   -0.7170   16.2249 S.3     1  UNL1       -0.0830
     29 C         -14.3341   -1.8401   16.1992 C.ar    1  UNL1        0.1072
     30 C         -13.8652   -3.2526   16.0119 C.ar    1  UNL1        0.0255
     31 C         -14.8592   -4.3756   15.9862 C.ar    1  UNL1        0.0037
     32 C         -16.3221   -4.0862   16.1478 C.ar    1  UNL1        0.0207
     33 C         -16.7911   -2.6738   16.3352 C.ar    1  UNL1        0.0994
     34 N         -15.7970   -1.5507   16.3609 N.ar    1  UNL1       -0.2376
@<TRIPOS>BOND
     1    22    23    2
     2    23     1    1
     3     1     2    1
     4     1     3    1
     5     3     4    1
     6     4    24    1
     7    24    25    1
     8    25    26    2
     9    25    27    1
    10    27    28    1
    11    28    29    1
    12    29    30   ar
    13    30    31   ar
    14    31    32   ar
    15    32    33   ar
    16    33    34   ar
    17     4     5    1
    18     5     6    1
    19     5     7    1
    20     7     8    1
    21     7     9    1
    22     9    10    1
    23    11    10    1
    24    11    12    1
    25    12    13    1
    26    13    14    1
    27    14    15    2
    28    16    14    1
    29    11    17    1
    30    17    18    1
    31    17    19    1
    32    19    20    1
    33    19     1    1
    34    34    29   ar
    35    16     5    1
    36    16    11    1
    37    20    21    1
@<TRIPOS>MOLECULE
*****
 34 37 0 0 0
SMALL
GASTEIGER

@<TRIPOS>ATOM
      1 C         -15.0643   -4.3033   19.9235 C.3     1  UNL1        0.0468
      2 C         -14.9811   -2.2650   20.4175 C.3     1  UNL1        0.0069
      3 C         -14.4520   -5.0315   19.7667 C.3     1  UNL1        0.0500
      4 C         -14.5454   -5.9639   19.5390 C.3     1  UNL1        0.1694
      5 C         -15.0858   -7.2065   19.2228 C.3     1  UNL1        0.0435
      6 C         -14.6489   -8.6045   18.8990 C.3     1  UNL1        0.0040
      7 C         -15.5224   -6.5222   19.3744 C.3     1  UNL1        0.0038
      8 C         -13.0351   -5.8052   19.6235 C.3     1  UNL1        0.0001
      9 C         -15.9675   -5.8066   19.5333 C.3     1  UNL1        0.0001
     10 C         -16.7113   -5.8517   19.4996 C.3     1  UNL1        0.0005
     11 C         -17.5306   -5.9221   19.4576 C.3     1  UNL1        0.0093
     12 C         -18.9262   -6.4454   19.2886 C.3     1  UNL1        0.0082
     13 C         -18.8361   -7.9016   18.9402 C.3     1  UNL1        0.0645
     14 C         -17.3850   -8.2783   18.8939 C.2     1  UNL1        0.1504
     15 O         -16.8369   -9.6394   18.5825 O.2     1  UNL1       -0.2961
     16 C         -16.5781   -7.0549   19.2136 C.3     1  UNL1        0.0610
     17 C         -16.7679   -4.7961   19.7524 C.3     1  UNL1        0.0276
     18 C         -18.7085   -3.7766   19.9388 C.3     1  UNL1        0.0025
     19 C         -16.0236   -4.2058   19.9176 C.3     1  UNL1        0.1141
     20 O         -16.6644   -2.1555   20.3924 O.3     1  UNL1       -0.3841
     21 H         -15.8841   -1.6012   20.5499 H       1  UNL1        0.2103
     22 C         -12.1746   -2.8098   19.4087 C.2     1  UNL1       -0.0048
     23 C         -13.3702   -3.1113   20.2628 C.2     1  UNL1       -0.0243
     24 O         -12.6048   -6.9833   19.3526 O.3     1  UNL1       -0.4516
     25 C         -11.5850   -6.4818   18.3737 C.2     1  UNL1        0.3284
     26 O         -10.2768   -5.9376   18.8662 O.2     1  UNL1       -0.2491
     27 C         -11.8732   -6.5244   16.9023 C.3     1  UNL1        0.1728
     28 S         -12.2382   -5.2656   16.1728 S.3     1  UNL1       -0.0830
     29 C         -13.6492   -4.7579   16.2126 C.ar    1  UNL1        0.1072
     30 C         -13.9157   -3.3016   16.4537 C.ar    1  UNL1        0.0255
     31 C         -15.3266   -2.7939   16.4935 C.ar    1  UNL1        0.0037
     32 C         -16.4710   -3.7426   16.2922 C.ar    1  UNL1        0.0207
     33 C         -16.2045   -5.1989   16.0511 C.ar    1  UNL1        0.0994
     34 N         -14.7935   -5.7066   16.0113 N.ar    1  UNL1       -0.2376
@<TRIPOS>BOND
     1    22    23    2
     2    23     1    1
     3     1     2    1
     4     1     3    1
     5     3     4    1
     6     4    24    1
     7    24    25    1
     8    25    26    2
     9    25    27    1
    10    27    28    1
    11    28    29    1
    12    29    30   ar
    13    30    31   ar
    14    31    32   ar
    15    32    33   ar
    16    33    34   ar
    17     4     5    1
    18     5     6    1
    19     5     7    1
    20     7     8    1
    21     7     9    1
    22     9    10    1
    23    11    10    1
    24    11    12    1
    25    12    13    1
    26    13    14    1
    27    14    15    2
    28    16    14    1
    29    11    17    1
    30    17    18    1
    31    17    19    1
    32    19    20    1
    33    19     1    1
    34    34    29   ar
    35    16     5    1
    36    16    11    1
    37    20    21    1
@<TRIPOS>MOLECULE
*****
 34 37 0 0 0
SMALL
GASTEIGER

@<TRIPOS>ATOM
      1 C           4.7006   -2.7931   21.2244 C.3     1  UNL1        0.0468
      2 C           6.1094   -4.2813   20.7702 C.3     1  UNL1        0.0069
      3 C           4.0454   -2.2572   20.7627 C.3     1  UNL1        0.0500
      4 C           3.4140   -1.5768   21.0243 C.3     1  UNL1        0.1694
      5 C           2.6711   -0.6729   21.7772 C.3     1  UNL1        0.0435
      6 C           1.5879    0.3511   21.6087 C.3     1  UNL1        0.0040
      7 C           3.2540   -1.1756   22.0763 C.3     1  UNL1        0.0038
      8 C           3.1678   -1.6827   19.5272 C.3     1  UNL1        0.0001
      9 C           3.8608   -1.7012   22.3778 C.3     1  UNL1        0.0001
     10 C           4.0052   -1.6732   23.1091 C.3     1  UNL1        0.0005
     11 C           4.1498   -1.6272   23.9184 C.3     1  UNL1        0.0093
     12 C           4.1133   -1.2543   25.3709 C.3     1  UNL1        0.0082
     13 C           3.0715   -0.1901   25.5501 C.3     1  UNL1        0.0645
     14 C           2.4640    0.0947   24.2085 C.2     1  UNL1        0.1504
     15 O           1.3804    1.0924   23.9251 O.2     1  UNL1       -0.2961
     16 C           3.1305   -0.7935   23.2000 C.3     1  UNL1        0.0610
     17 C           4.7584   -2.4445   22.9707 C.3     1  UNL1        0.0276
     18 C           5.9321   -3.2020   24.6704 C.3     1  UNL1        0.0025
     19 C           4.9959   -2.8707   22.1391 C.3     1  UNL1        0.1141
     20 O           6.5845   -4.3724   22.3864 O.3     1  UNL1       -0.3841
     21 H           6.7883   -4.7721   21.5263 H       1  UNL1        0.2103
     22 C           4.4808   -4.7662   18.5968 C.2     1  UNL1       -0.0048
     23 C           5.1351   -3.6525   19.3594 C.2     1  UNL1       -0.0243
     24 O           2.2403   -0.8194   19.3247 O.3     1  UNL1       -0.4516
     25 C           2.9167   -0.0478   18.2305 C.2     1  UNL1        0.3284
     26 O           3.4650   -0.7673   17.0340 O.2     1  UNL1       -0.2491
     27 C           3.0447    1.4431   18.3328 C.3     1  UNL1        0.1728
     28 S           4.3738    2.0618   18.6503 S.3     1  UNL1       -0.0830
     29 C           5.2558    1.4483   19.6972 C.ar    1  UNL1        0.1072
     30 C           5.1595    1.9075   21.1219 C.ar    1  UNL1        0.0255
     31 C           6.0415    1.2940   22.1688 C.ar    1  UNL1        0.0037
     32 C           7.0196    0.2215   21.7908 C.ar    1  UNL1        0.0207
     33 C           7.1159   -0.2377   20.3661 C.ar    1  UNL1        0.0994
     34 N           6.2339    0.3758   19.3192 N.ar    1  UNL1       -0.2376
@<TRIPOS>BOND
     1    22    23    2
     2    23     1    1
     3     1     2    1
     4     1     3    1
     5     3     4    1
     6     4    24    1
     7    24    25    1
     8    25    26    2
     9    25    27    1
    10    27    28    1
    11    28    29    1
    12    29    30   ar
    13    30    31   ar
    14    31    32   ar
    15    32    33   ar
    16    33    34   ar
    17     4     5    1
    18     5     6    1
    19     5     7    1
    20     7     8    1
    21     7     9    1
    22     9    10    1
    23    11    10    1
    24    11    12    1
    25    12    13    1
    26    13    14    1
    27    14    15    2
    28    16    14    1
    29    11    17    1
    30    17    18    1
    31    17    19    1
    32    19    20    1
    33    19     1    1
    34    34    29   ar
    35    16     5    1
    36    16    11    1
    37    20    21    1
@<TRIPOS>MOLECULE
*****
 34 37 0 0 0
SMALL
GASTEIGER

@<TRIPOS>ATOM
      1 C           2.8224   -0.7529   22.1947 C.3     1  UNL1        0.0468
      2 C           1.5079    0.5970   23.1198 C.3     1  UNL1        0.0069
      3 C           3.0288   -1.0613   21.3048 C.3     1  UNL1        0.0500
      4 C           3.6528   -1.6937   20.9299 C.3     1  UNL1        0.1694
      5 C           4.6550   -2.6493   20.7927 C.3     1  UNL1        0.0435
      6 C           5.3540   -3.4413   19.7278 C.3     1  UNL1        0.0040
      7 C           4.4041   -2.3218   21.5081 C.3     1  UNL1        0.0038
      8 C           2.9339   -1.1815   19.6913 C.3     1  UNL1        0.0001
      9 C           4.1371   -1.9764   22.2462 C.3     1  UNL1        0.0001
     10 C           4.4704   -2.2071   22.8724 C.3     1  UNL1        0.0005
     11 C           4.8506   -2.4748   23.5519 C.3     1  UNL1        0.0093
     12 C           5.7515   -3.1934   24.5121 C.3     1  UNL1        0.0082
     13 C           6.6293   -4.1173   23.7210 C.3     1  UNL1        0.0645
     14 C           6.2709   -3.9697   22.2719 C.2     1  UNL1        0.1504
     15 O           6.9013   -4.7076   21.1282 O.2     1  UNL1       -0.2961
     16 C           5.1716   -2.9545   22.1675 C.3     1  UNL1        0.0610
     17 C           3.8305   -1.5351   23.4382 C.3     1  UNL1        0.0276
     18 C           3.9858   -1.3966   25.6285 C.3     1  UNL1        0.0025
     19 C           3.1545   -0.9492   23.0785 C.3     1  UNL1        0.1141
     20 O           2.1293    0.2125   24.6404 O.3     1  UNL1       -0.3841
     21 H           1.4611    0.7847   24.2316 H       1  UNL1        0.2103
     22 C           0.1463    0.1640   20.5085 C.2     1  UNL1       -0.0048
     23 C           1.3790    0.4820   21.3017 C.2     1  UNL1       -0.0243
     24 O           3.4975   -1.8322   18.7397 O.3     1  UNL1       -0.4516
     25 C           3.6036   -0.5936   17.9005 C.2     1  UNL1        0.3284
     26 O           2.4673    0.3848   17.8604 O.2     1  UNL1       -0.2491
     27 C           4.8459   -0.3332   17.1012 C.3     1  UNL1        0.1728
     28 S           5.9722    0.4552   17.7011 S.3     1  UNL1       -0.0830
     29 C           5.9975    0.7232   19.1768 C.ar    1  UNL1        0.1072
     30 C           6.9593   -0.0183   20.0573 C.ar    1  UNL1        0.0255
     31 C           6.9846    0.2496   21.5329 C.ar    1  UNL1        0.0037
     32 C           6.0482    1.2591   22.1281 C.ar    1  UNL1        0.0207
     33 C           5.0865    2.0007   21.2476 C.ar    1  UNL1        0.0994
     34 N           5.0612    1.7327   19.7719 N.ar    1  UNL1       -0.2376
@<TRIPOS>BOND
     1    22    23    2
     2    23     1    1
     3     1     2    1
     4     1     3    1
     5     3     4    1
     6     4    24    1
     7    24    25    1
     8    25    26    2
     9    25    27    1
    10    27    28    1
    11    28    29    1
    12    29    30   ar
    13    30    31   ar
    14    31    32   ar
    15    32    33   ar
    16    33    34   ar
    17     4     5    1
    18     5     6    1
    19     5     7    1
    20     7     8    1
    21     7     9    1
    22     9    10    1
    23    11    10    1
    24    11    12    1
    25    12    13    1
    26    13    14    1
    27    14    15    2
    28    16    14    1
    29    11    17    1
    30    17    18    1
    31    17    19    1
    32    19    20    1
    33    19     1    1
    34    34    29   ar
    35    16     5    1
    36    16    11    1
    37    20    21    1
@<TRIPOS>MOLECULE
*****
 34 37 0 0 0
SMALL
GASTEIGER

@<TRIPOS>ATOM
      1 C         -17.7349   -4.8699   19.5423 C.3     1  UNL1        0.0468
      2 C         -19.2319   -3.4415   19.8947 C.3     1  UNL1        0.0069
      3 C         -16.7967   -4.8897   19.3205 C.3     1  UNL1        0.0500
      4 C         -16.1467   -5.5853   19.1675 C.3     1  UNL1        0.1694
      5 C         -15.5417   -6.8304   19.0258 C.3     1  UNL1        0.0435
      6 C         -14.2046   -7.4326   18.7103 C.3     1  UNL1        0.0040
      7 C         -16.3362   -6.7058   19.2135 C.3     1  UNL1        0.0038
      8 C         -15.3184   -4.3251   18.9705 C.3     1  UNL1        0.0001
      9 C         -17.1597   -6.5667   19.4080 C.3     1  UNL1        0.0001
     10 C         -17.5928   -7.1653   19.5110 C.3     1  UNL1        0.0005
     11 C         -18.0540   -7.8385   19.6207 C.3     1  UNL1        0.0093
     12 C         -18.5331   -9.2553   19.7354 C.3     1  UNL1        0.0082
     13 C         -17.3697  -10.1616   19.4613 C.3     1  UNL1        0.0645
     14 C         -16.1716   -9.3049   19.1772 C.2     1  UNL1        0.1504
     15 O         -14.7927   -9.7975   18.8518 O.2     1  UNL1       -0.2961
     16 C         -16.5946   -7.8691   19.2758 C.3     1  UNL1        0.0610
     17 C         -18.4306   -6.5017   19.7084 C.3     1  UNL1        0.0276
     18 C         -20.4249   -7.3020   20.1807 C.3     1  UNL1        0.0025
     19 C         -18.4117   -5.5377   19.7030 C.3     1  UNL1        0.1141
     20 O         -20.3728   -4.6544   20.1656 O.3     1  UNL1       -0.3841
     21 H         -20.3039   -3.6870   20.1484 H       1  UNL1        0.2103
     22 C         -17.4118   -1.8101   18.3681 C.2     1  UNL1       -0.0048
     23 C         -17.5766   -2.7773   19.5027 C.2     1  UNL1       -0.0243
     24 O         -14.1526   -4.7851   18.6953 O.3     1  UNL1       -0.4516
     25 C         -13.4801   -3.8385   19.6448 C.2     1  UNL1        0.3284
     26 O         -14.0471   -3.6234   21.0167 O.2     1  UNL1       -0.2491
     27 C         -12.2405   -3.1070   19.2225 C.3     1  UNL1        0.1728
     28 S         -11.4081   -3.6329   18.0909 S.3     1  UNL1       -0.0830
     29 C         -10.8809   -5.0365   18.1367 C.ar    1  UNL1        0.1072
     30 C          -9.8222   -5.4077   19.1324 C.ar    1  UNL1        0.0255
     31 C          -9.2950   -6.8113   19.1782 C.ar    1  UNL1        0.0037
     32 C          -9.8265   -7.8435   18.2284 C.ar    1  UNL1        0.0207
     33 C         -10.8852   -7.4722   17.2328 C.ar    1  UNL1        0.0994
     34 N         -11.4124   -6.0687   17.1870 N.ar    1  UNL1       -0.2376
@<TRIPOS>BOND
     1    22    23    2
     2    23     1    1
     3     1     2    1
     4     1     3    1
     5     3     4    1
     6     4    24    1
     7    24    25    1
     8    25    26    2
     9    25    27    1
    10    27    28    1
    11    28    29    1
    12    29    30   ar
    13    30    31   ar
    14    31    32   ar
    15    32    33   ar
    16    33    34   ar
    17     4     5    1
    18     5     6    1
    19     5     7    1
    20     7     8    1
    21     7     9    1
    22     9    10    1
    23    11    10    1
    24    11    12    1
    25    12    13    1
    26    13    14    1
    27    14    15    2
    28    16    14    1
    29    11    17    1
    30    17    18    1
    31    17    19    1
    32    19    20    1
    33    19     1    1
    34    34    29   ar
    35    16     5    1
    36    16    11    1
    37    20    21    1
