@<TRIPOS>MOLECULE
*****
 30 35 0 0 0
SMALL
GASTEIGER

@<TRIPOS>ATOM
      1 C          -9.1603  -17.2595   23.9775 C.2     1  UNL1       -0.0378
      2 C          -8.2933  -17.7935   22.8760 C.2     1  UNL1       -0.0080
      3 C          -6.8650  -17.3492   22.7634 C.2     1  UNL1        0.0022
      4 C          -6.3038  -16.3709   23.7524 C.2     1  UNL1        0.0350
      5 C          -4.9434  -15.7549   23.8933 C.2     1  UNL1        0.1040
      6 N          -4.9696  -14.8401   25.0819 N.2     1  UNL1       -0.1483
      7 N          -6.3462  -14.8910   25.6755 N.2     1  UNL1       -0.1520
      8 C          -7.1707  -15.8370   24.8539 C.2     1  UNL1        0.0860
      9 C          -8.5990  -16.2813   24.9664 C.3     1  UNL1        0.0697
     10 O         -14.1612  -18.9104   24.5612 O.2     1  UNL1       -0.2744
     11 C         -13.4219  -18.1709   23.4858 C.2     1  UNL1        0.2293
     12 N         -14.0036  -17.6812   22.1928 N.am    1  UNL1       -0.2839
     13 C         -12.9123  -16.9989   21.4224 C.ar    1  UNL1        0.0467
     14 C         -12.9001  -16.3245   20.0827 C.ar    1  UNL1        0.0144
     15 C         -11.6318  -15.7181   19.5598 C.ar    1  UNL1        0.0013
     16 C         -10.3756  -15.7860   20.3767 C.ar    1  UNL1       -0.0002
     17 C         -10.3877  -16.4604   21.7164 C.ar    1  UNL1       -0.0026
     18 C         -11.6561  -17.0668   22.2393 C.ar    1  UNL1       -0.0008
     19 C         -11.9710  -17.7911   23.5145 C.3     1  UNL1        0.0927
     20 C         -11.6799  -18.3861   24.8603 C.3     1  UNL1        0.0179
     21 C         -10.5886  -17.7039   24.0900 C.3     1  UNL1        0.0315
     22 H         -14.9377  -17.7888   21.9010 H       1  UNL1        0.1549
     23 C          -3.7639  -16.0089   23.0021 C.2     1  UNL1        0.0210
     24 C          -3.5295  -17.3800   22.4407 C.2     1  UNL1        0.0031
     25 C          -2.3500  -17.6340   21.5495 C.ar    1  UNL1        0.0192
     26 C          -1.4718  -16.4946   21.1247 C.ar    1  UNL1        0.0031
     27 C          -0.2923  -16.7486   20.2335 C.ar    1  UNL1        0.0207
     28 C           0.0090  -18.1420   19.7670 C.ar    1  UNL1        0.0989
     29 N          -0.8693  -19.2815   20.1917 N.ar    1  UNL1       -0.2423
     30 C          -2.0488  -19.0275   21.0830 C.ar    1  UNL1        0.0988
@<TRIPOS>BOND
     1    10    11    2
     2    11    12   am
     3    12    13    1
     4    13    14   ar
     5    14    15   ar
     6    15    16   ar
     7    16    17   ar
     8    17    18   ar
     9    18    19    1
    10    19    20    1
    11    20    21    1
    12    21     1    1
    13     1     2    2
    14     2     3    1
    15     3     4    2
    16     4     5    1
    17     5    23    1
    18    23    24    2
    19    24    25    1
    20    25    26   ar
    21    26    27   ar
    22    27    28   ar
    23    28    29   ar
    24    29    30   ar
    25     5     6    2
    26     6     7    1
    27     7     8    2
    28     8     9    1
    29    19    11    1
    30     9     1    1
    31    18    13   ar
    32    21    19    1
    33     8     4    1
    34    30    25   ar
    35    12    22    1
@<TRIPOS>MOLECULE
*****
 30 35 0 0 0
SMALL
GASTEIGER

@<TRIPOS>ATOM
      1 C           6.3762   -2.8374   32.3725 C.2     1  UNL1       -0.0378
      2 C           4.9503   -2.7281   32.8255 C.2     1  UNL1       -0.0080
      3 C           4.5421   -1.6269   33.7586 C.2     1  UNL1        0.0022
      4 C           5.5599   -0.6350   34.2388 C.2     1  UNL1        0.0350
      5 C           5.4539    0.5480   35.1548 C.2     1  UNL1        0.1040
      6 N           6.8143    1.1700   35.2680 N.2     1  UNL1       -0.1483
      7 N           7.7609    0.3712   34.4219 N.2     1  UNL1       -0.1520
      8 C           6.9856   -0.7443   33.7859 C.2     1  UNL1        0.0860
      9 C           7.3938   -1.8456   32.8527 C.3     1  UNL1        0.0697
     10 O           7.8693   -6.8428   29.2416 O.2     1  UNL1       -0.2744
     11 C           7.3144   -5.4714   28.9938 C.2     1  UNL1        0.2293
     12 N           7.0283   -4.8651   27.6520 N.am    1  UNL1       -0.2839
     13 C           6.4852   -3.4845   27.8733 C.ar    1  UNL1        0.0467
     14 C           6.0295   -2.4204   26.9194 C.ar    1  UNL1        0.0144
     15 C           5.5242   -1.1093   27.4442 C.ar    1  UNL1        0.0013
     16 C           5.4746   -0.8622   28.9229 C.ar    1  UNL1       -0.0002
     17 C           5.9304   -1.9263   29.8767 C.ar    1  UNL1       -0.0026
     18 C           6.4357   -3.2374   29.3519 C.ar    1  UNL1       -0.0008
     19 C           6.9481   -4.4654   30.0445 C.3     1  UNL1        0.0927
     20 C           7.3273   -5.3192   31.2180 C.3     1  UNL1        0.0179
     21 C           6.7843   -3.9387   31.4393 C.3     1  UNL1        0.0315
     22 H           7.1718   -5.2975   26.7792 H       1  UNL1        0.1549
     23 C           4.2066    1.0254   35.8378 C.2     1  UNL1        0.0210
     24 C           4.0395    0.8311   37.3157 C.2     1  UNL1        0.0031
     25 C           2.7922    1.3085   37.9986 C.ar    1  UNL1        0.0192
     26 C           2.1192    0.4426   39.0220 C.ar    1  UNL1        0.0031
     27 C           0.8719    0.9200   39.7049 C.ar    1  UNL1        0.0207
     28 C           0.2977    2.2633   39.3645 C.ar    1  UNL1        0.0989
     29 N           0.9708    3.1293   38.3412 N.ar    1  UNL1       -0.2423
     30 C           2.2180    2.6519   37.6582 C.ar    1  UNL1        0.0988
@<TRIPOS>BOND
     1    10    11    2
     2    11    12   am
     3    12    13    1
     4    13    14   ar
     5    14    15   ar
     6    15    16   ar
     7    16    17   ar
     8    17    18   ar
     9    18    19    1
    10    19    20    1
    11    20    21    1
    12    21     1    1
    13     1     2    2
    14     2     3    1
    15     3     4    2
    16     4     5    1
    17     5    23    1
    18    23    24    2
    19    24    25    1
    20    25    26   ar
    21    26    27   ar
    22    27    28   ar
    23    28    29   ar
    24    29    30   ar
    25     5     6    2
    26     6     7    1
    27     7     8    2
    28     8     9    1
    29    19    11    1
    30     9     1    1
    31    18    13   ar
    32    21    19    1
    33     8     4    1
    34    30    25   ar
    35    12    22    1
@<TRIPOS>MOLECULE
*****
 30 35 0 0 0
SMALL
GASTEIGER

@<TRIPOS>ATOM
      1 C         -11.6772   -3.4161   18.8767 C.2     1  UNL1       -0.0378
      2 C         -12.9260   -3.3436   19.7046 C.2     1  UNL1       -0.0080
      3 C         -13.7720   -2.1052   19.6791 C.2     1  UNL1        0.0022
      4 C         -13.3692   -0.9393   18.8255 C.2     1  UNL1        0.0350
      5 C         -13.9984    0.4032   18.5986 C.2     1  UNL1        0.1040
      6 N         -13.1386    1.1606   17.6304 N.2     1  UNL1       -0.1483
      7 N         -11.9780    0.2859   17.2590 N.2     1  UNL1       -0.1520
      8 C         -12.1205   -1.0118   17.9976 C.2     1  UNL1        0.0860
      9 C         -11.2745   -2.2503   18.0232 C.3     1  UNL1        0.0697
     10 O          -8.5521   -7.6898   19.0870 O.2     1  UNL1       -0.2744
     11 C          -9.8641   -7.3840   18.4274 C.2     1  UNL1        0.2293
     12 N         -10.6700   -8.3297   17.5870 N.am    1  UNL1       -0.2839
     13 C         -11.9045   -7.6090   17.1325 C.ar    1  UNL1        0.0467
     14 C         -13.0622   -8.0397   16.2815 C.ar    1  UNL1        0.0144
     15 C         -14.1769   -7.0793   15.9899 C.ar    1  UNL1        0.0013
     16 C         -14.1340   -5.6882   16.5494 C.ar    1  UNL1       -0.0002
     17 C         -12.9763   -5.2575   17.4004 C.ar    1  UNL1       -0.0026
     18 C         -11.8616   -6.2179   17.6919 C.ar    1  UNL1       -0.0008
     19 C         -10.6005   -6.0789   18.4922 C.3     1  UNL1        0.0927
     20 C          -9.5968   -5.3753   19.3568 C.3     1  UNL1        0.0179
     21 C         -10.8312   -4.6546   18.9023 C.3     1  UNL1        0.0315
     22 H         -10.4307   -9.2600   17.3716 H       1  UNL1        0.1549
     23 C         -15.2651    0.9012   19.2292 C.2     1  UNL1        0.0210
     24 C         -16.0811   -0.0120   20.0953 C.2     1  UNL1        0.0031
     25 C         -17.3478    0.4859   20.7259 C.ar    1  UNL1        0.0192
     26 C         -17.3215    1.7039   21.6010 C.ar    1  UNL1        0.0031
     27 C         -18.5882    2.2019   22.2315 C.ar    1  UNL1        0.0207
     28 C         -19.8811    1.4818   21.9871 C.ar    1  UNL1        0.0989
     29 N         -19.9074    0.2637   21.1120 N.ar    1  UNL1       -0.2423
     30 C         -18.6408   -0.2342   20.4814 C.ar    1  UNL1        0.0988
@<TRIPOS>BOND
     1    10    11    2
     2    11    12   am
     3    12    13    1
     4    13    14   ar
     5    14    15   ar
     6    15    16   ar
     7    16    17   ar
     8    17    18   ar
     9    18    19    1
    10    19    20    1
    11    20    21    1
    12    21     1    1
    13     1     2    2
    14     2     3    1
    15     3     4    2
    16     4     5    1
    17     5    23    1
    18    23    24    2
    19    24    25    1
    20    25    26   ar
    21    26    27   ar
    22    27    28   ar
    23    28    29   ar
    24    29    30   ar
    25     5     6    2
    26     6     7    1
    27     7     8    2
    28     8     9    1
    29    19    11    1
    30     9     1    1
    31    18    13   ar
    32    21    19    1
    33     8     4    1
    34    30    25   ar
    35    12    22    1
@<TRIPOS>MOLECULE
*****
 30 35 0 0 0
SMALL
GASTEIGER

@<TRIPOS>ATOM
      1 C           2.3447   -0.5428   19.7073 C.2     1  UNL1       -0.0378
      2 C           0.9187   -0.6161   20.1670 C.2     1  UNL1       -0.0080
      3 C           0.0388    0.5954   20.0780 C.2     1  UNL1        0.0022
      4 C           0.5849    1.8802   19.5293 C.2     1  UNL1        0.0350
      5 C          -0.0391    3.2283   19.3212 C.2     1  UNL1        0.1040
      6 N           1.0012    4.1348   18.7329 N.2     1  UNL1       -0.1483
      7 N           2.2681    3.3469   18.5775 N.2     1  UNL1       -0.1520
      8 C           2.0108    1.9536   19.0696 C.2     1  UNL1        0.0860
      9 C           2.8907    0.7420   19.1587 C.3     1  UNL1        0.0697
     10 O           5.4263   -4.8518   19.8174 O.2     1  UNL1       -0.2744
     11 C           4.9669   -3.8668   20.8513 C.2     1  UNL1        0.2293
     12 N           5.3202   -3.8893   22.3089 N.am    1  UNL1       -0.2839
     13 C           4.6452   -2.7228   22.9675 C.ar    1  UNL1        0.0467
     14 C           4.6326   -2.2416   24.3882 C.ar    1  UNL1        0.0144
     15 C           3.8496   -1.0168   24.7582 C.ar    1  UNL1        0.0013
     16 C           3.0792   -0.2734   23.7076 C.ar    1  UNL1       -0.0002
     17 C           3.0918   -0.7546   22.2869 C.ar    1  UNL1       -0.0026
     18 C           3.8748   -1.9793   21.9169 C.ar    1  UNL1       -0.0008
     19 C           4.0737   -2.6864   20.6090 C.3     1  UNL1        0.0927
     20 C           3.8995   -2.9208   19.1378 C.3     1  UNL1        0.0179
     21 C           3.2246   -1.7544   19.7963 C.3     1  UNL1        0.0315
     22 H           5.8942   -4.5531   22.7550 H       1  UNL1        0.1549
     23 C          -1.4549    3.6039   19.6446 C.2     1  UNL1        0.0210
     24 C          -2.0456    3.2300   20.9717 C.2     1  UNL1        0.0031
     25 C          -3.4613    3.6057   21.2951 C.ar    1  UNL1        0.0192
     26 C          -4.5033    3.6024   20.2162 C.ar    1  UNL1        0.0031
     27 C          -5.9191    3.9781   20.5396 C.ar    1  UNL1        0.0207
     28 C          -6.2928    4.3571   21.9419 C.ar    1  UNL1        0.0989
     29 N          -5.2508    4.3604   23.0210 N.ar    1  UNL1       -0.2423
     30 C          -3.8350    3.9847   22.6976 C.ar    1  UNL1        0.0988
@<TRIPOS>BOND
     1    10    11    2
     2    11    12   am
     3    12    13    1
     4    13    14   ar
     5    14    15   ar
     6    15    16   ar
     7    16    17   ar
     8    17    18   ar
     9    18    19    1
    10    19    20    1
    11    20    21    1
    12    21     1    1
    13     1     2    2
    14     2     3    1
    15     3     4    2
    16     4     5    1
    17     5    23    1
    18    23    24    2
    19    24    25    1
    20    25    26   ar
    21    26    27   ar
    22    27    28   ar
    23    28    29   ar
    24    29    30   ar
    25     5     6    2
    26     6     7    1
    27     7     8    2
    28     8     9    1
    29    19    11    1
    30     9     1    1
    31    18    13   ar
    32    21    19    1
    33     8     4    1
    34    30    25   ar
    35    12    22    1
@<TRIPOS>MOLECULE
*****
 30 35 0 0 0
SMALL
GASTEIGER

@<TRIPOS>ATOM
      1 C           3.9996   -1.9079   21.5703 C.2     1  UNL1       -0.0378
      2 C           3.9588   -1.6943   23.0545 C.2     1  UNL1       -0.0080
      3 C           4.8886   -2.4602   23.9483 C.2     1  UNL1        0.0022
      4 C           5.8593   -3.4396   23.3578 C.2     1  UNL1        0.0350
      5 C           6.8902   -4.3319   23.9831 C.2     1  UNL1        0.1040
      6 N           7.5683   -5.0970   22.8853 N.2     1  UNL1       -0.1483
      7 N           6.9563   -4.6774   21.5817 N.2     1  UNL1       -0.1520
      8 C           5.9001   -3.6531   21.8737 C.2     1  UNL1        0.0860
      9 C           4.9702   -2.8872   20.9799 C.3     1  UNL1        0.0697
     10 O           0.5648    0.6610   18.4593 O.2     1  UNL1       -0.2744
     11 C           2.0049    0.8690   18.8237 C.2     1  UNL1        0.2293
     12 N           2.8881    1.9765   18.3304 N.am    1  UNL1       -0.2839
     13 C           4.2437    1.7980   18.9472 C.ar    1  UNL1        0.0467
     14 C           5.5136    2.5871   18.8255 C.ar    1  UNL1        0.0144
     15 C           6.7380    2.1583   19.5783 C.ar    1  UNL1        0.0013
     16 C           6.6927    0.9404   20.4528 C.ar    1  UNL1       -0.0002
     17 C           5.4228    0.1514   20.5745 C.ar    1  UNL1       -0.0026
     18 C           4.1984    0.5802   19.8217 C.ar    1  UNL1       -0.0008
     19 C           2.8147    0.0060   19.7454 C.3     1  UNL1        0.0927
     20 C           1.7141   -0.9635   20.0598 C.3     1  UNL1        0.0179
     21 C           3.0697   -1.1420   20.6765 C.3     1  UNL1        0.0315
     22 H           2.6243    2.6945   17.7106 H       1  UNL1        0.1549
     23 C           7.1905   -4.4402   25.4487 C.2     1  UNL1        0.0210
     24 C           6.9075   -5.7190   26.1798 C.2     1  UNL1        0.0031
     25 C           7.2078   -5.8273   27.6454 C.ar    1  UNL1        0.0192
     26 C           6.4290   -5.0098   28.6330 C.ar    1  UNL1        0.0031
     27 C           6.7293   -5.1181   30.0986 C.ar    1  UNL1        0.0207
     28 C           7.8083   -6.0439   30.5768 C.ar    1  UNL1        0.0989
     29 N           8.5871   -6.8614   29.5892 N.ar    1  UNL1       -0.2423
     30 C           8.2869   -6.7531   28.1236 C.ar    1  UNL1        0.0988
@<TRIPOS>BOND
     1    10    11    2
     2    11    12   am
     3    12    13    1
     4    13    14   ar
     5    14    15   ar
     6    15    16   ar
     7    16    17   ar
     8    17    18   ar
     9    18    19    1
    10    19    20    1
    11    20    21    1
    12    21     1    1
    13     1     2    2
    14     2     3    1
    15     3     4    2
    16     4     5    1
    17     5    23    1
    18    23    24    2
    19    24    25    1
    20    25    26   ar
    21    26    27   ar
    22    27    28   ar
    23    28    29   ar
    24    29    30   ar
    25     5     6    2
    26     6     7    1
    27     7     8    2
    28     8     9    1
    29    19    11    1
    30     9     1    1
    31    18    13   ar
    32    21    19    1
    33     8     4    1
    34    30    25   ar
    35    12    22    1
@<TRIPOS>MOLECULE
*****
 30 35 0 0 0
SMALL
GASTEIGER

@<TRIPOS>ATOM
      1 C           2.4348   -0.6593   20.9196 C.2     1  UNL1       -0.0378
      2 C           1.1164   -0.6254   20.2049 C.2     1  UNL1       -0.0080
      3 C           0.1263    0.4597   20.5085 C.2     1  UNL1        0.0022
      4 C           0.4546    1.5109   21.5270 C.2     1  UNL1        0.0350
      5 C          -0.3161    2.6944   22.0321 C.2     1  UNL1        0.1040
      6 N           0.5258    3.3921   23.0590 N.2     1  UNL1       -0.1483
      7 N           1.8170    2.6396   23.1885 N.2     1  UNL1       -0.1520
      8 C           1.7729    1.4770   22.2417 C.2     1  UNL1        0.0860
      9 C           2.7630    0.3918   21.9380 C.3     1  UNL1        0.0697
     10 O           5.8369   -4.6130   19.9872 O.2     1  UNL1       -0.2744
     11 C           5.6697   -3.2256   19.4422 C.2     1  UNL1        0.2293
     12 N           6.5275   -2.5808   18.3941 N.am    1  UNL1       -0.2839
     13 C           6.0034   -1.1960   18.1536 C.ar    1  UNL1        0.0467
     14 C           6.4495   -0.1000   17.2318 C.ar    1  UNL1        0.0144
     15 C           5.7139    1.2070   17.2095 C.ar    1  UNL1        0.0013
     16 C           4.5322    1.4180   18.1090 C.ar    1  UNL1       -0.0002
     17 C           4.0861    0.3220   19.0308 C.ar    1  UNL1       -0.0026
     18 C           4.8217   -0.9850   19.0531 C.ar    1  UNL1       -0.0008
     19 C           4.6155   -2.2393   19.8494 C.3     1  UNL1        0.0927
     20 C           3.9490   -3.1292   20.8563 C.3     1  UNL1        0.0179
     21 C           3.4249   -1.7445   20.6159 C.3     1  UNL1        0.0315
     22 H           7.2990   -2.9939   17.9432 H       1  UNL1        0.1549
     23 C          -1.6881    3.1079   21.5882 C.2     1  UNL1        0.0210
     24 C          -2.0052    3.2062   20.1254 C.2     1  UNL1        0.0031
     25 C          -3.3771    3.6196   19.6816 C.ar    1  UNL1        0.0192
     26 C          -4.5455    3.4588   20.6084 C.ar    1  UNL1        0.0031
     27 C          -5.9174    3.8722   20.1645 C.ar    1  UNL1        0.0207
     28 C          -6.1209    4.4464   18.7938 C.ar    1  UNL1        0.0989
     29 N          -4.9525    4.6072   17.8669 N.ar    1  UNL1       -0.2423
     30 C          -3.5806    4.1938   18.3108 C.ar    1  UNL1        0.0988
@<TRIPOS>BOND
     1    10    11    2
     2    11    12   am
     3    12    13    1
     4    13    14   ar
     5    14    15   ar
     6    15    16   ar
     7    16    17   ar
     8    17    18   ar
     9    18    19    1
    10    19    20    1
    11    20    21    1
    12    21     1    1
    13     1     2    2
    14     2     3    1
    15     3     4    2
    16     4     5    1
    17     5    23    1
    18    23    24    2
    19    24    25    1
    20    25    26   ar
    21    26    27   ar
    22    27    28   ar
    23    28    29   ar
    24    29    30   ar
    25     5     6    2
    26     6     7    1
    27     7     8    2
    28     8     9    1
    29    19    11    1
    30     9     1    1
    31    18    13   ar
    32    21    19    1
    33     8     4    1
    34    30    25   ar
    35    12    22    1
@<TRIPOS>MOLECULE
*****
 30 35 0 0 0
SMALL
GASTEIGER

@<TRIPOS>ATOM
      1 C           2.9093    1.2691   18.3167 C.2     1  UNL1       -0.0378
      2 C           1.4573    0.9341   18.1443 C.2     1  UNL1       -0.0080
      3 C           0.4129    1.9873   18.3683 C.2     1  UNL1        0.0022
      4 C           0.8206    3.3754   18.7646 C.2     1  UNL1        0.0350
      5 C           0.0223    4.6123   19.0520 C.2     1  UNL1        0.1040
      6 N           0.9808    5.7118   19.4020 N.2     1  UNL1       -0.1483
      7 N           2.3715    5.1542   19.3309 N.2     1  UNL1       -0.1520
      8 C           2.2725    3.7103   18.9370 C.2     1  UNL1        0.0860
      9 C           3.3169    2.6571   18.7130 C.3     1  UNL1        0.0697
     10 O           6.6208   -2.3816   17.3305 O.2     1  UNL1       -0.2744
     11 C           5.7864   -2.0342   18.5277 C.2     1  UNL1        0.2293
     12 N           5.8250   -2.7233   19.8594 N.am    1  UNL1       -0.2839
     13 C           4.8294   -2.0516   20.7580 C.ar    1  UNL1        0.0467
     14 C           4.4338   -2.3029   22.1829 C.ar    1  UNL1        0.0144
     15 C           3.3842   -1.4498   22.8314 C.ar    1  UNL1        0.0013
     16 C           2.7302   -0.3455   22.0550 C.ar    1  UNL1       -0.0002
     17 C           3.1258   -0.0942   20.6301 C.ar    1  UNL1       -0.0026
     18 C           4.1754   -0.9473   19.9816 C.ar    1  UNL1       -0.0008
     19 C           4.7669   -0.9365   18.6032 C.3     1  UNL1        0.0927
     20 C           4.9493   -0.4558   17.1941 C.3     1  UNL1        0.0179
     21 C           3.9537    0.2159   18.0926 C.3     1  UNL1        0.0315
     22 H           6.4025   -3.4831   20.1012 H       1  UNL1        0.1549
     23 C          -1.4722    4.7293   18.9987 C.2     1  UNL1        0.0210
     24 C          -2.3281    3.7573   19.7555 C.2     1  UNL1        0.0031
     25 C          -3.8226    3.8743   19.7023 C.ar    1  UNL1        0.0192
     26 C          -4.6042    4.0806   20.9657 C.ar    1  UNL1        0.0031
     27 C          -6.0987    4.1976   20.9125 C.ar    1  UNL1        0.0207
     28 C          -6.8116    4.1083   19.5957 C.ar    1  UNL1        0.0989
     29 N          -6.0299    3.9019   18.3322 N.ar    1  UNL1       -0.2423
     30 C          -4.5354    3.7849   18.3854 C.ar    1  UNL1        0.0988
@<TRIPOS>BOND
     1    10    11    2
     2    11    12   am
     3    12    13    1
     4    13    14   ar
     5    14    15   ar
     6    15    16   ar
     7    16    17   ar
     8    17    18   ar
     9    18    19    1
    10    19    20    1
    11    20    21    1
    12    21     1    1
    13     1     2    2
    14     2     3    1
    15     3     4    2
    16     4     5    1
    17     5    23    1
    18    23    24    2
    19    24    25    1
    20    25    26   ar
    21    26    27   ar
    22    27    28   ar
    23    28    29   ar
    24    29    30   ar
    25     5     6    2
    26     6     7    1
    27     7     8    2
    28     8     9    1
    29    19    11    1
    30     9     1    1
    31    18    13   ar
    32    21    19    1
    33     8     4    1
    34    30    25   ar
    35    12    22    1
@<TRIPOS>MOLECULE
*****
 30 35 0 0 0
SMALL
GASTEIGER

@<TRIPOS>ATOM
      1 C           2.7625   -1.0391   21.4369 C.2     1  UNL1       -0.0378
      2 C           3.1856   -0.9661   22.8742 C.2     1  UNL1       -0.0080
      3 C           2.5196    0.0047   23.8038 C.2     1  UNL1        0.0022
      4 C           1.4304    0.9024   23.2960 C.2     1  UNL1        0.0350
      5 C           0.5974    1.9509   23.9717 C.2     1  UNL1        0.1040
      6 N          -0.3406    2.5260   22.9521 N.2     1  UNL1       -0.1483
      7 N          -0.0872    1.8328   21.6462 N.2     1  UNL1       -0.1520
      8 C           1.0073    0.8295   21.8587 C.2     1  UNL1        0.0860
      9 C           1.6734   -0.1414   20.9292 C.3     1  UNL1        0.0697
     10 O           4.9745   -4.6111   18.2085 O.2     1  UNL1       -0.2744
     11 C           5.2742   -3.1816   18.5500 C.2     1  UNL1        0.2293
     12 N           6.3939   -2.3569   17.9877 N.am    1  UNL1       -0.2839
     13 C           6.3186   -0.9914   18.6039 C.ar    1  UNL1        0.0467
     14 C           7.1613    0.2370   18.4281 C.ar    1  UNL1        0.0144
     15 C           6.8378    1.4845   19.1954 C.ar    1  UNL1        0.0013
     16 C           5.6716    1.5037   20.1387 C.ar    1  UNL1       -0.0002
     17 C           4.8289    0.2754   20.3145 C.ar    1  UNL1       -0.0026
     18 C           5.1524   -0.9722   19.5472 C.ar    1  UNL1       -0.0008
     19 C           4.5070   -2.3258   19.5138 C.3     1  UNL1        0.0927
     20 C           3.5039   -3.3753   19.8912 C.3     1  UNL1        0.0179
     21 C           3.4286   -2.0099   20.5074 C.3     1  UNL1        0.0315
     22 H           7.0610   -2.6588   17.3297 H       1  UNL1        0.1549
     23 C           0.6866    2.3537   25.4139 C.2     1  UNL1        0.0210
     24 C           0.2423    1.4042   26.4866 C.2     1  UNL1        0.0031
     25 C           0.3315    1.8069   27.9288 C.ar    1  UNL1        0.0192
     26 C           0.6981    3.2151   28.2929 C.ar    1  UNL1        0.0031
     27 C           0.7873    3.6179   29.7351 C.ar    1  UNL1        0.0207
     28 C           0.5100    2.6125   30.8132 C.ar    1  UNL1        0.0989
     29 N           0.1434    1.2042   30.4491 N.ar    1  UNL1       -0.2423
     30 C           0.0541    0.8014   29.0069 C.ar    1  UNL1        0.0988
@<TRIPOS>BOND
     1    10    11    2
     2    11    12   am
     3    12    13    1
     4    13    14   ar
     5    14    15   ar
     6    15    16   ar
     7    16    17   ar
     8    17    18   ar
     9    18    19    1
    10    19    20    1
    11    20    21    1
    12    21     1    1
    13     1     2    2
    14     2     3    1
    15     3     4    2
    16     4     5    1
    17     5    23    1
    18    23    24    2
    19    24    25    1
    20    25    26   ar
    21    26    27   ar
    22    27    28   ar
    23    28    29   ar
    24    29    30   ar
    25     5     6    2
    26     6     7    1
    27     7     8    2
    28     8     9    1
    29    19    11    1
    30     9     1    1
    31    18    13   ar
    32    21    19    1
    33     8     4    1
    34    30    25   ar
    35    12    22    1
@<TRIPOS>MOLECULE
*****
 30 35 0 0 0
SMALL
GASTEIGER

@<TRIPOS>ATOM
      1 C           2.4494   -0.5630   21.4059 C.2     1  UNL1       -0.0378
      2 C           1.1824    0.0794   20.9238 C.2     1  UNL1       -0.0080
      3 C           0.4129    0.9935   21.8306 C.2     1  UNL1        0.0022
      4 C           0.9104    1.2653   23.2194 C.2     1  UNL1        0.0350
      5 C           0.3696    2.1149   24.3309 C.2     1  UNL1        0.1040
      6 N           1.3022    1.9977   25.4999 N.2     1  UNL1       -0.1483
      7 N           2.4194    1.0755   25.1108 N.2     1  UNL1       -0.1520
      8 C           2.1773    0.6229   23.7014 C.2     1  UNL1        0.0860
      9 C           2.9468   -0.2913   22.7946 C.3     1  UNL1        0.0697
     10 O           5.0790   -3.9545   18.2982 O.2     1  UNL1       -0.2744
     11 C           5.0260   -2.4594   18.4061 C.2     1  UNL1        0.2293
     12 N           5.7937   -1.4866   17.5610 N.am    1  UNL1       -0.2839
     13 C           5.4381   -0.1005   18.0107 C.ar    1  UNL1        0.0467
     14 C           5.8860    1.2524   17.5426 C.ar    1  UNL1        0.0144
     15 C           5.3462    2.4892   18.1976 C.ar    1  UNL1        0.0013
     16 C           4.3587    2.3731   19.3206 C.ar    1  UNL1       -0.0002
     17 C           3.9108    1.0202   19.7887 C.ar    1  UNL1       -0.0026
     18 C           4.4505   -0.2166   19.1337 C.ar    1  UNL1       -0.0008
     19 C           4.1958   -1.6744   19.3781 C.3     1  UNL1        0.0927
     20 C           3.5744   -2.8632   20.0493 C.3     1  UNL1        0.0179
     21 C           3.2188   -1.4772   20.4990 C.3     1  UNL1        0.0315
     22 H           6.4209   -1.7174   16.8381 H       1  UNL1        0.1549
     23 C          -0.8839    2.9375   24.2821 C.2     1  UNL1        0.0210
     24 C          -1.8410    2.9153   25.4368 C.2     1  UNL1        0.0031
     25 C          -3.0944    3.7378   25.3879 C.ar    1  UNL1        0.0192
     26 C          -3.8329    4.0554   26.6543 C.ar    1  UNL1        0.0031
     27 C          -5.0863    4.8780   26.6055 C.ar    1  UNL1        0.0207
     28 C          -5.6013    5.3829   25.2902 C.ar    1  UNL1        0.0989
     29 N          -4.8628    5.0653   24.0237 N.ar    1  UNL1       -0.2423
     30 C          -3.6094    4.2427   24.0726 C.ar    1  UNL1        0.0988
@<TRIPOS>BOND
     1    10    11    2
     2    11    12   am
     3    12    13    1
     4    13    14   ar
     5    14    15   ar
     6    15    16   ar
     7    16    17   ar
     8    17    18   ar
     9    18    19    1
    10    19    20    1
    11    20    21    1
    12    21     1    1
    13     1     2    2
    14     2     3    1
    15     3     4    2
    16     4     5    1
    17     5    23    1
    18    23    24    2
    19    24    25    1
    20    25    26   ar
    21    26    27   ar
    22    27    28   ar
    23    28    29   ar
    24    29    30   ar
    25     5     6    2
    26     6     7    1
    27     7     8    2
    28     8     9    1
    29    19    11    1
    30     9     1    1
    31    18    13   ar
    32    21    19    1
    33     8     4    1
    34    30    25   ar
    35    12    22    1
