@<TRIPOS>MOLECULE
*****
 26 27 0 0 0
SMALL
GASTEIGER

@<TRIPOS>ATOM
      1 C          -9.3596  -17.1457   22.5038 C.3     1  UNL1        0.1186
      2 C          -8.4165  -16.5097   23.4818 C.ar    1  UNL1        0.0752
      3 C          -8.7748  -16.4473   24.9370 C.ar    1  UNL1        0.0161
      4 C          -7.8318  -15.8113   25.9149 C.ar    1  UNL1        0.0028
      5 C          -6.5305  -15.2379   25.4375 C.ar    1  UNL1        0.0207
      6 C          -6.1723  -15.3004   23.9823 C.ar    1  UNL1        0.0985
      7 N          -7.1153  -15.9363   23.0044 N.ar    1  UNL1       -0.2468
      8 N         -10.5277  -16.3680   21.9742 N.3     1  UNL1       -0.2677
      9 C         -10.4346  -15.6908   20.6390 C.3     1  UNL1        0.0725
     10 C         -11.5183  -15.8881   19.6208 C.3     1  UNL1        0.0188
     11 C         -11.7891  -16.2674   22.7798 C.3     1  UNL1        0.0724
     12 C         -13.5465  -17.8843   23.8030 C.3     1  UNL1        0.0015
     13 C         -12.8757  -17.2861   22.6022 C.3     1  UNL1        0.0173
     14 C          -9.1344  -18.5593   22.0556 C.3     1  UNL1        0.1186
     15 C          -7.7693  -18.9980   21.6148 C.ar    1  UNL1        0.0752
     16 C          -7.0825  -20.1313   22.3174 C.ar    1  UNL1        0.0161
     17 C          -5.7175  -20.5699   21.8766 C.ar    1  UNL1        0.0028
     18 C          -5.0394  -19.8752   20.7332 C.ar    1  UNL1        0.0207
     19 C          -5.7262  -18.7418   20.0305 C.ar    1  UNL1        0.0985
     20 N          -7.0912  -18.3032   20.4714 N.ar    1  UNL1       -0.2468
     21 N         -10.2743  -19.5343   22.0481 N.3     1  UNL1       -0.2677
     22 C         -10.7102  -20.1884   23.3257 C.3     1  UNL1        0.0725
     23 C          -9.9016  -20.0053   24.5758 C.3     1  UNL1        0.0188
     24 C         -10.9783  -19.8553   20.7631 C.3     1  UNL1        0.0724
     25 C         -10.4069  -19.3870   19.4576 C.3     1  UNL1        0.0173
     26 C          -9.4328  -20.2507   18.7123 C.3     1  UNL1        0.0015
@<TRIPOS>BOND
     1    12    13    1
     2    13    11    1
     3    11     8    1
     4     8     9    1
     5     9    10    1
     6     1     8    1
     7     1     2    1
     8     2     3   ar
     9     3     4   ar
    10     4     5   ar
    11     5     6   ar
    12     6     7   ar
    13     1    14    1
    14    14    15    1
    15    15    16   ar
    16    16    17   ar
    17    17    18   ar
    18    18    19   ar
    19    19    20   ar
    20    14    21    1
    21    21    22    1
    22    22    23    1
    23    21    24    1
    24    24    25    1
    25    25    26    1
    26     7     2   ar
    27    20    15   ar
@<TRIPOS>MOLECULE
*****
 26 27 0 0 0
SMALL
GASTEIGER

@<TRIPOS>ATOM
      1 C          -9.1236  -18.5639   22.0323 C.3     1  UNL1        0.1186
      2 C          -7.7551  -18.9998   21.5995 C.ar    1  UNL1        0.0752
      3 C          -7.0611  -20.1174   22.3201 C.ar    1  UNL1        0.0161
      4 C          -5.6927  -20.5533   21.8872 C.ar    1  UNL1        0.0028
      5 C          -5.0183  -19.8716   20.7337 C.ar    1  UNL1        0.0207
      6 C          -5.7123  -18.7540   20.0131 C.ar    1  UNL1        0.0985
      7 N          -7.0807  -18.3181   20.4460 N.ar    1  UNL1       -0.2468
      8 N         -10.2626  -19.5397   22.0131 N.3     1  UNL1       -0.2677
      9 C         -10.6719  -20.2398   23.2749 C.3     1  UNL1        0.0725
     10 C          -9.9437  -19.9623   24.5566 C.3     1  UNL1        0.0188
     11 C         -10.9924  -19.8154   20.7318 C.3     1  UNL1        0.0724
     12 C          -9.4110  -20.2590   18.7189 C.3     1  UNL1        0.0015
     13 C         -10.4015  -19.3803   19.4236 C.3     1  UNL1        0.0173
     14 C          -9.3530  -17.1522   22.4844 C.3     1  UNL1        0.1186
     15 C          -8.4082  -16.5139   23.4591 C.ar    1  UNL1        0.0752
     16 C          -8.7780  -16.4189   24.9097 C.ar    1  UNL1        0.0161
     17 C          -7.8332  -15.7806   25.8843 C.ar    1  UNL1        0.0028
     18 C          -6.5186  -15.2373   25.4084 C.ar    1  UNL1        0.0207
     19 C          -6.1487  -15.3322   23.9578 C.ar    1  UNL1        0.0985
     20 N          -7.0935  -15.9705   22.9832 N.ar    1  UNL1       -0.2468
     21 N         -10.5272  -16.3787   21.9619 N.3     1  UNL1       -0.2677
     22 C         -10.4434  -15.6985   20.6275 C.3     1  UNL1        0.0725
     23 C         -11.5311  -15.8985   19.6142 C.3     1  UNL1        0.0188
     24 C         -11.7851  -16.2854   22.7736 C.3     1  UNL1        0.0724
     25 C         -12.8598  -17.3194   22.6130 C.3     1  UNL1        0.0173
     26 C         -13.5339  -17.8947   23.8233 C.3     1  UNL1        0.0015
@<TRIPOS>BOND
     1    12    13    1
     2    13    11    1
     3    11     8    1
     4     8     9    1
     5     9    10    1
     6     1     8    1
     7     1     2    1
     8     2     3   ar
     9     3     4   ar
    10     4     5   ar
    11     5     6   ar
    12     6     7   ar
    13     1    14    1
    14    14    15    1
    15    15    16   ar
    16    16    17   ar
    17    17    18   ar
    18    18    19   ar
    19    19    20   ar
    20    14    21    1
    21    21    22    1
    22    22    23    1
    23    21    24    1
    24    24    25    1
    25    25    26    1
    26     7     2   ar
    27    20    15   ar
@<TRIPOS>MOLECULE
*****
 26 27 0 0 0
SMALL
GASTEIGER

@<TRIPOS>ATOM
      1 C          -9.0822  -18.5407   21.8779 C.3     1  UNL1        0.1186
      2 C          -7.6970  -18.9804   21.5067 C.ar    1  UNL1        0.0752
      3 C          -6.9966  -20.0239   22.3255 C.ar    1  UNL1        0.0161
      4 C          -5.6114  -20.4636   21.9542 C.ar    1  UNL1        0.0028
      5 C          -4.9266  -19.8597   20.7641 C.ar    1  UNL1        0.0207
      6 C          -5.6269  -18.8161   19.9453 C.ar    1  UNL1        0.0985
      7 N          -7.0121  -18.3765   20.3166 N.ar    1  UNL1       -0.2468
      8 N         -10.2332  -19.4928   21.7413 N.3     1  UNL1       -0.2677
      9 C         -10.9433  -19.6273   20.4269 C.3     1  UNL1        0.0725
     10 C         -10.1698  -19.5438   19.1445 C.3     1  UNL1        0.0188
     11 C         -10.6740  -20.3105   22.9191 C.3     1  UNL1        0.0724
     12 C         -10.3396  -19.3036   25.2906 C.3     1  UNL1        0.0015
     13 C          -9.9069  -20.2455   24.2065 C.3     1  UNL1        0.0173
     14 C          -9.3165  -17.1489   22.3858 C.3     1  UNL1        0.1186
     15 C          -8.3546  -16.5337   23.3587 C.ar    1  UNL1        0.0752
     16 C          -8.7519  -16.3529   24.7937 C.ar    1  UNL1        0.0161
     17 C          -7.7900  -15.7377   25.7664 C.ar    1  UNL1        0.0028
     18 C          -6.4308  -15.3033   25.3042 C.ar    1  UNL1        0.0207
     19 C          -6.0334  -15.4840   23.8691 C.ar    1  UNL1        0.0985
     20 N          -6.9953  -16.0992   22.8964 N.ar    1  UNL1       -0.2468
     21 N         -10.5126  -16.3722   21.9209 N.3     1  UNL1       -0.2677
     22 C         -10.4749  -15.6535   20.6048 C.3     1  UNL1        0.0725
     23 C         -11.5335  -15.9176   19.5755 C.3     1  UNL1        0.0188
     24 C         -11.7463  -16.3143   22.7721 C.3     1  UNL1        0.0724
     25 C         -12.8194  -17.3496   22.6089 C.3     1  UNL1        0.0173
     26 C         -13.5275  -17.8923   23.8148 C.3     1  UNL1        0.0015
@<TRIPOS>BOND
     1    12    13    1
     2    13    11    1
     3    11     8    1
     4     8     9    1
     5     9    10    1
     6     1     8    1
     7     1     2    1
     8     2     3   ar
     9     3     4   ar
    10     4     5   ar
    11     5     6   ar
    12     6     7   ar
    13     1    14    1
    14    14    15    1
    15    15    16   ar
    16    16    17   ar
    17    17    18   ar
    18    18    19   ar
    19    19    20   ar
    20    14    21    1
    21    21    22    1
    22    22    23    1
    23    21    24    1
    24    24    25    1
    25    25    26    1
    26     7     2   ar
    27    20    15   ar
@<TRIPOS>MOLECULE
*****
 26 27 0 0 0
SMALL
GASTEIGER

@<TRIPOS>ATOM
      1 C          -9.3469  -17.1218   22.3680 C.3     1  UNL1        0.1186
      2 C          -8.3877  -16.5015   23.3402 C.ar    1  UNL1        0.0752
      3 C          -8.7687  -16.3621   24.7843 C.ar    1  UNL1        0.0161
      4 C          -7.8095  -15.7418   25.7564 C.ar    1  UNL1        0.0028
      5 C          -6.4693  -15.2610   25.2845 C.ar    1  UNL1        0.0207
      6 C          -6.0883  -15.4005   23.8405 C.ar    1  UNL1        0.0985
      7 N          -7.0475  -16.0207   22.8683 N.ar    1  UNL1       -0.2468
      8 N         -10.5371  -16.3446   21.8892 N.3     1  UNL1       -0.2677
      9 C         -10.4931  -15.6475   20.5618 C.3     1  UNL1        0.0725
     10 C         -11.5796  -15.8829   19.5547 C.3     1  UNL1        0.0188
     11 C         -11.7713  -16.2643   22.7380 C.3     1  UNL1        0.0724
     12 C         -13.4868  -17.9071   23.7908 C.3     1  UNL1        0.0015
     13 C         -12.8586  -17.2853   22.5789 C.3     1  UNL1        0.0173
     14 C          -9.1159  -18.5194   21.8745 C.3     1  UNL1        0.1186
     15 C          -7.7319  -18.9656   21.5063 C.ar    1  UNL1        0.0752
     16 C          -7.0368  -20.0098   22.3288 C.ar    1  UNL1        0.0161
     17 C          -5.6529  -20.4560   21.9606 C.ar    1  UNL1        0.0028
     18 C          -4.9640  -19.8579   20.7699 C.ar    1  UNL1        0.0207
     19 C          -5.6591  -18.8137   19.9474 C.ar    1  UNL1        0.0985
     20 N          -7.0430  -18.3675   20.3156 N.ar    1  UNL1       -0.2468
     21 N         -10.2688  -19.4707   21.7493 N.3     1  UNL1       -0.2677
     22 C         -10.9790  -19.6198   20.4364 C.3     1  UNL1        0.0725
     23 C         -10.2232  -19.4522   19.1516 C.3     1  UNL1        0.0188
     24 C         -10.7116  -20.2730   22.9368 C.3     1  UNL1        0.0724
     25 C          -9.9066  -20.2464   24.2023 C.3     1  UNL1        0.0173
     26 C         -10.2902  -19.3172   25.3157 C.3     1  UNL1        0.0015
@<TRIPOS>BOND
     1    12    13    1
     2    13    11    1
     3    11     8    1
     4     8     9    1
     5     9    10    1
     6     1     8    1
     7     1     2    1
     8     2     3   ar
     9     3     4   ar
    10     4     5   ar
    11     5     6   ar
    12     6     7   ar
    13     1    14    1
    14    14    15    1
    15    15    16   ar
    16    16    17   ar
    17    17    18   ar
    18    18    19   ar
    19    19    20   ar
    20    14    21    1
    21    21    22    1
    22    22    23    1
    23    21    24    1
    24    24    25    1
    25    25    26    1
    26     7     2   ar
    27    20    15   ar
@<TRIPOS>MOLECULE
*****
 26 27 0 0 0
SMALL
GASTEIGER

@<TRIPOS>ATOM
      1 C          -7.7030  -17.3221   22.8265 C.3     1  UNL1        0.1186
      2 C          -6.6073  -18.0585   22.1141 C.ar    1  UNL1        0.0752
      3 C          -5.3889  -18.5025   22.8679 C.ar    1  UNL1        0.0161
      4 C          -4.2933  -19.2389   22.1555 C.ar    1  UNL1        0.0028
      5 C          -4.4162  -19.5312   20.6894 C.ar    1  UNL1        0.0207
      6 C          -5.6347  -19.0872   19.9357 C.ar    1  UNL1        0.0985
      7 N          -6.7302  -18.3509   20.6480 N.ar    1  UNL1       -0.2468
      8 N          -7.3666  -16.1994   23.7626 N.3     1  UNL1       -0.2677
      9 C          -6.0025  -15.5766   23.7272 C.3     1  UNL1        0.0725
     10 C          -5.2089  -15.4365   24.9924 C.3     1  UNL1        0.0188
     11 C          -8.3944  -15.6994   24.7341 C.3     1  UNL1        0.0724
     12 C          -8.1732  -15.4848   27.3138 C.3     1  UNL1        0.0015
     13 C          -8.4927  -16.3082   26.1014 C.3     1  UNL1        0.0173
     14 C          -9.1350  -17.7085   22.6027 C.3     1  UNL1        0.1186
     15 C          -9.9144  -17.0835   21.4838 C.ar    1  UNL1        0.0752
     16 C         -10.8611  -17.9171   20.6721 C.ar    1  UNL1        0.0161
     17 C         -11.6405  -17.2920   19.5533 C.ar    1  UNL1        0.0028
     18 C         -11.4732  -15.8334   19.2461 C.ar    1  UNL1        0.0207
     19 C         -10.5265  -14.9998   20.0578 C.ar    1  UNL1        0.0985
     20 N          -9.7471  -15.6248   21.1766 N.ar    1  UNL1       -0.2468
     21 N          -9.7876  -18.7199   23.4978 N.3     1  UNL1       -0.2677
     22 C          -9.2110  -20.0997   23.6159 C.3     1  UNL1        0.0725
     23 C          -9.7031  -21.0290   24.6856 C.3     1  UNL1        0.0188
     24 C         -11.0166  -18.3516   24.2747 C.3     1  UNL1        0.0724
     25 C         -12.3754  -18.5832   23.6831 C.3     1  UNL1        0.0173
     26 C         -13.5929  -18.0266   24.3597 C.3     1  UNL1        0.0015
@<TRIPOS>BOND
     1    12    13    1
     2    13    11    1
     3    11     8    1
     4     8     9    1
     5     9    10    1
     6     1     8    1
     7     1     2    1
     8     2     3   ar
     9     3     4   ar
    10     4     5   ar
    11     5     6   ar
    12     6     7   ar
    13     1    14    1
    14    14    15    1
    15    15    16   ar
    16    16    17   ar
    17    17    18   ar
    18    18    19   ar
    19    19    20   ar
    20    14    21    1
    21    21    22    1
    22    22    23    1
    23    21    24    1
    24    24    25    1
    25    25    26    1
    26     7     2   ar
    27    20    15   ar
@<TRIPOS>MOLECULE
*****
 26 27 0 0 0
SMALL
GASTEIGER

@<TRIPOS>ATOM
      1 C          -9.0835  -17.8496   22.7663 C.3     1  UNL1        0.1186
      2 C          -9.8977  -17.2855   21.6398 C.ar    1  UNL1        0.0752
      3 C          -9.9700  -15.8011   21.4367 C.ar    1  UNL1        0.0161
      4 C         -10.7842  -15.2370   20.3103 C.ar    1  UNL1        0.0028
      5 C         -11.5259  -16.1574   19.3868 C.ar    1  UNL1        0.0207
      6 C         -11.4535  -17.6418   19.5898 C.ar    1  UNL1        0.0985
      7 N         -10.6394  -18.2058   20.7163 N.ar    1  UNL1       -0.2468
      8 N          -9.6860  -18.8644   23.6922 N.3     1  UNL1       -0.2677
      9 C          -9.1877  -20.2792   23.6808 C.3     1  UNL1        0.0725
     10 C          -9.6399  -21.2421   24.7383 C.3     1  UNL1        0.0188
     11 C         -10.7867  -18.4643   24.6294 C.3     1  UNL1        0.0724
     12 C         -12.9789  -17.7354   23.4409 C.3     1  UNL1        0.0015
     13 C         -12.2168  -18.7311   24.2640 C.3     1  UNL1        0.0173
     14 C          -7.6670  -17.3990   22.9669 C.3     1  UNL1        0.1186
     15 C          -6.5467  -18.1144   22.2716 C.ar    1  UNL1        0.0752
     16 C          -6.8183  -18.8967   21.0209 C.ar    1  UNL1        0.0161
     17 C          -5.6980  -19.6121   20.3257 C.ar    1  UNL1        0.0028
     18 C          -4.3063  -19.5451   20.8812 C.ar    1  UNL1        0.0207
     19 C          -4.0347  -18.7627   22.1318 C.ar    1  UNL1        0.0985
     20 N          -5.1549  -18.0474   22.8270 N.ar    1  UNL1       -0.2468
     21 N          -7.3706  -16.2330   23.8627 N.3     1  UNL1       -0.2677
     22 C          -6.0476  -15.5323   23.7688 C.3     1  UNL1        0.0725
     23 C          -5.2324  -15.3000   25.0063 C.3     1  UNL1        0.0188
     24 C          -8.3971  -15.7676   24.8525 C.3     1  UNL1        0.0724
     25 C          -8.3655  -16.2789   26.2623 C.3     1  UNL1        0.0173
     26 C          -8.2740  -15.3148   27.4078 C.3     1  UNL1        0.0015
@<TRIPOS>BOND
     1    12    13    1
     2    13    11    1
     3    11     8    1
     4     8     9    1
     5     9    10    1
     6     1     8    1
     7     1     2    1
     8     2     3   ar
     9     3     4   ar
    10     4     5   ar
    11     5     6   ar
    12     6     7   ar
    13     1    14    1
    14    14    15    1
    15    15    16   ar
    16    16    17   ar
    17    17    18   ar
    18    18    19   ar
    19    19    20   ar
    20    14    21    1
    21    21    22    1
    22    22    23    1
    23    21    24    1
    24    24    25    1
    25    25    26    1
    26     7     2   ar
    27    20    15   ar
@<TRIPOS>MOLECULE
*****
 26 27 0 0 0
SMALL
GASTEIGER

@<TRIPOS>ATOM
      1 C          -7.6969  -17.4299   22.7409 C.3     1  UNL1        0.1186
      2 C          -7.0711  -18.5186   21.9202 C.ar    1  UNL1        0.0752
      3 C          -6.8947  -19.8896   22.5026 C.ar    1  UNL1        0.0161
      4 C          -6.2689  -20.9781   21.6820 C.ar    1  UNL1        0.0028
      5 C          -5.8196  -20.6956   20.2790 C.ar    1  UNL1        0.0207
      6 C          -5.9960  -19.3246   19.6967 C.ar    1  UNL1        0.0985
      7 N          -6.6218  -18.2361   20.5173 N.ar    1  UNL1       -0.2468
      8 N          -6.9196  -16.1860   23.0544 N.3     1  UNL1       -0.2677
      9 C          -7.4785  -14.8415   22.6939 C.3     1  UNL1        0.0725
     10 C          -8.1734  -14.6462   21.3790 C.3     1  UNL1        0.0188
     11 C          -5.5832  -16.2865   23.7284 C.3     1  UNL1        0.0724
     12 C          -5.1482  -15.7888   26.2409 C.3     1  UNL1        0.0015
     13 C          -5.2180  -15.3217   24.8172 C.3     1  UNL1        0.0173
     14 C          -9.1000  -17.5853   23.2480 C.3     1  UNL1        0.1186
     15 C         -10.2602  -17.2369   22.3633 C.ar    1  UNL1        0.0752
     16 C         -11.4629  -16.5503   22.9393 C.ar    1  UNL1        0.0161
     17 C         -12.6230  -16.2020   22.0545 C.ar    1  UNL1        0.0028
     18 C         -12.5804  -16.5403   20.5938 C.ar    1  UNL1        0.0207
     19 C         -11.3776  -17.2269   20.0178 C.ar    1  UNL1        0.0985
     20 N         -10.2175  -17.5752   20.9025 N.ar    1  UNL1       -0.2468
     21 N          -9.3430  -18.0891   24.6398 N.3     1  UNL1       -0.2677
     22 C         -10.2211  -19.2848   24.8620 C.3     1  UNL1        0.0725
     23 C          -9.8538  -20.6077   24.2579 C.3     1  UNL1        0.0188
     24 C          -8.7079  -17.3972   25.8094 C.3     1  UNL1        0.0724
     25 C          -8.8378  -15.9107   25.9625 C.3     1  UNL1        0.0173
     26 C          -8.4747  -15.2561   27.2624 C.3     1  UNL1        0.0015
@<TRIPOS>BOND
     1    12    13    1
     2    13    11    1
     3    11     8    1
     4     8     9    1
     5     9    10    1
     6     1     8    1
     7     1     2    1
     8     2     3   ar
     9     3     4   ar
    10     4     5   ar
    11     5     6   ar
    12     6     7   ar
    13     1    14    1
    14    14    15    1
    15    15    16   ar
    16    16    17   ar
    17    17    18   ar
    18    18    19   ar
    19    19    20   ar
    20    14    21    1
    21    21    22    1
    22    22    23    1
    23    21    24    1
    24    24    25    1
    25    25    26    1
    26     7     2   ar
    27    20    15   ar
@<TRIPOS>MOLECULE
*****
 26 27 0 0 0
SMALL
GASTEIGER

@<TRIPOS>ATOM
      1 C          -9.0200  -17.2652   22.5613 C.3     1  UNL1        0.1186
      2 C         -10.2171  -16.7960   21.7887 C.ar    1  UNL1        0.0752
      3 C         -10.0335  -16.0680   20.4902 C.ar    1  UNL1        0.0161
      4 C         -11.2307  -15.5989   19.7177 C.ar    1  UNL1        0.0028
      5 C         -12.6113  -15.8577   20.2437 C.ar    1  UNL1        0.0207
      6 C         -12.7949  -16.5857   21.5423 C.ar    1  UNL1        0.0985
      7 N         -11.5978  -17.0549   22.3148 N.ar    1  UNL1       -0.2468
      8 N          -8.3910  -16.3693   23.5869 N.3     1  UNL1       -0.2677
      9 C          -7.4216  -15.3068   23.1613 C.3     1  UNL1        0.0725
     10 C          -6.0205  -15.3117   23.6968 C.3     1  UNL1        0.0188
     11 C          -8.7315  -16.5361   25.0383 C.3     1  UNL1        0.0724
     12 C          -8.0912  -15.6198   27.3835 C.3     1  UNL1        0.0015
     13 C          -8.5732  -15.3819   25.9832 C.3     1  UNL1        0.0173
     14 C          -8.4518  -18.6301   22.3082 C.3     1  UNL1        0.1186
     15 C          -7.0450  -18.7761   21.8085 C.ar    1  UNL1        0.0752
     16 C          -6.7887  -19.0263   20.3520 C.ar    1  UNL1        0.0161
     17 C          -5.3819  -19.1723   19.8523 C.ar    1  UNL1        0.0028
     18 C          -4.2315  -19.0682   20.8093 C.ar    1  UNL1        0.0207
     19 C          -4.4879  -18.8180   22.2658 C.ar    1  UNL1        0.0985
     20 N          -5.8946  -18.6720   22.7655 N.ar    1  UNL1       -0.2468
     21 N          -9.2904  -19.8491   22.5548 N.3     1  UNL1       -0.2677
     22 C          -9.2913  -20.4978   23.9074 C.3     1  UNL1        0.0725
     23 C         -10.1751  -19.9630   24.9950 C.3     1  UNL1        0.0188
     24 C         -10.1281  -20.4194   21.4490 C.3     1  UNL1        0.0724
     25 C         -10.3627  -19.6239   20.1991 C.3     1  UNL1        0.0173
     26 C          -9.6829  -20.0172   18.9211 C.3     1  UNL1        0.0015
@<TRIPOS>BOND
     1    12    13    1
     2    13    11    1
     3    11     8    1
     4     8     9    1
     5     9    10    1
     6     1     8    1
     7     1     2    1
     8     2     3   ar
     9     3     4   ar
    10     4     5   ar
    11     5     6   ar
    12     6     7   ar
    13     1    14    1
    14    14    15    1
    15    15    16   ar
    16    16    17   ar
    17    17    18   ar
    18    18    19   ar
    19    19    20   ar
    20    14    21    1
    21    21    22    1
    22    22    23    1
    23    21    24    1
    24    24    25    1
    25    25    26    1
    26     7     2   ar
    27    20    15   ar
@<TRIPOS>MOLECULE
*****
 26 27 0 0 0
SMALL
GASTEIGER

@<TRIPOS>ATOM
      1 C          -8.4190  -16.8140   22.5976 C.3     1  UNL1        0.1186
      2 C          -9.0227  -15.9548   21.5264 C.ar    1  UNL1        0.0752
      3 C         -10.3439  -16.3275   20.9219 C.ar    1  UNL1        0.0161
      4 C         -10.9476  -15.4683   19.8508 C.ar    1  UNL1        0.0028
      5 C         -10.2301  -14.2364   19.3842 C.ar    1  UNL1        0.0207
      6 C          -8.9089  -13.8637   19.9887 C.ar    1  UNL1        0.0985
      7 N          -8.3052  -14.7229   21.0599 N.ar    1  UNL1       -0.2468
      8 N          -7.8252  -16.1809   23.8210 N.3     1  UNL1       -0.2677
      9 C          -8.6884  -15.9031   25.0158 C.3     1  UNL1        0.0725
     10 C          -8.0577  -15.5961   26.3417 C.3     1  UNL1        0.0188
     11 C          -6.3681  -15.8256   23.8495 C.3     1  UNL1        0.0724
     12 C          -4.0840  -16.8844   23.2079 C.3     1  UNL1        0.0015
     13 C          -5.3375  -16.9002   24.0315 C.3     1  UNL1        0.0173
     14 C          -8.4090  -18.3062   22.4454 C.3     1  UNL1        0.1186
     15 C          -7.2643  -18.9815   21.7500 C.ar    1  UNL1        0.0752
     16 C          -6.7970  -20.3301   22.2112 C.ar    1  UNL1        0.0161
     17 C          -5.6523  -21.0054   21.5157 C.ar    1  UNL1        0.0028
     18 C          -4.9750  -20.3321   20.3591 C.ar    1  UNL1        0.0207
     19 C          -5.4423  -18.9835   19.8978 C.ar    1  UNL1        0.0985
     20 N          -6.5870  -18.3082   20.5933 N.ar    1  UNL1       -0.2468
     21 N          -9.5437  -19.1231   22.9886 N.3     1  UNL1       -0.2677
     22 C          -9.9384  -18.9935   24.4300 C.3     1  UNL1        0.0725
     23 C         -11.3832  -18.8341   24.8006 C.3     1  UNL1        0.0188
     24 C         -10.2837  -20.0695   22.0905 C.3     1  UNL1        0.0724
     25 C         -10.8373  -19.5849   20.7833 C.3     1  UNL1        0.0173
     26 C         -10.0434  -19.7579   19.5224 C.3     1  UNL1        0.0015
@<TRIPOS>BOND
     1    12    13    1
     2    13    11    1
     3    11     8    1
     4     8     9    1
     5     9    10    1
     6     1     8    1
     7     1     2    1
     8     2     3   ar
     9     3     4   ar
    10     4     5   ar
    11     5     6   ar
    12     6     7   ar
    13     1    14    1
    14    14    15    1
    15    15    16   ar
    16    16    17   ar
    17    17    18   ar
    18    18    19   ar
    19    19    20   ar
    20    14    21    1
    21    21    22    1
    22    22    23    1
    23    21    24    1
    24    24    25    1
    25    25    26    1
    26     7     2   ar
    27    20    15   ar
