@<TRIPOS>MOLECULE
*****
 22 24 0 0 0
SMALL
GASTEIGER

@<TRIPOS>ATOM
      1 C          -7.6685  -18.4273   22.1926 C.3     1  UNL1        0.0604
      2 C          -8.3343  -19.6854   21.7195 C.3     1  UNL1        0.0100
      3 C          -9.8238  -19.7266   21.5474 C.3     1  UNL1        0.0263
      4 C         -10.6476  -18.5097   21.8484 C.ar    1  UNL1       -0.0228
      5 C         -12.1371  -18.5509   21.6763 C.ar    1  UNL1       -0.0045
      6 C         -12.9607  -17.3340   21.9774 C.ar    1  UNL1       -0.0003
      7 C         -12.2949  -16.0759   22.4505 C.ar    1  UNL1       -0.0002
      8 C         -10.8054  -16.0347   22.6226 C.ar    1  UNL1       -0.0011
      9 C          -9.9818  -17.2516   22.3216 C.ar    1  UNL1        0.0133
     10 C          -8.4922  -17.2104   22.4937 C.3     1  UNL1        0.1890
     11 C          -6.1789  -18.3861   22.3647 C.3     1  UNL1        0.0725
     12 C          -4.2895  -19.6679   21.1249 C.3     1  UNL1        0.0859
     13 N          -5.2816  -18.5439   21.1731 N.3     1  UNL1       -0.2962
     14 H          -5.8881  -18.6515   20.3600 H       1  UNL1        0.1233
     15 O          -7.8264  -15.9523   22.9668 O.3     1  UNL1       -0.4750
     16 C          -7.4962  -15.7793   24.4198 C.ar    1  UNL1        0.1348
     17 C          -8.5725  -15.9183   25.4552 C.ar    1  UNL1        0.0366
     18 C          -8.2422  -15.7453   26.9081 C.ar    1  UNL1        0.0031
     19 C          -6.8357  -15.4332   27.3256 C.ar    1  UNL1       -0.0001
     20 C          -5.7594  -15.2942   26.2901 C.ar    1  UNL1       -0.0013
     21 C          -6.0896  -15.4672   24.8372 C.ar    1  UNL1        0.0121
     22 C          -5.0133  -15.3282   23.8017 C.3     1  UNL1        0.0342
@<TRIPOS>BOND
     1    12    13    1
     2    13    11    1
     3     1    11    1
     4     1     2    1
     5     2     3    1
     6     3     4    1
     7     4     5   ar
     8     5     6   ar
     9     6     7   ar
    10     7     8   ar
    11     8     9   ar
    12     9    10    1
    13    10    15    1
    14    15    16    1
    15    16    17   ar
    16    17    18   ar
    17    18    19   ar
    18    19    20   ar
    19    20    21   ar
    20    21    22    1
    21    10     1    1
    22    21    16   ar
    23     9     4   ar
    24    13    14    1
@<TRIPOS>MOLECULE
*****
 22 24 0 0 0
SMALL
GASTEIGER

@<TRIPOS>ATOM
      1 C          -6.2870  -16.2399   23.7030 C.3     1  UNL1        0.0604
      2 C          -4.8783  -16.7081   23.9184 C.3     1  UNL1        0.0100
      3 C          -4.3599  -17.8975   23.1658 C.3     1  UNL1        0.0263
      4 C          -5.2502  -18.6189   22.1978 C.ar    1  UNL1       -0.0228
      5 C          -4.7318  -19.8083   21.4452 C.ar    1  UNL1       -0.0045
      6 C          -5.6222  -20.5296   20.4772 C.ar    1  UNL1       -0.0003
      7 C          -7.0309  -20.0615   20.2619 C.ar    1  UNL1       -0.0002
      8 C          -7.5493  -18.8721   21.0144 C.ar    1  UNL1       -0.0011
      9 C          -6.6589  -18.1508   21.9824 C.ar    1  UNL1        0.0133
     10 C          -7.1773  -16.9612   22.7351 C.3     1  UNL1        0.1890
     11 C          -6.8054  -15.0504   24.4557 C.3     1  UNL1        0.0725
     12 C          -6.5483  -15.4036   27.0167 C.3     1  UNL1        0.0859
     13 N          -6.1842  -14.6622   25.7647 N.3     1  UNL1       -0.2962
     14 H          -5.1749  -14.7548   25.6506 H       1  UNL1        0.1233
     15 O          -8.5860  -16.4931   22.5197 O.3     1  UNL1       -0.4750
     16 C          -9.7274  -17.2344   23.1504 C.ar    1  UNL1        0.1348
     17 C          -9.4736  -18.1666   24.2978 C.ar    1  UNL1        0.0366
     18 C         -10.6150  -18.9078   24.9285 C.ar    1  UNL1        0.0031
     19 C         -12.0101  -18.7170   24.4117 C.ar    1  UNL1       -0.0001
     20 C         -12.2640  -17.7848   23.2642 C.ar    1  UNL1       -0.0013
     21 C         -11.1226  -17.0436   22.6336 C.ar    1  UNL1        0.0121
     22 C         -11.3764  -16.1114   21.4861 C.3     1  UNL1        0.0342
@<TRIPOS>BOND
     1    12    13    1
     2    13    11    1
     3     1    11    1
     4     1     2    1
     5     2     3    1
     6     3     4    1
     7     4     5   ar
     8     5     6   ar
     9     6     7   ar
    10     7     8   ar
    11     8     9   ar
    12     9    10    1
    13    10    15    1
    14    15    16    1
    15    16    17   ar
    16    17    18   ar
    17    18    19   ar
    18    19    20   ar
    19    20    21   ar
    20    21    22    1
    21    10     1    1
    22    21    16   ar
    23     9     4   ar
    24    13    14    1
@<TRIPOS>MOLECULE
*****
 22 24 0 0 0
SMALL
GASTEIGER

@<TRIPOS>ATOM
      1 C          -6.6648  -18.8883   21.3595 C.3     1  UNL1        0.0604
      2 C          -5.2565  -19.0665   21.8441 C.3     1  UNL1        0.0100
      3 C          -4.7051  -18.1538   22.8990 C.3     1  UNL1        0.0263
      4 C          -5.5621  -17.0629   23.4695 C.ar    1  UNL1       -0.0228
      5 C          -5.0108  -16.1502   24.5245 C.ar    1  UNL1       -0.0045
      6 C          -5.8678  -15.0593   25.0949 C.ar    1  UNL1       -0.0003
      7 C          -7.2761  -14.8811   24.6104 C.ar    1  UNL1       -0.0002
      8 C          -7.8275  -15.7937   23.5554 C.ar    1  UNL1       -0.0011
      9 C          -6.9705  -16.8846   22.9850 C.ar    1  UNL1        0.0133
     10 C          -7.5218  -17.7974   21.9300 C.3     1  UNL1        0.1890
     11 C          -7.2162  -19.8011   20.3045 C.3     1  UNL1        0.0725
     12 C          -9.4216  -19.9882   18.9440 C.3     1  UNL1        0.0859
     13 N          -8.1471  -19.2626   19.2589 N.3     1  UNL1       -0.2962
     14 H          -8.4090  -18.3220   19.5540 H       1  UNL1        0.1233
     15 O          -8.9302  -17.6192   21.4454 O.3     1  UNL1       -0.4750
     16 C         -10.0814  -17.9257   22.3570 C.ar    1  UNL1        0.1348
     17 C          -9.9238  -18.9426   23.4483 C.ar    1  UNL1        0.0366
     18 C         -11.0750  -19.2490   24.3598 C.ar    1  UNL1        0.0031
     19 C         -12.3837  -18.5385   24.1800 C.ar    1  UNL1       -0.0001
     20 C         -12.5413  -17.5216   23.0887 C.ar    1  UNL1       -0.0013
     21 C         -11.3901  -17.2151   22.1772 C.ar    1  UNL1        0.0121
     22 C         -11.5477  -16.1982   21.0859 C.3     1  UNL1        0.0342
@<TRIPOS>BOND
     1    12    13    1
     2    13    11    1
     3     1    11    1
     4     1     2    1
     5     2     3    1
     6     3     4    1
     7     4     5   ar
     8     5     6   ar
     9     6     7   ar
    10     7     8   ar
    11     8     9   ar
    12     9    10    1
    13    10    15    1
    14    15    16    1
    15    16    17   ar
    16    17    18   ar
    17    18    19   ar
    18    19    20   ar
    19    20    21   ar
    20    21    22    1
    21    10     1    1
    22    21    16   ar
    23     9     4   ar
    24    13    14    1
@<TRIPOS>MOLECULE
*****
 22 24 0 0 0
SMALL
GASTEIGER

@<TRIPOS>ATOM
      1 C          -6.6602  -18.3840   22.1569 C.3     1  UNL1        0.0604
      2 C          -5.6206  -19.4607   22.0572 C.3     1  UNL1        0.0100
      3 C          -5.7612  -20.5463   21.0317 C.3     1  UNL1        0.0263
      4 C          -6.9415  -20.5553   20.1060 C.ar    1  UNL1       -0.0228
      5 C          -7.0821  -21.6409   19.0805 C.ar    1  UNL1       -0.0045
      6 C          -8.2623  -21.6499   18.1549 C.ar    1  UNL1       -0.0003
      7 C          -9.3020  -20.5732   18.2547 C.ar    1  UNL1       -0.0002
      8 C          -9.1614  -19.4876   19.2801 C.ar    1  UNL1       -0.0011
      9 C          -7.9811  -19.4786   20.2058 C.ar    1  UNL1        0.0133
     10 C          -7.8404  -18.3930   21.2313 C.3     1  UNL1        0.1890
     11 C          -6.5195  -17.2983   23.1825 C.3     1  UNL1        0.0725
     12 C          -7.6213  -15.0648   23.9221 C.3     1  UNL1        0.0859
     13 N          -6.9678  -15.9028   22.8636 N.3     1  UNL1       -0.2962
     14 H          -6.1417  -15.3921   22.5521 H       1  UNL1        0.1233
     15 O          -8.8801  -17.3163   21.3311 O.3     1  UNL1       -0.4750
     16 C         -10.1741  -17.5866   22.0401 C.ar    1  UNL1        0.1348
     17 C         -10.1640  -18.1385   23.4348 C.ar    1  UNL1        0.0366
     18 C         -11.4579  -18.4088   24.1437 C.ar    1  UNL1        0.0031
     19 C         -12.7619  -18.1271   23.4579 C.ar    1  UNL1       -0.0001
     20 C         -12.7720  -17.5752   22.0632 C.ar    1  UNL1       -0.0013
     21 C         -11.4780  -17.3049   21.3543 C.ar    1  UNL1        0.0121
     22 C         -11.4880  -16.7530   19.9595 C.3     1  UNL1        0.0342
@<TRIPOS>BOND
     1    12    13    1
     2    13    11    1
     3     1    11    1
     4     1     2    1
     5     2     3    1
     6     3     4    1
     7     4     5   ar
     8     5     6   ar
     9     6     7   ar
    10     7     8   ar
    11     8     9   ar
    12     9    10    1
    13    10    15    1
    14    15    16    1
    15    16    17   ar
    16    17    18   ar
    17    18    19   ar
    18    19    20   ar
    19    20    21   ar
    20    21    22    1
    21    10     1    1
    22    21    16   ar
    23     9     4   ar
    24    13    14    1
@<TRIPOS>MOLECULE
*****
 22 24 0 0 0
SMALL
GASTEIGER

@<TRIPOS>ATOM
      1 C          -9.5916  -17.3472   21.7557 C.3     1  UNL1        0.0604
      2 C          -9.9725  -18.6033   21.0297 C.3     1  UNL1        0.0100
      3 C          -8.9401  -19.6586   20.7643 C.3     1  UNL1        0.0263
      4 C          -7.5267  -19.4578   21.2249 C.ar    1  UNL1       -0.0228
      5 C          -6.4943  -20.5131   20.9595 C.ar    1  UNL1       -0.0045
      6 C          -5.0810  -20.3122   21.4201 C.ar    1  UNL1       -0.0003
      7 C          -4.7001  -19.0561   22.1461 C.ar    1  UNL1       -0.0002
      8 C          -5.7325  -18.0008   22.4115 C.ar    1  UNL1       -0.0011
      9 C          -7.1458  -18.2017   21.9509 C.ar    1  UNL1        0.0133
     10 C          -8.1783  -17.1464   22.2163 C.3     1  UNL1        0.1890
     11 C         -10.6241  -16.2919   22.0211 C.3     1  UNL1        0.0725
     12 C         -11.6049  -15.8135   19.6634 C.3     1  UNL1        0.0859
     13 N         -11.8077  -16.1547   21.1099 N.3     1  UNL1       -0.2962
     14 H         -12.3039  -17.0454   21.1356 H       1  UNL1        0.1233
     15 O          -7.7974  -15.8903   22.9423 O.3     1  UNL1       -0.4750
     16 C          -7.5884  -15.9164   24.4275 C.ar    1  UNL1        0.1348
     17 C          -8.7045  -16.3425   25.3346 C.ar    1  UNL1        0.0366
     18 C          -8.4955  -16.3686   26.8197 C.ar    1  UNL1        0.0031
     19 C          -7.1704  -15.9687   27.3977 C.ar    1  UNL1       -0.0001
     20 C          -6.0543  -15.5427   26.4907 C.ar    1  UNL1       -0.0013
     21 C          -6.2633  -15.5165   25.0056 C.ar    1  UNL1        0.0121
     22 C          -5.1472  -15.0905   24.0984 C.3     1  UNL1        0.0342
@<TRIPOS>BOND
     1    12    13    1
     2    13    11    1
     3     1    11    1
     4     1     2    1
     5     2     3    1
     6     3     4    1
     7     4     5   ar
     8     5     6   ar
     9     6     7   ar
    10     7     8   ar
    11     8     9   ar
    12     9    10    1
    13    10    15    1
    14    15    16    1
    15    16    17   ar
    16    17    18   ar
    17    18    19   ar
    18    19    20   ar
    19    20    21   ar
    20    21    22    1
    21    10     1    1
    22    21    16   ar
    23     9     4   ar
    24    13    14    1
@<TRIPOS>MOLECULE
*****
 22 24 0 0 0
SMALL
GASTEIGER

@<TRIPOS>ATOM
      1 C          -7.4824  -18.7017   22.0469 C.3     1  UNL1        0.0604
      2 C          -7.0491  -20.0671   21.6019 C.3     1  UNL1        0.0100
      3 C          -5.5901  -20.4111   21.5498 C.3     1  UNL1        0.0263
      4 C          -4.5642  -19.3897   21.9428 C.ar    1  UNL1       -0.0228
      5 C          -3.1051  -19.7337   21.8907 C.ar    1  UNL1       -0.0045
      6 C          -2.0793  -18.7123   22.2837 C.ar    1  UNL1       -0.0003
      7 C          -2.5125  -17.3470   22.7287 C.ar    1  UNL1       -0.0002
      8 C          -3.9716  -17.0030   22.7807 C.ar    1  UNL1       -0.0011
      9 C          -4.9974  -18.0243   22.3878 C.ar    1  UNL1        0.0133
     10 C          -6.4566  -17.6804   22.4399 C.3     1  UNL1        0.1890
     11 C          -8.9415  -18.3578   22.0990 C.3     1  UNL1        0.0725
     12 C         -11.0035  -17.2506   20.9711 C.3     1  UNL1        0.0859
     13 N          -9.5164  -17.3775   21.1199 N.3     1  UNL1       -0.2962
     14 H          -9.1674  -16.4567   21.3859 H       1  UNL1        0.1233
     15 O          -6.8898  -16.3150   22.8849 O.3     1  UNL1       -0.4750
     16 C          -6.9160  -15.9755   24.3458 C.ar    1  UNL1        0.1348
     17 C          -5.6342  -15.7021   25.0753 C.ar    1  UNL1        0.0366
     18 C          -5.6604  -15.3626   26.5361 C.ar    1  UNL1        0.0031
     19 C          -6.9684  -15.2965   27.2674 C.ar    1  UNL1       -0.0001
     20 C          -8.2502  -15.5699   26.5379 C.ar    1  UNL1       -0.0013
     21 C          -8.2240  -15.9093   25.0770 C.ar    1  UNL1        0.0121
     22 C          -9.5058  -16.1827   24.3474 C.3     1  UNL1        0.0342
@<TRIPOS>BOND
     1    12    13    1
     2    13    11    1
     3     1    11    1
     4     1     2    1
     5     2     3    1
     6     3     4    1
     7     4     5   ar
     8     5     6   ar
     9     6     7   ar
    10     7     8   ar
    11     8     9   ar
    12     9    10    1
    13    10    15    1
    14    15    16    1
    15    16    17   ar
    16    17    18   ar
    17    18    19   ar
    18    19    20   ar
    19    20    21   ar
    20    21    22    1
    21    10     1    1
    22    21    16   ar
    23     9     4   ar
    24    13    14    1
@<TRIPOS>MOLECULE
*****
 22 24 0 0 0
SMALL
GASTEIGER

@<TRIPOS>ATOM
      1 C          -6.9131  -16.4214   23.9486 C.3     1  UNL1        0.0604
      2 C          -5.4447  -16.1154   23.9385 C.3     1  UNL1        0.0100
      3 C          -4.5018  -16.9891   23.1656 C.3     1  UNL1        0.0263
      4 C          -5.0272  -18.1690   22.4028 C.ar    1  UNL1       -0.0228
      5 C          -4.0843  -19.0427   21.6299 C.ar    1  UNL1       -0.0045
      6 C          -4.6098  -20.2225   20.8671 C.ar    1  UNL1       -0.0003
      7 C          -6.0782  -20.5286   20.8772 C.ar    1  UNL1       -0.0002
      8 C          -7.0211  -19.6548   21.6501 C.ar    1  UNL1       -0.0011
      9 C          -6.4956  -18.4751   22.4129 C.ar    1  UNL1        0.0133
     10 C          -7.4386  -17.6012   23.1858 C.3     1  UNL1        0.1890
     11 C          -7.8560  -15.5476   24.7216 C.3     1  UNL1        0.0725
     12 C          -8.1138  -15.8243   27.2920 C.3     1  UNL1        0.0859
     13 N          -7.5078  -15.1177   26.1158 N.3     1  UNL1       -0.2962
     14 H          -6.4959  -15.2076   26.2076 H       1  UNL1        0.1233
     15 O          -8.9070  -17.9073   23.1959 O.3     1  UNL1       -0.4750
     16 C          -9.7772  -17.4454   22.0647 C.ar    1  UNL1        0.1348
     17 C          -9.7326  -16.0134   21.6206 C.ar    1  UNL1        0.0366
     18 C         -10.6028  -15.5516   20.4894 C.ar    1  UNL1        0.0031
     19 C         -11.5175  -16.5218   19.8024 C.ar    1  UNL1       -0.0001
     20 C         -11.5620  -17.9538   20.2465 C.ar    1  UNL1       -0.0013
     21 C         -10.6918  -18.4156   21.3777 C.ar    1  UNL1        0.0121
     22 C         -10.7364  -19.8477   21.8218 C.3     1  UNL1        0.0342
@<TRIPOS>BOND
     1    12    13    1
     2    13    11    1
     3     1    11    1
     4     1     2    1
     5     2     3    1
     6     3     4    1
     7     4     5   ar
     8     5     6   ar
     9     6     7   ar
    10     7     8   ar
    11     8     9   ar
    12     9    10    1
    13    10    15    1
    14    15    16    1
    15    16    17   ar
    16    17    18   ar
    17    18    19   ar
    18    19    20   ar
    19    20    21   ar
    20    21    22    1
    21    10     1    1
    22    21    16   ar
    23     9     4   ar
    24    13    14    1
@<TRIPOS>MOLECULE
*****
 22 24 0 0 0
SMALL
GASTEIGER

@<TRIPOS>ATOM
      1 C         -10.4909  -18.1278   20.7811 C.3     1  UNL1        0.0604
      2 C         -10.2432  -19.2767   19.8490 C.3     1  UNL1        0.0100
      3 C          -8.8879  -19.9168   19.7912 C.3     1  UNL1        0.0263
      4 C          -7.7802  -19.4081   20.6656 C.ar    1  UNL1       -0.0228
      5 C          -6.4250  -20.0482   20.6078 C.ar    1  UNL1       -0.0045
      6 C          -5.3174  -19.5395   21.4821 C.ar    1  UNL1       -0.0003
      7 C          -5.5651  -18.3907   22.4142 C.ar    1  UNL1       -0.0002
      8 C          -6.9204  -17.7505   22.4719 C.ar    1  UNL1       -0.0011
      9 C          -8.0280  -18.2593   21.5976 C.ar    1  UNL1        0.0133
     10 C          -9.3833  -17.6191   21.6554 C.3     1  UNL1        0.1890
     11 C         -11.8463  -17.4877   20.8388 C.3     1  UNL1        0.0725
     12 C         -11.3365  -15.5181   19.2231 C.3     1  UNL1        0.0859
     13 N         -12.2833  -16.5570   19.7467 N.3     1  UNL1       -0.2962
     14 H         -12.5499  -17.1392   18.9528 H       1  UNL1        0.1233
     15 O          -9.6311  -16.4703   22.5875 O.3     1  UNL1       -0.4750
     16 C          -9.2191  -16.5696   24.0264 C.ar    1  UNL1        0.1348
     17 C          -8.2897  -15.5486   24.6126 C.ar    1  UNL1        0.0366
     18 C          -7.8777  -15.6480   26.0515 C.ar    1  UNL1        0.0031
     19 C          -8.3952  -16.7684   26.9041 C.ar    1  UNL1       -0.0001
     20 C          -9.3245  -17.7894   26.3179 C.ar    1  UNL1       -0.0013
     21 C          -9.7365  -17.6900   24.8790 C.ar    1  UNL1        0.0121
     22 C         -10.6659  -18.7111   24.2927 C.3     1  UNL1        0.0342
@<TRIPOS>BOND
     1    12    13    1
     2    13    11    1
     3     1    11    1
     4     1     2    1
     5     2     3    1
     6     3     4    1
     7     4     5   ar
     8     5     6   ar
     9     6     7   ar
    10     7     8   ar
    11     8     9   ar
    12     9    10    1
    13    10    15    1
    14    15    16    1
    15    16    17   ar
    16    17    18   ar
    17    18    19   ar
    18    19    20   ar
    19    20    21   ar
    20    21    22    1
    21    10     1    1
    22    21    16   ar
    23     9     4   ar
    24    13    14    1
@<TRIPOS>MOLECULE
*****
 22 24 0 0 0
SMALL
GASTEIGER

@<TRIPOS>ATOM
      1 C          -6.3102  -16.9397   23.1518 C.3     1  UNL1        0.0604
      2 C          -4.9828  -16.7442   23.8224 C.3     1  UNL1        0.0100
      3 C          -3.7928  -17.5413   23.3770 C.3     1  UNL1        0.0263
      4 C          -3.9301  -18.5340   22.2608 C.ar    1  UNL1       -0.0228
      5 C          -2.7401  -19.3311   21.8153 C.ar    1  UNL1       -0.0045
      6 C          -2.8775  -20.3236   20.6991 C.ar    1  UNL1       -0.0003
      7 C          -4.2049  -20.5191   20.0285 C.ar    1  UNL1       -0.0002
      8 C          -5.3949  -19.7221   20.4739 C.ar    1  UNL1       -0.0011
      9 C          -5.2575  -18.7295   21.5901 C.ar    1  UNL1        0.0133
     10 C          -6.4476  -17.9323   22.0356 C.3     1  UNL1        0.1890
     11 C          -7.5002  -16.1425   23.5973 C.3     1  UNL1        0.0725
     12 C          -8.3864  -14.7743   21.5743 C.3     1  UNL1        0.0859
     13 N          -7.8009  -14.8210   22.9545 N.3     1  UNL1       -0.2962
     14 H          -8.4559  -14.3371   23.5687 H       1  UNL1        0.1233
     15 O          -7.7749  -18.1278   21.3649 O.3     1  UNL1       -0.4750
     16 C          -8.8896  -18.8172   22.0946 C.ar    1  UNL1        0.1348
     17 C          -8.5780  -19.7962   23.1875 C.ar    1  UNL1        0.0366
     18 C          -9.6927  -20.4855   23.9171 C.ar    1  UNL1        0.0031
     19 C         -11.1189  -20.1958   23.5538 C.ar    1  UNL1       -0.0001
     20 C         -11.4305  -19.2168   22.4609 C.ar    1  UNL1       -0.0013
     21 C         -10.3158  -18.5275   21.7313 C.ar    1  UNL1        0.0121
     22 C         -10.6274  -17.5485   20.6384 C.3     1  UNL1        0.0342
@<TRIPOS>BOND
     1    12    13    1
     2    13    11    1
     3     1    11    1
     4     1     2    1
     5     2     3    1
     6     3     4    1
     7     4     5   ar
     8     5     6   ar
     9     6     7   ar
    10     7     8   ar
    11     8     9   ar
    12     9    10    1
    13    10    15    1
    14    15    16    1
    15    16    17   ar
    16    17    18   ar
    17    18    19   ar
    18    19    20   ar
    19    20    21   ar
    20    21    22    1
    21    10     1    1
    22    21    16   ar
    23     9     4   ar
    24    13    14    1
