@<TRIPOS>MOLECULE
*****
 36 40 0 0 0
SMALL
GASTEIGER

@<TRIPOS>ATOM
      1 C           5.3956   -0.4684   34.8248 C.ar    1  UNL1        0.2383
      2 N           6.8774   -0.2363   34.8151 N.ar    1  UNL1       -0.2093
      3 C           7.5135    0.5938   35.8904 C.ar    1  UNL1        0.1209
      4 C           6.6677    1.1919   36.9753 C.ar    1  UNL1        0.1021
      5 C           7.0106    2.0479   38.1584 C.ar    1  UNL1        0.0223
      6 C           5.7406    2.3448   38.8993 C.ar    1  UNL1        0.0208
      7 C           4.6128    1.6724   38.1740 C.ar    1  UNL1        0.0842
      8 N           5.1859    0.9599   36.9849 N.ar    1  UNL1       -0.2255
      9 N           4.5498    0.1297   35.9096 N.ar    1  UNL1       -0.1295
     10 C           3.1661    1.7065   38.5685 C.ar    1  UNL1        0.0326
     11 C           2.5498    0.5280   39.2622 C.ar    1  UNL1        0.0028
     12 C           1.1030    0.5621   39.6567 C.ar    1  UNL1        0.0001
     13 C           0.2724    1.7747   39.3575 C.ar    1  UNL1        0.0013
     14 C           0.8887    2.9532   38.6638 C.ar    1  UNL1        0.0162
     15 C           2.3354    2.9191   38.2693 C.ar    1  UNL1        0.0699
     16 N           2.9516    4.0977   37.5755 N.pl3   1  UNL1       -0.1925
     17 C           3.3691    5.3007   38.3684 C.3     1  UNL1        0.1388
     18 S           3.1503    4.0734   36.0890 S.O2    1  UNL1        0.0588
     19 C           3.3489    4.0490   34.6024 C.3     1  UNL1        0.1999
     20 O           4.5662    4.5339   36.2706 O.2     1  UNL1       -0.1542
     21 O           1.7343    3.6128   35.9073 O.2     1  UNL1       -0.1542
     22 N           4.7594   -1.2986   33.7495 N.pl3   1  UNL1       -0.2814
     23 H           4.9265   -2.2681   33.7124 H       1  UNL1        0.1551
     24 C           2.0870    0.6424   30.6932 C.ar    1  UNL1        0.0480
     25 C           2.3418    1.3217   32.0061 C.ar    1  UNL1        0.0158
     26 C           3.2326    0.6747   33.0248 C.ar    1  UNL1        0.0159
     27 C           3.8686   -0.6516   32.7307 C.ar    1  UNL1        0.0506
     28 C           3.6139   -1.3308   31.4178 C.ar    1  UNL1        0.0159
     29 C           2.7231   -0.6838   30.3990 C.ar    1  UNL1        0.0158
     30 C          -1.4760    3.2304   26.6181 C.3     1  UNL1        0.0897
     31 N          -0.5853    2.5834   27.6369 N.3     1  UNL1       -0.2686
     32 C          -0.6376    1.0988   27.8440 C.3     1  UNL1        0.0938
     33 C           0.2532    0.4517   28.8628 C.3     1  UNL1        0.1081
     34 N           1.1963    1.2894   29.6744 N.pl3   1  UNL1       -0.3046
     35 C           1.2486    2.7742   29.4673 C.3     1  UNL1        0.1081
     36 C           0.3578    3.4212   28.4485 C.3     1  UNL1        0.0938
@<TRIPOS>BOND
     1    30    31    1
     2    31    32    1
     3    32    33    1
     4    33    34    1
     5    34    24    1
     6    24    25   ar
     7    25    26   ar
     8    26    27   ar
     9    27    22    1
    10    22     1    1
    11     1     2   ar
    12     2     3   ar
    13     3     4   ar
    14     4     5   ar
    15     5     6   ar
    16     6     7   ar
    17     7    10    1
    18    10    11   ar
    19    11    12   ar
    20    12    13   ar
    21    13    14   ar
    22    14    15   ar
    23    15    16    1
    24    16    17    1
    25    16    18    1
    26    18    19    1
    27    18    20    2
    28    18    21    2
    29     7     8   ar
    30     8     9   ar
    31    27    28   ar
    32    28    29   ar
    33    34    35    1
    34    35    36    1
    35    36    31    1
    36    29    24   ar
    37     9     1   ar
    38     8     4   ar
    39    15    10   ar
    40    22    23    1
@<TRIPOS>MOLECULE
*****
 36 40 0 0 0
SMALL
GASTEIGER

@<TRIPOS>ATOM
      1 C           2.1694    2.9363   33.3404 C.ar    1  UNL1        0.2383
      2 N           2.6701    4.2592   32.8412 N.ar    1  UNL1       -0.2093
      3 C           3.0374    5.3384   33.8161 C.ar    1  UNL1        0.1209
      4 C           2.9041    5.0947   35.2902 C.ar    1  UNL1        0.1021
      5 C           3.1874    5.9623   36.4806 C.ar    1  UNL1        0.0223
      6 C           2.8618    5.1755   37.7155 C.ar    1  UNL1        0.0208
      7 C           2.3773    3.8217   37.2883 C.ar    1  UNL1        0.0842
      8 N           2.4035    3.7718   35.7893 N.ar    1  UNL1       -0.2255
      9 N           2.0361    2.6926   34.8145 N.ar    1  UNL1       -0.1295
     10 C           1.9429    2.7126   38.1999 C.ar    1  UNL1        0.0326
     11 C           0.5957    2.7661   38.8572 C.ar    1  UNL1        0.0028
     12 C           0.1613    1.6570   39.7689 C.ar    1  UNL1        0.0001
     13 C           1.0742    0.4943   40.0232 C.ar    1  UNL1        0.0013
     14 C           2.4214    0.4407   39.3659 C.ar    1  UNL1        0.0162
     15 C           2.8558    1.5498   38.4543 C.ar    1  UNL1        0.0699
     16 N           4.2030    1.4962   37.7970 N.pl3   1  UNL1       -0.1925
     17 C           4.4569    0.5217   36.6853 C.3     1  UNL1        0.1388
     18 S           5.2964    2.4171   38.2515 S.O2    1  UNL1        0.0588
     19 C           6.3897    3.3380   38.7059 C.3     1  UNL1        0.1999
     20 O           5.6125    2.7468   36.8227 O.2     1  UNL1       -0.1542
     21 O           4.9802    2.0874   39.6802 O.2     1  UNL1       -0.1542
     22 N           1.8021    1.8571   32.3655 N.pl3   1  UNL1       -0.2814
     23 H           0.9115    1.8552   31.9458 H       1  UNL1        0.1551
     24 C           4.7704   -1.3720   31.3596 C.ar    1  UNL1        0.0480
     25 C           3.8772   -0.8150   30.2910 C.ar    1  UNL1        0.0158
     26 C           2.8878    0.2614   30.6263 C.ar    1  UNL1        0.0159
     27 C           2.7915    0.7807   32.0302 C.ar    1  UNL1        0.0506
     28 C           3.6847    0.2237   33.0988 C.ar    1  UNL1        0.0159
     29 C           4.6742   -0.8527   32.7635 C.ar    1  UNL1        0.0158
     30 C           8.7282   -5.6774   30.0183 C.3     1  UNL1        0.0897
     31 N           7.7387   -4.6010   30.3536 N.3     1  UNL1       -0.2686
     32 C           7.1504   -4.5259   31.7313 C.3     1  UNL1        0.0938
     33 C           6.1610   -3.4495   32.0667 C.3     1  UNL1        0.1081
     34 N           5.7598   -2.4483   31.0243 N.pl3   1  UNL1       -0.3046
     35 C           6.3482   -2.5235   29.6465 C.3     1  UNL1        0.1081
     36 C           7.3376   -3.5998   29.3111 C.3     1  UNL1        0.0938
@<TRIPOS>BOND
     1    30    31    1
     2    31    32    1
     3    32    33    1
     4    33    34    1
     5    34    24    1
     6    24    25   ar
     7    25    26   ar
     8    26    27   ar
     9    27    22    1
    10    22     1    1
    11     1     2   ar
    12     2     3   ar
    13     3     4   ar
    14     4     5   ar
    15     5     6   ar
    16     6     7   ar
    17     7    10    1
    18    10    11   ar
    19    11    12   ar
    20    12    13   ar
    21    13    14   ar
    22    14    15   ar
    23    15    16    1
    24    16    17    1
    25    16    18    1
    26    18    19    1
    27    18    20    2
    28    18    21    2
    29     7     8   ar
    30     8     9   ar
    31    27    28   ar
    32    28    29   ar
    33    34    35    1
    34    35    36    1
    35    36    31    1
    36    29    24   ar
    37     9     1   ar
    38     8     4   ar
    39    15    10   ar
    40    22    23    1
@<TRIPOS>MOLECULE
*****
 36 40 0 0 0
SMALL
GASTEIGER

@<TRIPOS>ATOM
      1 C           8.1336   -3.3157   21.0923 C.ar    1  UNL1        0.2383
      2 N           9.4195   -2.9687   20.4024 N.ar    1  UNL1       -0.2093
      3 C           9.5196   -1.7110   19.5912 C.ar    1  UNL1        0.1209
      4 C           8.3339   -0.8003   19.4698 C.ar    1  UNL1        0.1021
      5 C           8.1352    0.4976   18.7444 C.ar    1  UNL1        0.0223
      6 C           6.7265    0.9526   18.9861 C.ar    1  UNL1        0.0208
      7 C           6.0546   -0.0640   19.8607 C.ar    1  UNL1        0.0842
      8 N           7.0480   -1.1474   20.1597 N.ar    1  UNL1       -0.2255
      9 N           6.9478   -2.4050   20.9709 N.ar    1  UNL1       -0.1295
     10 C           4.6379   -0.0072   20.3505 C.ar    1  UNL1        0.0326
     11 C           4.2983    0.7938   21.5724 C.ar    1  UNL1        0.0028
     12 C           2.8816    0.8505   22.0621 C.ar    1  UNL1        0.0001
     13 C           1.8046    0.1063   21.3299 C.ar    1  UNL1        0.0013
     14 C           2.1442   -0.6946   20.1081 C.ar    1  UNL1        0.0162
     15 C           3.5609   -0.7514   19.6183 C.ar    1  UNL1        0.0699
     16 N           3.9004   -1.5524   18.3964 N.pl3   1  UNL1       -0.1925
     17 C           3.7705   -0.9356   17.0353 C.3     1  UNL1        0.1388
     18 S           4.3699   -2.9702   18.5356 S.O2    1  UNL1        0.0588
     19 C           4.8394   -4.3880   18.6748 C.3     1  UNL1        0.1999
     20 O           3.2163   -3.2626   19.4486 O.2     1  UNL1       -0.1542
     21 O           5.5236   -2.6778   17.6226 O.2     1  UNL1       -0.1542
     22 N           8.0334   -4.5734   21.9036 N.pl3   1  UNL1       -0.2814
     23 H           8.1148   -5.4506   21.4640 H       1  UNL1        0.1551
     24 C           7.3603   -4.3374   26.3467 C.ar    1  UNL1        0.0480
     25 C           7.4687   -5.6739   25.6745 C.ar    1  UNL1        0.0158
     26 C           7.6930   -5.7526   24.1935 C.ar    1  UNL1        0.0159
     27 C           7.8090   -4.4947   23.3846 C.ar    1  UNL1        0.0506
     28 C           7.7006   -3.1582   24.0568 C.ar    1  UNL1        0.0159
     29 C           7.4762   -3.0795   25.5378 C.ar    1  UNL1        0.0158
     30 C           6.4629   -4.0226   32.2708 C.3     1  UNL1        0.0897
     31 N           6.6872   -4.1013   30.7898 N.3     1  UNL1       -0.2686
     32 C           6.7781   -2.8438   29.9772 C.3     1  UNL1        0.0938
     33 C           7.0025   -2.9224   28.4961 C.3     1  UNL1        0.1081
     34 N           7.1359   -4.2586   27.8277 N.pl3   1  UNL1       -0.3046
     35 C           7.0450   -5.5162   28.6404 C.3     1  UNL1        0.1081
     36 C           6.8207   -5.4375   30.1214 C.3     1  UNL1        0.0938
@<TRIPOS>BOND
     1    30    31    1
     2    31    32    1
     3    32    33    1
     4    33    34    1
     5    34    24    1
     6    24    25   ar
     7    25    26   ar
     8    26    27   ar
     9    27    22    1
    10    22     1    1
    11     1     2   ar
    12     2     3   ar
    13     3     4   ar
    14     4     5   ar
    15     5     6   ar
    16     6     7   ar
    17     7    10    1
    18    10    11   ar
    19    11    12   ar
    20    12    13   ar
    21    13    14   ar
    22    14    15   ar
    23    15    16    1
    24    16    17    1
    25    16    18    1
    26    18    19    1
    27    18    20    2
    28    18    21    2
    29     7     8   ar
    30     8     9   ar
    31    27    28   ar
    32    28    29   ar
    33    34    35    1
    34    35    36    1
    35    36    31    1
    36    29    24   ar
    37     9     1   ar
    38     8     4   ar
    39    15    10   ar
    40    22    23    1
@<TRIPOS>MOLECULE
*****
 36 40 0 0 0
SMALL
GASTEIGER

@<TRIPOS>ATOM
      1 C           2.8514    1.4427   24.0198 C.ar    1  UNL1        0.2383
      2 N           1.5264    2.1295   23.8692 N.ar    1  UNL1       -0.2093
      3 C           0.6318    1.7885   22.7145 C.ar    1  UNL1        0.1209
      4 C           1.0622    0.7607   21.7104 C.ar    1  UNL1        0.1021
      5 C           0.3978    0.2213   20.4784 C.ar    1  UNL1        0.0223
      6 C           1.3122   -0.7989   19.8675 C.ar    1  UNL1        0.0208
      7 C           2.5417   -0.8900   20.7220 C.ar    1  UNL1        0.0842
      8 N           2.3872    0.0738   21.8609 N.ar    1  UNL1       -0.2255
      9 N           3.2817    0.4149   23.0156 N.ar    1  UNL1       -0.1295
     10 C           3.7190   -1.7874   20.4800 C.ar    1  UNL1        0.0326
     11 C           4.0136   -2.9106   21.4295 C.ar    1  UNL1        0.0028
     12 C           5.1909   -3.8080   21.1875 C.ar    1  UNL1        0.0001
     13 C           6.0737   -3.5822   19.9960 C.ar    1  UNL1        0.0013
     14 C           5.7791   -2.4590   19.0465 C.ar    1  UNL1        0.0162
     15 C           4.6018   -1.5616   19.2885 C.ar    1  UNL1        0.0699
     16 N           4.3073   -0.4383   18.3390 N.pl3   1  UNL1       -0.1925
     17 C           3.7370   -0.7324   16.9832 C.3     1  UNL1        0.1388
     18 S           4.5831    0.9790   18.7453 S.O2    1  UNL1        0.0588
     19 C           4.8589    2.3963   19.1516 C.3     1  UNL1        0.1999
     20 O           5.9039    0.5578   19.3180 O.2     1  UNL1       -0.1542
     21 O           3.2623    1.4002   18.1726 O.2     1  UNL1       -0.1542
     22 N           3.7460    1.7837   25.1745 N.pl3   1  UNL1       -0.2814
     23 H           3.9850    2.7222   25.3517 H       1  UNL1        0.1551
     24 C           5.3378   -1.4830   27.8288 C.ar    1  UNL1        0.0480
     25 C           6.2833   -0.5145   27.1822 C.ar    1  UNL1        0.0158
     26 C           5.7527    0.5744   26.2975 C.ar    1  UNL1        0.0159
     27 C           4.2766    0.6948   26.0593 C.ar    1  UNL1        0.0506
     28 C           3.3311   -0.2737   26.7058 C.ar    1  UNL1        0.0159
     29 C           3.8618   -1.3626   27.5906 C.ar    1  UNL1        0.0158
     30 C           7.4601   -5.8385   31.3678 C.3     1  UNL1        0.0897
     31 N           6.9295   -4.7497   30.4830 N.3     1  UNL1       -0.2686
     32 C           6.6021   -3.4054   31.0624 C.3     1  UNL1        0.0938
     33 C           6.0715   -2.3164   30.1776 C.3     1  UNL1        0.1081
     34 N           5.8684   -2.5718   28.7135 N.pl3   1  UNL1       -0.3046
     35 C           6.1958   -3.9162   28.1342 C.3     1  UNL1        0.1081
     36 C           6.7264   -5.0051   29.0189 C.3     1  UNL1        0.0938
@<TRIPOS>BOND
     1    30    31    1
     2    31    32    1
     3    32    33    1
     4    33    34    1
     5    34    24    1
     6    24    25   ar
     7    25    26   ar
     8    26    27   ar
     9    27    22    1
    10    22     1    1
    11     1     2   ar
    12     2     3   ar
    13     3     4   ar
    14     4     5   ar
    15     5     6   ar
    16     6     7   ar
    17     7    10    1
    18    10    11   ar
    19    11    12   ar
    20    12    13   ar
    21    13    14   ar
    22    14    15   ar
    23    15    16    1
    24    16    17    1
    25    16    18    1
    26    18    19    1
    27    18    20    2
    28    18    21    2
    29     7     8   ar
    30     8     9   ar
    31    27    28   ar
    32    28    29   ar
    33    34    35    1
    34    35    36    1
    35    36    31    1
    36    29    24   ar
    37     9     1   ar
    38     8     4   ar
    39    15    10   ar
    40    22    23    1
@<TRIPOS>MOLECULE
*****
 36 40 0 0 0
SMALL
GASTEIGER

@<TRIPOS>ATOM
      1 C           5.2814    0.2433   34.1855 C.ar    1  UNL1        0.2383
      2 N           6.7663    0.4517   34.1489 N.ar    1  UNL1       -0.2093
      3 C           7.4664    1.0675   35.3238 C.ar    1  UNL1        0.1209
      4 C           6.6815    1.4749   36.5354 C.ar    1  UNL1        0.1021
      5 C           7.0940    2.1012   37.8346 C.ar    1  UNL1        0.0223
      6 C           5.8638    2.2798   38.6742 C.ar    1  UNL1        0.0208
      7 C           4.6912    1.7639   37.8939 C.ar    1  UNL1        0.0842
      8 N           5.1966    1.2665   36.5721 N.ar    1  UNL1       -0.2255
      9 N           4.4965    0.6507   35.3971 N.ar    1  UNL1       -0.1295
     10 C           3.2638    1.7482   38.3545 C.ar    1  UNL1        0.0326
     11 C           2.7083    0.5320   39.0342 C.ar    1  UNL1        0.0028
     12 C           1.2809    0.5163   39.4949 C.ar    1  UNL1        0.0001
     13 C           0.4088    1.7170   39.2757 C.ar    1  UNL1        0.0013
     14 C           0.9643    2.9332   38.5959 C.ar    1  UNL1        0.0162
     15 C           2.3917    2.9489   38.1353 C.ar    1  UNL1        0.0699
     16 N           2.9471    4.1652   37.4555 N.pl3   1  UNL1       -0.1925
     17 C           3.3684    5.3527   38.2694 C.3     1  UNL1        0.1388
     18 S           3.0812    4.1940   35.9618 S.O2    1  UNL1        0.0588
     19 C           3.2153    4.2229   34.4681 C.3     1  UNL1        0.1999
     20 O           1.6956    3.6357   35.8266 O.2     1  UNL1       -0.1542
     21 O           4.4668    4.7523   36.0970 O.2     1  UNL1       -0.1542
     22 N           4.5812   -0.3726   33.0105 N.pl3   1  UNL1       -0.2814
     23 H           3.6925   -0.0461   32.7405 H       1  UNL1        0.1551
     24 C           6.5428   -3.7123   30.7195 C.ar    1  UNL1        0.0480
     25 C           6.1773   -2.4366   30.0202 C.ar    1  UNL1        0.0158
     26 C           5.5235   -1.3234   30.7838 C.ar    1  UNL1        0.0159
     27 C           5.2350   -1.4858   32.2469 C.ar    1  UNL1        0.0506
     28 C           5.6005   -2.7615   32.9462 C.ar    1  UNL1        0.0159
     29 C           6.2543   -3.8747   32.1825 C.ar    1  UNL1        0.0158
     30 C           9.1581   -8.1652   27.6649 C.3     1  UNL1        0.0897
     31 N           8.5043   -7.0520   28.4285 N.3     1  UNL1       -0.2686
     32 C           8.9523   -6.7361   29.8248 C.3     1  UNL1        0.0938
     33 C           8.2984   -5.6229   30.5885 C.3     1  UNL1        0.1081
     34 N           7.1966   -4.8255   29.9559 N.pl3   1  UNL1       -0.3046
     35 C           6.7487   -5.1414   28.5596 C.3     1  UNL1        0.1081
     36 C           7.4025   -6.2546   27.7959 C.3     1  UNL1        0.0938
@<TRIPOS>BOND
     1    30    31    1
     2    31    32    1
     3    32    33    1
     4    33    34    1
     5    34    24    1
     6    24    25   ar
     7    25    26   ar
     8    26    27   ar
     9    27    22    1
    10    22     1    1
    11     1     2   ar
    12     2     3   ar
    13     3     4   ar
    14     4     5   ar
    15     5     6   ar
    16     6     7   ar
    17     7    10    1
    18    10    11   ar
    19    11    12   ar
    20    12    13   ar
    21    13    14   ar
    22    14    15   ar
    23    15    16    1
    24    16    17    1
    25    16    18    1
    26    18    19    1
    27    18    20    2
    28    18    21    2
    29     7     8   ar
    30     8     9   ar
    31    27    28   ar
    32    28    29   ar
    33    34    35    1
    34    35    36    1
    35    36    31    1
    36    29    24   ar
    37     9     1   ar
    38     8     4   ar
    39    15    10   ar
    40    22    23    1
@<TRIPOS>MOLECULE
*****
 36 40 0 0 0
SMALL
GASTEIGER

@<TRIPOS>ATOM
      1 C           3.3214    1.9050   22.7046 C.ar    1  UNL1        0.2383
      2 N           2.5487    3.0743   22.1701 N.ar    1  UNL1       -0.2093
      3 C           2.0760    3.0734   20.7466 C.ar    1  UNL1        0.1209
      4 C           2.3760    1.9031   19.8575 C.ar    1  UNL1        0.1021
      5 C           2.0424    1.6214   18.4224 C.ar    1  UNL1        0.0223
      6 C           2.6089    0.2780   18.0700 C.ar    1  UNL1        0.0208
      7 C           3.2926   -0.2706   19.2872 C.ar    1  UNL1        0.0842
      8 N           3.1487    0.7338   20.3919 N.ar    1  UNL1       -0.2255
      9 N           3.6214    0.7348   21.8155 N.ar    1  UNL1       -0.1295
     10 C           3.9967   -1.5916   19.3829 C.ar    1  UNL1        0.0326
     11 C           3.2046   -2.8522   19.5652 C.ar    1  UNL1        0.0028
     12 C           3.9086   -4.1732   19.6609 C.ar    1  UNL1        0.0001
     13 C           5.4049   -4.2337   19.5743 C.ar    1  UNL1        0.0013
     14 C           6.1971   -2.9730   19.3920 C.ar    1  UNL1        0.0162
     15 C           5.4930   -1.6520   19.2963 C.ar    1  UNL1        0.0699
     16 N           6.2852   -0.3914   19.1140 N.pl3   1  UNL1       -0.1925
     17 C           6.9605    0.2469   20.2915 C.3     1  UNL1        0.1388
     18 S           6.4021    0.2308   17.7542 S.O2    1  UNL1        0.0588
     19 C           6.5191    0.8531   16.3944 C.3     1  UNL1        0.1999
     20 O           6.0326    1.5645   18.3327 O.2     1  UNL1       -0.1542
     21 O           6.7717   -1.1028   17.1757 O.2     1  UNL1       -0.1542
     22 N           3.7941    1.9060   24.1282 N.pl3   1  UNL1       -0.2814
     23 H           3.7126    2.7216   24.6734 H       1  UNL1        0.1551
     24 C           5.5847   -1.8196   25.9068 C.ar    1  UNL1        0.0480
     25 C           4.1009   -1.6050   25.9527 C.ar    1  UNL1        0.0158
     26 C           3.5040   -0.3632   25.3598 C.ar    1  UNL1        0.0159
     27 C           4.3910    0.6641   24.7210 C.ar    1  UNL1        0.0506
     28 C           5.8748    0.4495   24.6752 C.ar    1  UNL1        0.0159
     29 C           6.4717   -0.7924   25.2681 C.ar    1  UNL1        0.0158
     30 C           7.9723   -6.7870   28.2784 C.3     1  UNL1        0.0897
     31 N           7.3754   -5.5452   27.6855 N.3     1  UNL1       -0.2686
     32 C           7.4241   -5.3238   26.2028 C.3     1  UNL1        0.0938
     33 C           6.8272   -4.0819   25.6098 C.3     1  UNL1        0.1081
     34 N           6.1816   -3.0615   26.4997 N.pl3   1  UNL1       -0.3046
     35 C           6.1329   -3.2829   27.9825 C.3     1  UNL1        0.1081
     36 C           6.7297   -4.5248   28.5754 C.3     1  UNL1        0.0938
@<TRIPOS>BOND
     1    30    31    1
     2    31    32    1
     3    32    33    1
     4    33    34    1
     5    34    24    1
     6    24    25   ar
     7    25    26   ar
     8    26    27   ar
     9    27    22    1
    10    22     1    1
    11     1     2   ar
    12     2     3   ar
    13     3     4   ar
    14     4     5   ar
    15     5     6   ar
    16     6     7   ar
    17     7    10    1
    18    10    11   ar
    19    11    12   ar
    20    12    13   ar
    21    13    14   ar
    22    14    15   ar
    23    15    16    1
    24    16    17    1
    25    16    18    1
    26    18    19    1
    27    18    20    2
    28    18    21    2
    29     7     8   ar
    30     8     9   ar
    31    27    28   ar
    32    28    29   ar
    33    34    35    1
    34    35    36    1
    35    36    31    1
    36    29    24   ar
    37     9     1   ar
    38     8     4   ar
    39    15    10   ar
    40    22    23    1
@<TRIPOS>MOLECULE
*****
 36 40 0 0 0
SMALL
GASTEIGER

@<TRIPOS>ATOM
      1 C           3.1172    0.7442   25.4010 C.ar    1  UNL1        0.2383
      2 N           3.8307   -0.2368   26.2833 N.ar    1  UNL1       -0.2093
      3 C           4.3994   -1.4956   25.6986 C.ar    1  UNL1        0.1209
      4 C           4.2547   -1.7734   24.2317 C.ar    1  UNL1        0.1021
      5 C           4.7080   -2.9204   23.3778 C.ar    1  UNL1        0.0223
      6 C           4.2747   -2.6482   21.9679 C.ar    1  UNL1        0.0208
      7 C           3.5535   -1.3330   21.9503 C.ar    1  UNL1        0.0842
      8 N           3.5412   -0.7924   23.3494 N.ar    1  UNL1       -0.2255
      9 N           2.9724    0.4664   23.9340 N.ar    1  UNL1       -0.1295
     10 C           2.9506   -0.6741   20.7452 C.ar    1  UNL1        0.0326
     11 C           1.4601   -0.5645   20.6172 C.ar    1  UNL1        0.0028
     12 C           0.8571    0.0944   19.4121 C.ar    1  UNL1        0.0001
     13 C           1.7447    0.6437   18.3349 C.ar    1  UNL1        0.0013
     14 C           3.2352    0.5341   18.4628 C.ar    1  UNL1        0.0162
     15 C           3.8381   -0.1248   19.6679 C.ar    1  UNL1        0.0699
     16 N           5.3286   -0.2344   19.7957 N.pl3   1  UNL1       -0.1925
     17 C           6.0647    0.6422   20.7652 C.3     1  UNL1        0.1388
     18 S           6.0831   -1.2205   18.9541 S.O2    1  UNL1        0.0588
     19 C           6.8375   -2.2066   18.1125 C.3     1  UNL1        0.1999
     20 O           4.8020   -1.9372   18.6456 O.2     1  UNL1       -0.1542
     21 O           7.3641   -0.5038   19.2627 O.2     1  UNL1       -0.1542
     22 N           2.5484    2.0031   25.9856 N.pl3   1  UNL1       -0.2814
     23 H           3.1050    2.5720   26.5651 H       1  UNL1        0.1551
     24 C          -1.7020    3.1793   25.0908 C.ar    1  UNL1        0.0480
     25 C          -1.3727    2.4763   26.3743 C.ar    1  UNL1        0.0158
     26 C           0.0440    2.0842   26.6725 C.ar    1  UNL1        0.0159
     27 C           1.1316    2.3952   25.6873 C.ar    1  UNL1        0.0506
     28 C           0.8023    3.0982   24.4038 C.ar    1  UNL1        0.0159
     29 C          -0.6145    3.4903   24.1056 C.ar    1  UNL1        0.0158
     30 C          -7.3691    4.7476   23.8977 C.3     1  UNL1        0.0897
     31 N          -5.9524    4.3555   24.1960 N.3     1  UNL1       -0.2686
     32 C          -5.0383    3.9414   23.0811 C.3     1  UNL1        0.0938
     33 C          -3.6214    3.5493   23.3794 C.3     1  UNL1        0.1081
     34 N          -3.1188    3.5714   24.7925 N.pl3   1  UNL1       -0.3046
     35 C          -4.0330    3.9855   25.9073 C.3     1  UNL1        0.1081
     36 C          -5.4497    4.3776   25.6091 C.3     1  UNL1        0.0938
@<TRIPOS>BOND
     1    30    31    1
     2    31    32    1
     3    32    33    1
     4    33    34    1
     5    34    24    1
     6    24    25   ar
     7    25    26   ar
     8    26    27   ar
     9    27    22    1
    10    22     1    1
    11     1     2   ar
    12     2     3   ar
    13     3     4   ar
    14     4     5   ar
    15     5     6   ar
    16     6     7   ar
    17     7    10    1
    18    10    11   ar
    19    11    12   ar
    20    12    13   ar
    21    13    14   ar
    22    14    15   ar
    23    15    16    1
    24    16    17    1
    25    16    18    1
    26    18    19    1
    27    18    20    2
    28    18    21    2
    29     7     8   ar
    30     8     9   ar
    31    27    28   ar
    32    28    29   ar
    33    34    35    1
    34    35    36    1
    35    36    31    1
    36    29    24   ar
    37     9     1   ar
    38     8     4   ar
    39    15    10   ar
    40    22    23    1
@<TRIPOS>MOLECULE
*****
 36 40 0 0 0
SMALL
GASTEIGER

@<TRIPOS>ATOM
      1 C           1.1292    4.2663   33.4502 C.ar    1  UNL1        0.2383
      2 N           1.8004    5.5468   33.0509 N.ar    1  UNL1       -0.2093
      3 C           2.6960    6.2584   34.0211 C.ar    1  UNL1        0.1209
      4 C           2.9203    5.6895   35.3908 C.ar    1  UNL1        0.1021
      5 C           3.7428    6.1636   36.5523 C.ar    1  UNL1        0.0223
      6 C           3.5797    5.1761   37.6694 C.ar    1  UNL1        0.0208
      7 C           2.6566    4.0916   37.1985 C.ar    1  UNL1        0.0842
      8 N           2.2491    4.4090   35.7902 N.ar    1  UNL1       -0.2255
      9 N           1.3535    3.6974   34.8199 N.ar    1  UNL1       -0.1295
     10 C           2.2179    2.8992   37.9957 C.ar    1  UNL1        0.0326
     11 C           0.8744    2.8958   38.6626 C.ar    1  UNL1        0.0028
     12 C           0.4357    1.7033   39.4599 C.ar    1  UNL1        0.0001
     13 C           1.3407    0.5142   39.5903 C.ar    1  UNL1        0.0013
     14 C           2.6843    0.5176   38.9235 C.ar    1  UNL1        0.0162
     15 C           3.1229    1.7101   38.1262 C.ar    1  UNL1        0.0699
     16 N           4.4665    1.7134   37.4594 N.pl3   1  UNL1       -0.1925
     17 C           5.6667    2.2344   38.1931 C.3     1  UNL1        0.1388
     18 S           4.6101    1.1957   36.0589 S.O2    1  UNL1        0.0588
     19 C           4.7536    0.6779   34.6585 C.3     1  UNL1        0.1999
     20 O           4.9449    2.5779   35.5823 O.2     1  UNL1       -0.1542
     21 O           4.2752   -0.1866   36.5356 O.2     1  UNL1       -0.1542
     22 N           0.2335    3.5546   32.4799 N.pl3   1  UNL1       -0.2814
     23 H          -0.7437    3.5910   32.5943 H       1  UNL1        0.1551
     24 C           2.0131    1.2535   29.0466 C.ar    1  UNL1        0.0480
     25 C           2.2315    0.7871   30.4554 C.ar    1  UNL1        0.0158
     26 C           1.6383    1.5541   31.5999 C.ar    1  UNL1        0.0159
     27 C           0.8267    2.7876   31.3355 C.ar    1  UNL1        0.0506
     28 C           0.6083    3.2540   29.9267 C.ar    1  UNL1        0.0159
     29 C           1.2016    2.4869   28.7822 C.ar    1  UNL1        0.0158
     30 C           4.3858   -1.8146   24.4688 C.3     1  UNL1        0.0897
     31 N           3.7927   -1.0476   25.6133 N.3     1  UNL1       -0.2686
     32 C           3.9578   -1.5484   27.0175 C.3     1  UNL1        0.0938
     33 C           3.3646   -0.7814   28.1620 C.3     1  UNL1        0.1081
     34 N           2.6063    0.4864   27.9022 N.pl3   1  UNL1       -0.3046
     35 C           2.4412    0.9873   26.4979 C.3     1  UNL1        0.1081
     36 C           3.0343    0.2202   25.3535 C.3     1  UNL1        0.0938
@<TRIPOS>BOND
     1    30    31    1
     2    31    32    1
     3    32    33    1
     4    33    34    1
     5    34    24    1
     6    24    25   ar
     7    25    26   ar
     8    26    27   ar
     9    27    22    1
    10    22     1    1
    11     1     2   ar
    12     2     3   ar
    13     3     4   ar
    14     4     5   ar
    15     5     6   ar
    16     6     7   ar
    17     7    10    1
    18    10    11   ar
    19    11    12   ar
    20    12    13   ar
    21    13    14   ar
    22    14    15   ar
    23    15    16    1
    24    16    17    1
    25    16    18    1
    26    18    19    1
    27    18    20    2
    28    18    21    2
    29     7     8   ar
    30     8     9   ar
    31    27    28   ar
    32    28    29   ar
    33    34    35    1
    34    35    36    1
    35    36    31    1
    36    29    24   ar
    37     9     1   ar
    38     8     4   ar
    39    15    10   ar
    40    22    23    1
@<TRIPOS>MOLECULE
*****
 36 40 0 0 0
SMALL
GASTEIGER

@<TRIPOS>ATOM
      1 C           6.2783   -1.6061   22.8729 C.ar    1  UNL1        0.2383
      2 N           6.9447   -2.9414   22.7224 N.ar    1  UNL1       -0.2093
      3 C           6.4554   -3.9114   21.6882 C.ar    1  UNL1        0.1209
      4 C           5.2997   -3.5461   20.8045 C.ar    1  UNL1        0.1021
      5 C           4.6024   -4.2908   19.7048 C.ar    1  UNL1        0.0223
      6 C           3.5050   -3.4157   19.1757 C.ar    1  UNL1        0.0208
      7 C           3.5241   -2.1301   19.9484 C.ar    1  UNL1        0.0842
      8 N           4.6333   -2.2107   20.9550 N.ar    1  UNL1       -0.2255
      9 N           5.1226   -1.2407   21.9892 N.ar    1  UNL1       -0.1295
     10 C           2.5969   -0.9680   19.7494 C.ar    1  UNL1        0.0326
     11 C           1.2918   -0.9149   20.4868 C.ar    1  UNL1        0.0028
     12 C           0.3645    0.2472   20.2878 C.ar    1  UNL1        0.0001
     13 C           0.7424    1.3564   19.3514 C.ar    1  UNL1        0.0013
     14 C           2.0475    1.3034   18.6140 C.ar    1  UNL1        0.0162
     15 C           2.9748    0.1413   18.8130 C.ar    1  UNL1        0.0699
     16 N           4.2799    0.0883   18.0756 N.pl3   1  UNL1       -0.1925
     17 C           4.3488   -0.5448   16.7175 C.3     1  UNL1        0.1388
     18 S           5.5161    0.6685   18.6962 S.O2    1  UNL1        0.0588
     19 C           6.7522    1.2487   19.3169 C.3     1  UNL1        0.1999
     20 O           6.2487   -0.6143   18.4363 O.2     1  UNL1       -0.1542
     21 O           4.7835    1.9513   18.9562 O.2     1  UNL1       -0.1542
     22 N           6.7676   -0.6360   23.9072 N.pl3   1  UNL1       -0.2814
     23 H           7.3213    0.1323   23.6385 H       1  UNL1        0.1551
     24 C           5.7041   -1.2379   28.2381 C.ar    1  UNL1        0.0480
     25 C           7.0276   -1.7148   27.7175 C.ar    1  UNL1        0.0158
     26 C           7.3820   -1.5142   26.2739 C.ar    1  UNL1        0.0159
     27 C           6.4131   -0.8366   25.3508 C.ar    1  UNL1        0.0506
     28 C           5.0896   -0.3597   25.8714 C.ar    1  UNL1        0.0159
     29 C           4.7352   -0.5603   27.3151 C.ar    1  UNL1        0.0158
     30 C           4.2862   -2.0404   34.0126 C.3     1  UNL1        0.0897
     31 N           4.6407   -1.8398   32.5690 N.3     1  UNL1       -0.2686
     32 C           3.8386   -0.8949   31.7241 C.3     1  UNL1        0.0938
     33 C           4.1931   -0.6942   30.2804 C.3     1  UNL1        0.1081
     34 N           5.3497   -1.4385   29.6817 N.pl3   1  UNL1       -0.3046
     35 C           6.1517   -2.3834   30.5267 C.3     1  UNL1        0.1081
     36 C           5.7973   -2.5840   31.9703 C.3     1  UNL1        0.0938
@<TRIPOS>BOND
     1    30    31    1
     2    31    32    1
     3    32    33    1
     4    33    34    1
     5    34    24    1
     6    24    25   ar
     7    25    26   ar
     8    26    27   ar
     9    27    22    1
    10    22     1    1
    11     1     2   ar
    12     2     3   ar
    13     3     4   ar
    14     4     5   ar
    15     5     6   ar
    16     6     7   ar
    17     7    10    1
    18    10    11   ar
    19    11    12   ar
    20    12    13   ar
    21    13    14   ar
    22    14    15   ar
    23    15    16    1
    24    16    17    1
    25    16    18    1
    26    18    19    1
    27    18    20    2
    28    18    21    2
    29     7     8   ar
    30     8     9   ar
    31    27    28   ar
    32    28    29   ar
    33    34    35    1
    34    35    36    1
    35    36    31    1
    36    29    24   ar
    37     9     1   ar
    38     8     4   ar
    39    15    10   ar
    40    22    23    1
