@<TRIPOS>MOLECULE
*****
 31 36 0 0 0
SMALL
GASTEIGER

@<TRIPOS>ATOM
      1 O           7.3123   -5.1003   22.8959 O.2     1  UNL1       -0.2679
      2 C           6.4870   -4.1619   23.7254 C.2     1  UNL1        0.2704
      3 N           5.5047   -3.2416   23.0634 N.am    1  UNL1       -0.2539
      4 C           4.6152   -2.2539   23.7585 C.3     1  UNL1        0.1039
      5 C           3.8003   -1.5494   22.7147 C.3     1  UNL1        0.0548
      6 C           2.9853   -0.8448   21.6709 C.3     1  UNL1        0.0244
      7 C           2.0958    0.1429   22.3660 C.3     1  UNL1        0.0725
      8 N           2.3610    0.0488   23.8394 N.3     1  UNL1       -0.2723
      9 C           3.4144   -0.9970   24.0549 C.3     1  UNL1        0.0778
     10 C           4.1862   -2.1016   21.3745 C.ar    1  UNL1       -0.0061
     11 C           3.7144   -1.7873   19.9858 C.ar    1  UNL1       -0.0030
     12 C           4.2961   -2.5188   18.8126 C.ar    1  UNL1       -0.0002
     13 C           5.3495   -3.5647   19.0281 C.ar    1  UNL1        0.0013
     14 C           5.8212   -3.8791   20.4168 C.ar    1  UNL1        0.0146
     15 C           5.2396   -3.1475   21.5900 C.ar    1  UNL1        0.0502
     16 C           6.6440   -4.1438   25.2171 C.2     1  UNL1        0.1346
     17 C           6.6330   -5.3419   26.1195 C.2     1  UNL1        0.0249
     18 C           6.8217   -4.8629   27.5284 C.2     1  UNL1        0.0164
     19 C           6.8938   -5.5943   28.8360 C.2     1  UNL1        0.0123
     20 C           7.0935   -4.8315   30.1120 C.2     1  UNL1        0.0538
     21 CL          7.1657   -5.5629   31.4196 Cl      1  UNL1       -0.0826
     22 C           7.2212   -3.3373   30.0803 C.2     1  UNL1       -0.0084
     23 C           7.1490   -2.6059   28.7727 C.3     1  UNL1        0.0726
     24 C           6.9493   -3.3687   27.4967 C.2     1  UNL1        0.0636
     25 N           6.8395   -2.9242   26.0683 N.2     1  UNL1       -0.2447
     26 C           1.6905    0.8584   24.9094 C.3     1  UNL1        0.0746
     27 C           0.2325    1.2056   24.9689 C.3     1  UNL1        0.0344
     28 C           0.0010    2.0248   26.2041 C.3     1  UNL1        0.0700
     29 N           1.3162    2.1838   26.9079 N.3     1  UNL1       -0.2963
     30 C           2.3603    1.4629   26.1077 C.3     1  UNL1        0.0847
     31 H           1.2588    1.7821   27.8437 H       1  UNL1        0.1233
@<TRIPOS>BOND
     1     1     2    2
     2     2    16    1
     3    16    17    2
     4    17    18    1
     5    18    19    2
     6    19    20    1
     7    20    21    1
     8    20    22    2
     9    22    23    1
    10    23    24    1
    11    24    25    2
    12     2     3   am
    13     3     4    1
    14     5     4    1
    15     5     6    1
    16     6     7    1
    17     7     8    1
    18     8    26    1
    19    26    27    1
    20    27    28    1
    21    28    29    1
    22    29    30    1
    23     8     9    1
    24     5    10    1
    25    10    11   ar
    26    11    12   ar
    27    12    13   ar
    28    13    14   ar
    29    14    15   ar
    30    25    16    1
    31    15     3    1
    32    24    18    1
    33     9     5    1
    34    15    10   ar
    35    30    26    1
    36    29    31    1
@<TRIPOS>MOLECULE
*****
 31 36 0 0 0
SMALL
GASTEIGER

@<TRIPOS>ATOM
      1 O          -0.1571    2.5429   19.7162 O.2     1  UNL1       -0.2679
      2 C           0.3977    1.8934   20.9492 C.2     1  UNL1        0.2704
      3 N          -0.1365    2.2685   22.2997 N.am    1  UNL1       -0.2539
      4 C           0.3173    1.7069   23.6145 C.3     1  UNL1        0.1039
      5 C          -0.4841    2.3624   24.6998 C.3     1  UNL1        0.0548
      6 C          -1.2856    3.0178   25.7853 C.3     1  UNL1        0.0244
      7 C          -0.8317    2.4563   27.1001 C.3     1  UNL1        0.0725
      8 N           0.2503    1.4538   26.8273 N.3     1  UNL1       -0.2723
      9 C           0.4651    1.3957   25.3439 C.3     1  UNL1        0.0778
     10 C          -1.4333    3.3290   24.0559 C.ar    1  UNL1       -0.0061
     11 C          -2.4654    4.2545   24.6286 C.ar    1  UNL1       -0.0030
     12 C          -3.2828    5.1220   23.7179 C.ar    1  UNL1       -0.0002
     13 C          -3.0679    5.0640   22.2345 C.ar    1  UNL1        0.0013
     14 C          -2.0358    4.1384   21.6618 C.ar    1  UNL1        0.0146
     15 C          -1.2185    3.2710   22.5725 C.ar    1  UNL1        0.0502
     16 C           1.4869    0.8687   20.8316 C.2     1  UNL1        0.1346
     17 C           1.3666   -0.4746   20.1751 C.2     1  UNL1        0.0249
     18 C           2.6929   -1.1661   20.2876 C.2     1  UNL1        0.0164
     19 C           3.1661   -2.5114   19.8228 C.2     1  UNL1        0.0123
     20 C           4.5794   -2.9409   20.0840 C.2     1  UNL1        0.0538
     21 CL          5.0526   -4.2862   19.6191 Cl      1  UNL1       -0.0826
     22 C           5.5194   -2.0249   20.8101 C.2     1  UNL1       -0.0084
     23 C           5.0462   -0.6795   21.2750 C.3     1  UNL1        0.0726
     24 C           3.6330   -0.2501   21.0138 C.2     1  UNL1        0.0636
     25 N           2.8877    1.0074   21.3499 N.2     1  UNL1       -0.2447
     26 C           0.9879    0.6504   27.8570 C.3     1  UNL1        0.0746
     27 C           2.4184    0.2075   27.7710 C.3     1  UNL1        0.0344
     28 C           2.7393   -0.5678   29.0144 C.3     1  UNL1        0.0700
     29 N           1.5069   -0.6041   29.8689 N.3     1  UNL1       -0.2963
     30 C           0.4246    0.1488   29.1536 C.3     1  UNL1        0.0847
     31 H           1.6971   -0.1647   30.7695 H       1  UNL1        0.1233
@<TRIPOS>BOND
     1     1     2    2
     2     2    16    1
     3    16    17    2
     4    17    18    1
     5    18    19    2
     6    19    20    1
     7    20    21    1
     8    20    22    2
     9    22    23    1
    10    23    24    1
    11    24    25    2
    12     2     3   am
    13     3     4    1
    14     5     4    1
    15     5     6    1
    16     6     7    1
    17     7     8    1
    18     8    26    1
    19    26    27    1
    20    27    28    1
    21    28    29    1
    22    29    30    1
    23     8     9    1
    24     5    10    1
    25    10    11   ar
    26    11    12   ar
    27    12    13   ar
    28    13    14   ar
    29    14    15   ar
    30    25    16    1
    31    15     3    1
    32    24    18    1
    33     9     5    1
    34    15    10   ar
    35    30    26    1
    36    29    31    1
@<TRIPOS>MOLECULE
*****
 31 36 0 0 0
SMALL
GASTEIGER

@<TRIPOS>ATOM
      1 O           7.6827   -5.4093   20.8231 O.2     1  UNL1       -0.2679
      2 C           6.9823   -4.4679   21.7575 C.2     1  UNL1        0.2704
      3 N           7.1297   -4.6354   23.2408 N.am    1  UNL1       -0.2539
      4 C           6.4932   -3.7761   24.2927 C.3     1  UNL1        0.1039
      5 C           6.9096   -4.3012   25.6346 C.3     1  UNL1        0.0548
      6 C           7.3260   -4.8263   26.9766 C.3     1  UNL1        0.0244
      7 C           6.6895   -3.9670   28.0285 C.3     1  UNL1        0.0725
      8 N           5.8797   -2.9108   27.3366 N.3     1  UNL1       -0.2723
      9 C           6.0157   -3.1173   25.8572 C.3     1  UNL1        0.0778
     10 C           7.8035   -5.4850   25.4121 C.ar    1  UNL1       -0.0061
     11 C           8.5111   -6.4016   26.3655 C.ar    1  UNL1       -0.0030
     12 C           9.3548   -7.5247   25.8395 C.ar    1  UNL1       -0.0002
     13 C           9.4908   -7.7313   24.3600 C.ar    1  UNL1        0.0013
     14 C           8.7832   -6.8147   23.4066 C.ar    1  UNL1        0.0146
     15 C           7.9395   -5.6916   23.9326 C.ar    1  UNL1        0.0502
     16 C           6.1344   -3.3589   21.2085 C.2     1  UNL1        0.1346
     17 C           4.6533   -3.4128   20.9779 C.2     1  UNL1        0.0249
     18 C           4.2224   -2.0885   20.4206 C.2     1  UNL1        0.0164
     19 C           2.8807   -1.5643   20.0021 C.2     1  UNL1        0.0123
     20 C           2.7539   -0.1677   19.4697 C.2     1  UNL1        0.0538
     21 CL          1.4122    0.3565   19.0512 Cl      1  UNL1       -0.0826
     22 C           3.9688    0.7046   19.3559 C.2     1  UNL1       -0.0084
     23 C           5.3104    0.1804   19.7744 C.3     1  UNL1        0.0726
     24 C           5.4373   -1.2162   20.3068 C.2     1  UNL1        0.0636
     25 N           6.6190   -2.0012   20.7937 N.2     1  UNL1       -0.2447
     26 C           5.0751   -1.8367   28.0065 C.3     1  UNL1        0.0746
     27 C           5.4568   -1.0984   29.2552 C.3     1  UNL1        0.0344
     28 C           4.3652   -0.1176   29.5659 C.3     1  UNL1        0.0700
     29 N           3.3088   -0.2498   28.5092 N.3     1  UNL1       -0.2963
     30 C           3.7475   -1.3123   27.5455 C.3     1  UNL1        0.0847
     31 H           3.1968    0.6375   28.0187 H       1  UNL1        0.1233
@<TRIPOS>BOND
     1     1     2    2
     2     2    16    1
     3    16    17    2
     4    17    18    1
     5    18    19    2
     6    19    20    1
     7    20    21    1
     8    20    22    2
     9    22    23    1
    10    23    24    1
    11    24    25    2
    12     2     3   am
    13     3     4    1
    14     5     4    1
    15     5     6    1
    16     6     7    1
    17     7     8    1
    18     8    26    1
    19    26    27    1
    20    27    28    1
    21    28    29    1
    22    29    30    1
    23     8     9    1
    24     5    10    1
    25    10    11   ar
    26    11    12   ar
    27    12    13   ar
    28    13    14   ar
    29    14    15   ar
    30    25    16    1
    31    15     3    1
    32    24    18    1
    33     9     5    1
    34    15    10   ar
    35    30    26    1
    36    29    31    1
@<TRIPOS>MOLECULE
*****
 31 36 0 0 0
SMALL
GASTEIGER

@<TRIPOS>ATOM
      1 O          -3.9931    3.7178   19.4085 O.2     1  UNL1       -0.2679
      2 C          -3.0062    3.4699   20.5104 C.2     1  UNL1        0.2704
      3 N          -3.4284    3.6159   21.9424 N.am    1  UNL1       -0.2539
      4 C          -2.5573    3.4019   23.1446 C.3     1  UNL1        0.1039
      5 C          -3.3864    3.6553   24.3687 C.3     1  UNL1        0.0548
      6 C          -4.2154    3.9087   25.5929 C.3     1  UNL1        0.0244
      7 C          -3.3443    3.6947   26.7951 C.3     1  UNL1        0.0725
      8 N          -1.9769    3.3091   26.3141 N.3     1  UNL1       -0.2723
      9 C          -2.0029    3.2847   24.8145 C.3     1  UNL1        0.0778
     10 C          -4.7699    4.0259   23.9230 C.ar    1  UNL1       -0.0061
     11 C          -6.0093    4.3824   24.6889 C.ar    1  UNL1       -0.0030
     12 C          -7.2747    4.7145   23.9552 C.ar    1  UNL1       -0.0002
     13 C          -7.3007    4.6902   22.4557 C.ar    1  UNL1        0.0013
     14 C          -6.0613    4.3337   21.6898 C.ar    1  UNL1        0.0146
     15 C          -4.7958    4.0016   22.4234 C.ar    1  UNL1        0.0502
     16 C          -1.5969    3.0759   20.1804 C.2     1  UNL1        0.1346
     17 C          -0.6161    3.8899   19.3897 C.2     1  UNL1        0.0249
     18 C           0.6659    3.1158   19.3038 C.2     1  UNL1        0.0164
     19 C           1.9806    3.4208   18.6492 C.2     1  UNL1        0.0123
     20 C           3.1068    2.4335   18.7323 C.2     1  UNL1        0.0538
     21 CL          4.4215    2.7385   18.0776 Cl      1  UNL1       -0.0826
     22 C           2.9182    1.1411   19.4700 C.2     1  UNL1       -0.0084
     23 C           1.6035    0.8361   20.1246 C.3     1  UNL1        0.0726
     24 C           0.4773    1.8235   20.0415 C.2     1  UNL1        0.0636
     25 N          -0.9212    1.7988   20.5833 N.2     1  UNL1       -0.2447
     26 C          -0.7916    3.0017   27.1804 C.3     1  UNL1        0.0746
     27 C          -0.5588    1.7271   27.9362 C.3     1  UNL1        0.0344
     28 C           0.7457    1.8526   28.6660 C.3     1  UNL1        0.0700
     29 N           1.3191    3.2048   28.3612 N.3     1  UNL1       -0.2963
     30 C           0.3690    3.9149   27.4431 C.3     1  UNL1        0.0847
     31 H           2.2268    3.1016   27.9076 H       1  UNL1        0.1233
@<TRIPOS>BOND
     1     1     2    2
     2     2    16    1
     3    16    17    2
     4    17    18    1
     5    18    19    2
     6    19    20    1
     7    20    21    1
     8    20    22    2
     9    22    23    1
    10    23    24    1
    11    24    25    2
    12     2     3   am
    13     3     4    1
    14     5     4    1
    15     5     6    1
    16     6     7    1
    17     7     8    1
    18     8    26    1
    19    26    27    1
    20    27    28    1
    21    28    29    1
    22    29    30    1
    23     8     9    1
    24     5    10    1
    25    10    11   ar
    26    11    12   ar
    27    12    13   ar
    28    13    14   ar
    29    14    15   ar
    30    25    16    1
    31    15     3    1
    32    24    18    1
    33     9     5    1
    34    15    10   ar
    35    30    26    1
    36    29    31    1
@<TRIPOS>MOLECULE
*****
 31 36 0 0 0
SMALL
GASTEIGER

@<TRIPOS>ATOM
      1 O           6.7382   -4.6628   22.7844 O.2     1  UNL1       -0.2679
      2 C           6.2311   -3.8747   23.9556 C.2     1  UNL1        0.2704
      3 N           5.1751   -2.8285   23.7549 N.am    1  UNL1       -0.2539
      4 C           4.5739   -1.9660   24.8249 C.3     1  UNL1        0.1039
      5 C           3.5621   -1.0656   24.1803 C.3     1  UNL1        0.0548
      6 C           2.5502   -0.1652   23.5357 C.3     1  UNL1        0.0244
      7 C           1.9491    0.6973   24.6056 C.3     1  UNL1        0.0725
      8 N           2.5893    0.3300   25.9114 N.3     1  UNL1       -0.2723
      9 C           3.5862   -0.7596   25.6486 C.3     1  UNL1        0.0778
     10 C           3.5379   -1.3716   22.7120 C.ar    1  UNL1       -0.0061
     11 C           2.7370   -0.7989   21.5805 C.ar    1  UNL1       -0.0030
     12 C           2.9329   -1.3157   20.1860 C.ar    1  UNL1       -0.0002
     13 C           3.9298   -2.4053   19.9232 C.ar    1  UNL1        0.0013
     14 C           4.7308   -2.9780   21.0547 C.ar    1  UNL1        0.0146
     15 C           4.5348   -2.4612   22.4491 C.ar    1  UNL1        0.0502
     16 C           6.7801   -4.1328   25.3275 C.2     1  UNL1        0.1346
     17 C           7.4946   -3.1376   26.1929 C.2     1  UNL1        0.0249
     18 C           7.8670   -3.8212   27.4751 C.2     1  UNL1        0.0164
     19 C           8.5846   -3.3359   28.6996 C.2     1  UNL1        0.0123
     20 C           8.8178   -4.2683   29.8512 C.2     1  UNL1        0.0538
     21 CL          9.5354   -3.7829   31.0758 Cl      1  UNL1       -0.0826
     22 C           8.3334   -5.6860   29.7783 C.2     1  UNL1       -0.0084
     23 C           7.6158   -6.1713   28.5538 C.3     1  UNL1        0.0726
     24 C           7.3826   -5.2389   27.4021 C.2     1  UNL1        0.0636
     25 N           6.7108   -5.4315   26.0749 N.2     1  UNL1       -0.2447
     26 C           2.2860    0.9442   27.2458 C.3     1  UNL1        0.0746
     27 C           1.9302    0.1999   28.4986 C.3     1  UNL1        0.0344
     28 C           1.7095    1.2063   29.5888 C.3     1  UNL1        0.0700
     29 N           1.9289    2.5726   29.0098 N.3     1  UNL1       -0.2963
     30 C           2.2852    2.4106   27.5617 C.3     1  UNL1        0.0847
     31 H           2.6896    3.0396   29.5033 H       1  UNL1        0.1233
@<TRIPOS>BOND
     1     1     2    2
     2     2    16    1
     3    16    17    2
     4    17    18    1
     5    18    19    2
     6    19    20    1
     7    20    21    1
     8    20    22    2
     9    22    23    1
    10    23    24    1
    11    24    25    2
    12     2     3   am
    13     3     4    1
    14     5     4    1
    15     5     6    1
    16     6     7    1
    17     7     8    1
    18     8    26    1
    19    26    27    1
    20    27    28    1
    21    28    29    1
    22    29    30    1
    23     8     9    1
    24     5    10    1
    25    10    11   ar
    26    11    12   ar
    27    12    13   ar
    28    13    14   ar
    29    14    15   ar
    30    25    16    1
    31    15     3    1
    32    24    18    1
    33     9     5    1
    34    15    10   ar
    35    30    26    1
    36    29    31    1
@<TRIPOS>MOLECULE
*****
 31 36 0 0 0
SMALL
GASTEIGER

@<TRIPOS>ATOM
      1 O          -1.4228    3.4166   24.4776 O.2     1  UNL1       -0.2679
      2 C          -0.8596    2.8707   23.1991 C.2     1  UNL1        0.2704
      3 N           0.3257    1.9521   23.2335 N.am    1  UNL1       -0.2539
      4 C           0.9949    1.3313   22.0433 C.3     1  UNL1        0.1039
      5 C           2.1327    0.4885   22.5384 C.3     1  UNL1        0.0548
      6 C           3.2705   -0.3543   23.0336 C.3     1  UNL1        0.0244
      7 C           3.9397   -0.9751   21.8433 C.3     1  UNL1        0.0725
      8 N           3.2156   -0.5160   20.6125 N.3     1  UNL1       -0.2723
      9 C           2.0988    0.3886   21.0421 C.3     1  UNL1        0.0778
     10 C           2.1667    0.5884   24.0347 C.ar    1  UNL1       -0.0061
     11 C           3.0702   -0.0274   25.0615 C.ar    1  UNL1       -0.0030
     12 C           2.8570    0.2614   26.5179 C.ar    1  UNL1       -0.0002
     13 C           1.7402    1.1659   26.9475 C.ar    1  UNL1        0.0013
     14 C           0.8367    1.7817   25.9207 C.ar    1  UNL1        0.0146
     15 C           1.0499    1.4930   24.4643 C.ar    1  UNL1        0.0502
     16 C          -1.4817    3.2435   21.8860 C.2     1  UNL1        0.1346
     17 C          -0.7808    3.8981   20.7326 C.2     1  UNL1        0.0249
     18 C          -1.7799    4.0863   19.6296 C.2     1  UNL1        0.0164
     19 C          -1.6595    4.6783   18.2566 C.2     1  UNL1        0.0123
     20 C          -2.8573    4.7320   17.3554 C.2     1  UNL1        0.0538
     21 CL         -2.7369    5.3240   15.9824 Cl      1  UNL1       -0.0826
     22 C          -4.1755    4.1938   17.8271 C.2     1  UNL1       -0.0084
     23 C          -4.2959    3.6018   19.2001 C.3     1  UNL1        0.0726
     24 C          -3.0980    3.5481   20.1014 C.2     1  UNL1        0.0636
     25 N          -2.9138    3.0272   21.4959 N.2     1  UNL1       -0.2447
     26 C           3.5495   -0.8949   19.2001 C.3     1  UNL1        0.0746
     27 C           3.3209   -0.0488   17.9828 C.3     1  UNL1        0.0344
     28 C           3.8007   -0.8173   16.7873 C.3     1  UNL1        0.0700
     29 N           4.3260   -2.1384   17.2659 N.3     1  UNL1       -0.2963
     30 C           4.1707   -2.1863   18.7570 C.3     1  UNL1        0.0847
     31 H           5.3110   -2.2298   17.0173 H       1  UNL1        0.1233
@<TRIPOS>BOND
     1     1     2    2
     2     2    16    1
     3    16    17    2
     4    17    18    1
     5    18    19    2
     6    19    20    1
     7    20    21    1
     8    20    22    2
     9    22    23    1
    10    23    24    1
    11    24    25    2
    12     2     3   am
    13     3     4    1
    14     5     4    1
    15     5     6    1
    16     6     7    1
    17     7     8    1
    18     8    26    1
    19    26    27    1
    20    27    28    1
    21    28    29    1
    22    29    30    1
    23     8     9    1
    24     5    10    1
    25    10    11   ar
    26    11    12   ar
    27    12    13   ar
    28    13    14   ar
    29    14    15   ar
    30    25    16    1
    31    15     3    1
    32    24    18    1
    33     9     5    1
    34    15    10   ar
    35    30    26    1
    36    29    31    1
@<TRIPOS>MOLECULE
*****
 31 36 0 0 0
SMALL
GASTEIGER

@<TRIPOS>ATOM
      1 O          -1.2260    4.1350   23.3602 O.2     1  UNL1       -0.2679
      2 C          -0.3680    2.9051   23.3925 C.2     1  UNL1        0.2704
      3 N           0.1825    2.3408   22.1164 N.am    1  UNL1       -0.2539
      4 C           1.0505    1.1237   21.9926 C.3     1  UNL1        0.1039
      5 C           1.3660    0.9253   20.5397 C.3     1  UNL1        0.0548
      6 C           1.6816    0.7268   19.0867 C.3     1  UNL1        0.0244
      7 C           2.5496   -0.4903   18.9629 C.3     1  UNL1        0.0725
      8 N           2.7705   -1.0440   20.3394 N.3     1  UNL1       -0.2723
      9 C           2.0390   -0.1692   21.3138 C.3     1  UNL1        0.0778
     10 C           0.6930    2.0197   19.7655 C.ar    1  UNL1       -0.0061
     11 C           0.6518    2.3326   18.2991 C.ar    1  UNL1       -0.0030
     12 C          -0.1209    3.5204   17.8071 C.ar    1  UNL1       -0.0002
     13 C          -0.8524    4.3952   18.7816 C.ar    1  UNL1        0.0013
     14 C          -0.8112    4.0823   20.2480 C.ar    1  UNL1        0.0146
     15 C          -0.0384    2.8945   20.7399 C.ar    1  UNL1        0.0502
     16 C          -0.0604    2.2395   24.7011 C.2     1  UNL1        0.1346
     17 C           1.2936    1.7912   25.1655 C.2     1  UNL1        0.0249
     18 C           1.1380    1.1799   26.5265 C.2     1  UNL1        0.0164
     19 C           2.1295    0.5683   27.4714 C.2     1  UNL1        0.0123
     20 C           1.6707    0.0270   28.7930 C.2     1  UNL1        0.0538
     21 CL          2.6622   -0.5846   29.7379 Cl      1  UNL1       -0.0826
     22 C           0.2205    0.0975   29.1696 C.2     1  UNL1       -0.0084
     23 C          -0.7709    0.7092   28.2247 C.3     1  UNL1        0.0726
     24 C          -0.3122    1.2504   26.9031 C.2     1  UNL1        0.0636
     25 N          -1.0529    1.9052   25.7750 N.2     1  UNL1       -0.2447
     26 C           3.5806   -2.2592   20.6814 C.3     1  UNL1        0.0746
     27 C           4.2443   -2.5344   21.9981 C.3     1  UNL1        0.0344
     28 C           4.9432   -3.8578   21.8973 C.3     1  UNL1        0.0700
     29 N           4.7114   -4.4005   20.5182 N.3     1  UNL1       -0.2963
     30 C           3.8693   -3.4125   19.7668 C.3     1  UNL1        0.0847
     31 H           4.2262   -5.2959   20.5756 H       1  UNL1        0.1233
@<TRIPOS>BOND
     1     1     2    2
     2     2    16    1
     3    16    17    2
     4    17    18    1
     5    18    19    2
     6    19    20    1
     7    20    21    1
     8    20    22    2
     9    22    23    1
    10    23    24    1
    11    24    25    2
    12     2     3   am
    13     3     4    1
    14     5     4    1
    15     5     6    1
    16     6     7    1
    17     7     8    1
    18     8    26    1
    19    26    27    1
    20    27    28    1
    21    28    29    1
    22    29    30    1
    23     8     9    1
    24     5    10    1
    25    10    11   ar
    26    11    12   ar
    27    12    13   ar
    28    13    14   ar
    29    14    15   ar
    30    25    16    1
    31    15     3    1
    32    24    18    1
    33     9     5    1
    34    15    10   ar
    35    30    26    1
    36    29    31    1
@<TRIPOS>MOLECULE
*****
 31 36 0 0 0
SMALL
GASTEIGER

@<TRIPOS>ATOM
      1 O           8.0433   -3.4553   26.1894 O.2     1  UNL1       -0.2679
      2 C           6.6769   -2.8423   26.1061 C.2     1  UNL1        0.2704
      3 N           6.0199   -2.3034   27.3422 N.am    1  UNL1       -0.2539
      4 C           4.6641   -1.6657   27.4135 C.3     1  UNL1        0.1039
      5 C           4.4097   -1.2758   28.8394 C.3     1  UNL1        0.0548
      6 C           4.1552   -0.8858   30.2654 C.3     1  UNL1        0.0244
      7 C           2.7994   -0.2481   30.3366 C.3     1  UNL1        0.0725
      8 N           2.2158   -0.2439   28.9548 N.3     1  UNL1       -0.2723
      9 C           3.2110   -0.8790   28.0295 C.3     1  UNL1        0.0778
     10 C           5.6082   -1.6725   29.6494 C.ar    1  UNL1       -0.0061
     11 C           5.9220   -1.5375   31.1099 C.ar    1  UNL1       -0.0030
     12 C           7.2309   -2.0375   31.6452 C.ar    1  UNL1       -0.0002
     13 C           8.2261   -2.6727   30.7198 C.ar    1  UNL1        0.0013
     14 C           7.9124   -2.8077   29.2593 C.ar    1  UNL1        0.0146
     15 C           6.6034   -2.3076   28.7240 C.ar    1  UNL1        0.0502
     16 C           5.9673   -2.7682   24.7865 C.2     1  UNL1        0.1346
     17 C           5.8718   -3.8705   23.7737 C.2     1  UNL1        0.0249
     18 C           5.0742   -3.3623   22.6094 C.2     1  UNL1        0.0164
     19 C           4.6585   -4.0063   21.3200 C.2     1  UNL1        0.0123
     20 C           3.8453   -3.2339   20.3239 C.2     1  UNL1        0.0538
     21 CL          3.4296   -3.8779   19.0346 Cl      1  UNL1       -0.0826
     22 C           3.4479   -1.8176   20.6172 C.2     1  UNL1       -0.0084
     23 C           3.8636   -1.1736   21.9066 C.3     1  UNL1        0.0726
     24 C           4.6768   -1.9460   22.9027 C.2     1  UNL1        0.0636
     25 N           5.2288   -1.5788   24.2482 N.2     1  UNL1       -0.2447
     26 C           0.8730    0.2999   28.5664 C.3     1  UNL1        0.0746
     27 C           0.6206    1.4151   27.5956 C.3     1  UNL1        0.0344
     28 C          -0.8617    1.6285   27.5097 C.3     1  UNL1        0.0700
     29 N          -1.5254    0.6451   28.4277 N.3     1  UNL1       -0.2963
     30 C          -0.4533   -0.1760   29.0807 C.3     1  UNL1        0.0847
     31 H          -2.1485    0.0392   27.8937 H       1  UNL1        0.1233
@<TRIPOS>BOND
     1     1     2    2
     2     2    16    1
     3    16    17    2
     4    17    18    1
     5    18    19    2
     6    19    20    1
     7    20    21    1
     8    20    22    2
     9    22    23    1
    10    23    24    1
    11    24    25    2
    12     2     3   am
    13     3     4    1
    14     5     4    1
    15     5     6    1
    16     6     7    1
    17     7     8    1
    18     8    26    1
    19    26    27    1
    20    27    28    1
    21    28    29    1
    22    29    30    1
    23     8     9    1
    24     5    10    1
    25    10    11   ar
    26    11    12   ar
    27    12    13   ar
    28    13    14   ar
    29    14    15   ar
    30    25    16    1
    31    15     3    1
    32    24    18    1
    33     9     5    1
    34    15    10   ar
    35    30    26    1
    36    29    31    1
@<TRIPOS>MOLECULE
*****
 31 36 0 0 0
SMALL
GASTEIGER

@<TRIPOS>ATOM
      1 O           6.8875   -4.6662   22.6845 O.2     1  UNL1       -0.2679
      2 C           6.5115   -3.9499   23.9476 C.2     1  UNL1        0.2704
      3 N           6.8819   -4.5328   25.2791 N.am    1  UNL1       -0.2539
      4 C           6.5753   -3.9340   26.6198 C.3     1  UNL1        0.1039
      5 C           7.1279   -4.8480   27.6730 C.3     1  UNL1        0.0548
      6 C           7.6805   -5.7620   28.7263 C.3     1  UNL1        0.0244
      7 C           7.3739   -5.1631   30.0669 C.3     1  UNL1        0.0725
      8 N           6.6318   -3.8790   29.8423 N.3     1  UNL1       -0.2723
      9 C           6.4798   -3.6843   28.3628 C.3     1  UNL1        0.0778
     10 C           7.7760   -6.0117   26.9833 C.ar    1  UNL1       -0.0061
     11 C           8.4850   -7.2235   27.5113 C.ar    1  UNL1       -0.0030
     12 C           9.0419   -8.2406   26.5598 C.ar    1  UNL1       -0.0002
     13 C           8.8898   -8.0458   25.0803 C.ar    1  UNL1        0.0013
     14 C           8.1809   -6.8340   24.5523 C.ar    1  UNL1        0.0146
     15 C           7.6240   -5.8169   25.5038 C.ar    1  UNL1        0.0502
     16 C           5.7649   -2.6506   23.8791 C.2     1  UNL1        0.1346
     17 C           4.3317   -2.4777   23.4719 C.2     1  UNL1        0.0249
     18 C           4.0016   -1.0163   23.5470 C.2     1  UNL1        0.0164
     19 C           2.7405   -0.2563   23.2609 C.2     1  UNL1        0.0123
     20 C           2.7086    1.2340   23.4284 C.2     1  UNL1        0.0538
     21 CL          1.4475    1.9941   23.1424 Cl      1  UNL1       -0.0826
     22 C           3.9379    1.9641   23.8820 C.2     1  UNL1       -0.0084
     23 C           5.1990    1.2040   24.1681 C.3     1  UNL1        0.0726
     24 C           5.2309   -0.2862   24.0006 C.2     1  UNL1        0.0636
     25 N           6.3207   -1.2962   24.2058 N.2     1  UNL1       -0.2447
     26 C           6.1299   -2.9524   30.9097 C.3     1  UNL1        0.0746
     27 C           6.1254   -3.2265   32.3844 C.3     1  UNL1        0.0344
     28 C           5.5371   -2.0325   33.0761 C.3     1  UNL1        0.0700
     29 N           5.1779   -1.0205   32.0287 N.3     1  UNL1       -0.2963
     30 C           5.5443   -1.5890   30.6898 C.3     1  UNL1        0.0847
     31 H           5.6947   -0.1562   32.1908 H       1  UNL1        0.1233
@<TRIPOS>BOND
     1     1     2    2
     2     2    16    1
     3    16    17    2
     4    17    18    1
     5    18    19    2
     6    19    20    1
     7    20    21    1
     8    20    22    2
     9    22    23    1
    10    23    24    1
    11    24    25    2
    12     2     3   am
    13     3     4    1
    14     5     4    1
    15     5     6    1
    16     6     7    1
    17     7     8    1
    18     8    26    1
    19    26    27    1
    20    27    28    1
    21    28    29    1
    22    29    30    1
    23     8     9    1
    24     5    10    1
    25    10    11   ar
    26    11    12   ar
    27    12    13   ar
    28    13    14   ar
    29    14    15   ar
    30    25    16    1
    31    15     3    1
    32    24    18    1
    33     9     5    1
    34    15    10   ar
    35    30    26    1
    36    29    31    1
