@<TRIPOS>MOLECULE
*****
 39 42 0 0 0
SMALL
GASTEIGER

@<TRIPOS>ATOM
      1 C           3.5979   -0.2582   21.3832 C.3     1  UNL1        0.0771
      2 C           5.0573   -0.6046   21.3808 C.3     1  UNL1        0.0370
      3 C           5.5662   -1.7019   20.4938 C.3     1  UNL1        0.0739
      4 N           4.6157   -2.4528   19.6090 N.3     1  UNL1       -0.2702
      5 C           3.1563   -2.1064   19.6114 C.3     1  UNL1        0.0752
      6 C           2.6474   -1.0091   20.4985 C.3     1  UNL1        0.0500
      7 N           2.3134    1.6649   24.6084 N.am    1  UNL1       -0.2485
      8 C           2.8224    0.5677   23.7213 C.2     1  UNL1        0.3058
      9 O           3.0648   -0.8011   24.2851 O.2     1  UNL1       -0.2524
     10 N           3.0889    0.8391   22.2703 N.am    1  UNL1       -0.2901
     11 H           2.1543    2.5632   24.2383 H       1  UNL1        0.1583
     12 H           2.9298    1.7374   21.9002 H       1  UNL1        0.1509
     13 C           0.9043    0.9087   28.1451 C.ar    1  UNL1        0.0803
     14 S           0.7052    1.1254   26.6742 S.2     1  UNL1       -0.0488
     15 C           2.0469    1.3935   26.0593 C.ar    1  UNL1        0.1664
     16 N           3.0752    1.3425   27.1502 N.ar    1  UNL1       -0.2282
     17 C           2.3691    1.0429   28.4393 C.ar    1  UNL1        0.0701
     18 C           3.0144    0.9022   29.7860 C.3     1  UNL1        0.0528
     19 C          -1.2545   -0.3734   28.8125 C.3     1  UNL1        0.0779
     20 C          -0.1723    0.6102   29.1460 C.2     1  UNL1        0.1807
     21 O          -0.1667    1.2953   30.4803 O.2     1  UNL1       -0.2908
     22 C           5.1247   -3.5501   18.7219 C.3     1  UNL1        0.1107
     23 C           4.4785   -4.9033   18.7568 C.3     1  UNL1        0.2105
     24 F           3.6346   -5.3014   19.9313 F       1  UNL1       -0.2328
     25 C           1.1879   -0.6626   20.5009 C.3     1  UNL1        0.0751
     26 N           0.7382    0.6932   20.0431 N.3     1  UNL1       -0.2726
     27 C           0.9253    1.1019   18.6120 C.3     1  UNL1        0.0721
     28 C           0.4756    2.4577   18.1542 C.3     1  UNL1        0.0174
     29 C          -0.1612    3.4048   19.1276 C.3     1  UNL1        0.0031
     30 C          -0.3483    2.9962   20.5587 C.3     1  UNL1        0.0204
     31 C           0.1014    1.6403   21.0164 C.3     1  UNL1        0.0724
     32 C          -0.9851    3.9433   21.5321 C.3     1  UNL1        0.0277
     33 C          -2.4486    3.8296   21.8411 C.ar    1  UNL1       -0.0220
     34 C          -3.4456    3.7332   20.7245 C.ar    1  UNL1       -0.0020
     35 C          -4.9090    3.6195   21.0335 C.ar    1  UNL1        0.0293
     36 C          -5.3754    3.6021   22.4591 C.ar    1  UNL1        0.1401
     37 F          -6.8388    3.4883   22.7681 F       1  UNL1       -0.2042
     38 C          -4.3784    3.6984   23.5756 C.ar    1  UNL1        0.0293
     39 C          -2.9150    3.8121   23.2666 C.ar    1  UNL1       -0.0020
@<TRIPOS>BOND
     1    19    20    1
     2    20    21    2
     3    20    13    1
     4    13    14   ar
     5    14    15   ar
     6    15     7    1
     7     7     8   am
     8     8     9    2
     9     8    10   am
    10     1    10    1
    11     1     2    1
    12     2     3    1
    13     3     4    1
    14     4    22    1
    15    22    23    1
    16    23    24    1
    17     4     5    1
    18     5     6    1
    19     6    25    1
    20    25    26    1
    21    26    27    1
    22    27    28    1
    23    28    29    1
    24    29    30    1
    25    30    32    1
    26    32    33    1
    27    33    34   ar
    28    34    35   ar
    29    35    36   ar
    30    36    37    1
    31    36    38   ar
    32    38    39   ar
    33    30    31    1
    34    15    16   ar
    35    16    17   ar
    36    17    18    1
    37    17    13   ar
    38     6     1    1
    39    31    26    1
    40    39    33   ar
    41     7    11    1
    42    10    12    1
@<TRIPOS>MOLECULE
*****
 39 42 0 0 0
SMALL
GASTEIGER

@<TRIPOS>ATOM
      1 C         -10.1905  -19.3862   22.1650 C.3     1  UNL1        0.0771
      2 C         -10.1751  -20.2336   23.4026 C.3     1  UNL1        0.0370
      3 C         -11.2035  -20.0169   24.4728 C.3     1  UNL1        0.0739
      4 N         -12.2473  -18.9527   24.3055 N.3     1  UNL1       -0.2702
      5 C         -12.2627  -18.1054   23.0679 C.3     1  UNL1        0.0752
      6 C         -11.2344  -18.3221   21.9977 C.3     1  UNL1        0.0500
      7 N          -6.7048  -19.4340   20.2683 N.am    1  UNL1       -0.2485
      8 C          -7.7332  -19.2173   21.3385 C.2     1  UNL1        0.3058
      9 O          -7.3327  -18.6148   22.6526 O.2     1  UNL1       -0.2524
     10 N          -9.1621  -19.6030   21.0947 N.am    1  UNL1       -0.2901
     11 H          -6.9677  -19.8293   19.4058 H       1  UNL1        0.1583
     12 H          -9.4250  -19.9984   20.2323 H       1  UNL1        0.1509
     13 C          -2.9233  -18.5655   20.1615 C.ar    1  UNL1        0.0803
     14 S          -4.1873  -19.0009   19.4812 S.2     1  UNL1       -0.0488
     15 C          -5.2759  -19.0482   20.5121 C.ar    1  UNL1        0.1664
     16 N          -4.6847  -18.6421   21.8295 N.ar    1  UNL1       -0.2282
     17 C          -3.2307  -18.3438   21.6129 C.ar    1  UNL1        0.0701
     18 C          -2.2555  -17.9014   22.6632 C.3     1  UNL1        0.0528
     19 C          -1.4773  -17.6029   18.2296 C.3     1  UNL1        0.0779
     20 C          -1.5866  -18.3838   19.5057 C.2     1  UNL1        0.1807
     21 O          -0.3593  -18.9828   20.1258 O.2     1  UNL1       -0.2908
     22 C         -13.2757  -18.7360   25.3758 C.3     1  UNL1        0.1107
     23 C         -14.6077  -18.1413   25.0266 C.3     1  UNL1        0.2105
     24 F         -15.6141  -18.9513   24.2641 F       1  UNL1       -0.2328
     25 C         -11.2498  -17.4747   20.7600 C.3     1  UNL1        0.0751
     26 N         -10.3458  -16.2822   20.6563 N.3     1  UNL1       -0.2726
     27 C         -10.5886  -15.2468   19.5984 C.3     1  UNL1        0.0721
     28 C          -9.6846  -14.0543   19.4946 C.3     1  UNL1        0.0174
     29 C          -8.5379  -13.8971   20.4488 C.3     1  UNL1        0.0031
     30 C          -8.2952  -14.9325   21.5067 C.3     1  UNL1        0.0204
     31 C          -9.1992  -16.1250   21.6104 C.3     1  UNL1        0.0724
     32 C          -7.1485  -14.7753   22.4609 C.3     1  UNL1        0.0277
     33 C          -7.3139  -15.1581   23.9018 C.ar    1  UNL1       -0.0220
     34 C          -6.1275  -15.1549   24.8197 C.ar    1  UNL1       -0.0020
     35 C          -6.2930  -15.5376   26.2605 C.ar    1  UNL1        0.0293
     36 C          -7.6449  -15.9237   26.7835 C.ar    1  UNL1        0.1401
     37 F          -7.8103  -16.3065   28.2244 F       1  UNL1       -0.2042
     38 C          -8.8312  -15.9270   25.8656 C.ar    1  UNL1        0.0293
     39 C          -8.6657  -15.5442   24.4247 C.ar    1  UNL1       -0.0020
@<TRIPOS>BOND
     1    19    20    1
     2    20    21    2
     3    20    13    1
     4    13    14   ar
     5    14    15   ar
     6    15     7    1
     7     7     8   am
     8     8     9    2
     9     8    10   am
    10     1    10    1
    11     1     2    1
    12     2     3    1
    13     3     4    1
    14     4    22    1
    15    22    23    1
    16    23    24    1
    17     4     5    1
    18     5     6    1
    19     6    25    1
    20    25    26    1
    21    26    27    1
    22    27    28    1
    23    28    29    1
    24    29    30    1
    25    30    32    1
    26    32    33    1
    27    33    34   ar
    28    34    35   ar
    29    35    36   ar
    30    36    37    1
    31    36    38   ar
    32    38    39   ar
    33    30    31    1
    34    15    16   ar
    35    16    17   ar
    36    17    18    1
    37    17    13   ar
    38     6     1    1
    39    31    26    1
    40    39    33   ar
    41     7    11    1
    42    10    12    1
@<TRIPOS>MOLECULE
*****
 39 42 0 0 0
SMALL
GASTEIGER

@<TRIPOS>ATOM
      1 C           3.1950    0.2564   19.8511 C.3     1  UNL1        0.0771
      2 C           3.7562    0.1113   18.4677 C.3     1  UNL1        0.0370
      3 C           4.3884   -1.1822   18.0467 C.3     1  UNL1        0.0739
      4 N           4.4594   -2.3305   19.0091 N.3     1  UNL1       -0.2702
      5 C           3.8981   -2.1854   20.3925 C.3     1  UNL1        0.0752
      6 C           3.2659   -0.8920   20.8135 C.3     1  UNL1        0.0500
      7 N           0.4556    3.0504   20.5143 N.am    1  UNL1       -0.2485
      8 C           1.0879    1.7570   20.0933 C.2     1  UNL1        0.3058
      9 O           0.2453    0.6705   19.4933 O.2     1  UNL1       -0.2524
     10 N           2.5627    1.5499   20.2721 N.am    1  UNL1       -0.2901
     11 H           1.0086    3.7634   20.9080 H       1  UNL1        0.1583
     12 H           3.1157    2.2629   20.6659 H       1  UNL1        0.1509
     13 C          -3.1673    3.8460   19.3710 C.ar    1  UNL1        0.0803
     14 S          -1.6895    3.8159   19.1153 S.2     1  UNL1       -0.0488
     15 C          -1.0192    3.2574   20.3354 C.ar    1  UNL1        0.1664
     16 N          -2.0827    2.9425   21.3453 N.ar    1  UNL1       -0.2282
     17 C          -3.4102    3.3062   20.7493 C.ar    1  UNL1        0.0701
     18 C          -4.7462    3.1564   21.4147 C.3     1  UNL1        0.0528
     19 C          -4.6833    5.7556   18.4737 C.3     1  UNL1        0.0779
     20 C          -4.2176    4.3309   18.4162 C.2     1  UNL1        0.1807
     21 O          -4.8022    3.3911   17.4039 O.2     1  UNL1       -0.2908
     22 C           5.0916   -3.6240   18.5880 C.3     1  UNL1        0.1107
     23 C           4.4486   -4.9281   18.9567 C.3     1  UNL1        0.2105
     24 F           2.9543   -5.0311   19.0377 F       1  UNL1       -0.2328
     25 C           2.7046   -0.7468   22.1970 C.3     1  UNL1        0.0751
     26 N           3.4271    0.0834   23.2162 N.3     1  UNL1       -0.2726
     27 C           4.9228    0.1893   23.1734 C.3     1  UNL1        0.0721
     28 C           5.6453    1.0195   24.1926 C.3     1  UNL1        0.0174
     29 C           4.8721    1.7438   25.2545 C.3     1  UNL1        0.0031
     30 C           3.3765    1.6379   25.2972 C.3     1  UNL1        0.0204
     31 C           2.6540    0.8077   24.2781 C.3     1  UNL1        0.0724
     32 C           2.6033    2.3622   26.3592 C.3     1  UNL1        0.0277
     33 C           1.4883    1.6659   27.0817 C.ar    1  UNL1       -0.0220
     34 C           1.7902    0.5163   27.9967 C.ar    1  UNL1       -0.0020
     35 C           0.6752   -0.1800   28.7192 C.ar    1  UNL1        0.0293
     36 C          -0.7416    0.2733   28.5267 C.ar    1  UNL1        0.1401
     37 F          -1.8566   -0.4230   29.2492 F       1  UNL1       -0.2042
     38 C          -1.0435    1.4229   27.6117 C.ar    1  UNL1        0.0293
     39 C           0.0715    2.1192   26.8892 C.ar    1  UNL1       -0.0020
@<TRIPOS>BOND
     1    19    20    1
     2    20    21    2
     3    20    13    1
     4    13    14   ar
     5    14    15   ar
     6    15     7    1
     7     7     8   am
     8     8     9    2
     9     8    10   am
    10     1    10    1
    11     1     2    1
    12     2     3    1
    13     3     4    1
    14     4    22    1
    15    22    23    1
    16    23    24    1
    17     4     5    1
    18     5     6    1
    19     6    25    1
    20    25    26    1
    21    26    27    1
    22    27    28    1
    23    28    29    1
    24    29    30    1
    25    30    32    1
    26    32    33    1
    27    33    34   ar
    28    34    35   ar
    29    35    36   ar
    30    36    37    1
    31    36    38   ar
    32    38    39   ar
    33    30    31    1
    34    15    16   ar
    35    16    17   ar
    36    17    18    1
    37    17    13   ar
    38     6     1    1
    39    31    26    1
    40    39    33   ar
    41     7    11    1
    42    10    12    1
@<TRIPOS>MOLECULE
*****
 39 42 0 0 0
SMALL
GASTEIGER

@<TRIPOS>ATOM
      1 C           8.2384   -4.4250   26.0804 C.3     1  UNL1        0.0771
      2 C           7.9461   -5.8662   26.3761 C.3     1  UNL1        0.0370
      3 C           7.4823   -6.2721   27.7435 C.3     1  UNL1        0.0739
      4 N           7.3107   -5.2368   28.8153 N.3     1  UNL1       -0.2702
      5 C           7.6029   -3.7956   28.5196 C.3     1  UNL1        0.0752
      6 C           8.0668   -3.3897   27.1522 C.3     1  UNL1        0.0500
      7 N           8.1695   -3.4281   22.2396 N.am    1  UNL1       -0.2485
      8 C           7.7057   -3.8341   23.6071 C.2     1  UNL1        0.3058
      9 O           6.2453   -4.0552   23.8688 O.2     1  UNL1       -0.2524
     10 N           8.7023   -4.0190   24.7128 N.am    1  UNL1       -0.2901
     11 H           9.1280   -3.2830   22.0678 H       1  UNL1        0.1583
     12 H           9.6607   -3.8739   24.5411 H       1  UNL1        0.1509
     13 C           5.8519   -2.2429   19.3604 C.ar    1  UNL1        0.0803
     14 S           6.9310   -1.9765   20.3677 S.2     1  UNL1       -0.0488
     15 C           7.1730   -3.2432   21.1338 C.ar    1  UNL1        0.1664
     16 N           6.2434   -4.2925   20.6000 N.ar    1  UNL1       -0.2282
     17 C           5.4270   -3.6743   19.5040 C.ar    1  UNL1        0.0701
     18 C           4.3710   -4.3660   18.6938 C.3     1  UNL1        0.0528
     19 C           5.1366    0.1858   18.7781 C.3     1  UNL1        0.0779
     20 C           5.2956   -1.2520   18.3814 C.2     1  UNL1        0.1807
     21 O           4.8982   -1.6988   17.0058 O.2     1  UNL1       -0.2908
     22 C           6.8468   -5.6428   30.1829 C.3     1  UNL1        0.1107
     23 C           7.8501   -5.9421   31.2570 C.3     1  UNL1        0.2105
     24 F           9.1568   -6.5887   30.9038 F       1  UNL1       -0.2328
     25 C           8.3590   -1.9484   26.8564 C.3     1  UNL1        0.0751
     26 N           7.5875   -1.2305   25.7890 N.3     1  UNL1       -0.2726
     27 C           8.3105   -0.3948   24.7746 C.3     1  UNL1        0.0721
     28 C           7.5390    0.3232   23.7072 C.3     1  UNL1        0.0174
     29 C           6.0445    0.2055   23.6543 C.3     1  UNL1        0.0031
     30 C           5.3216   -0.6301   24.6687 C.3     1  UNL1        0.0204
     31 C           6.0931   -1.3481   25.7361 C.3     1  UNL1        0.0724
     32 C           3.8271   -0.7479   24.6158 C.3     1  UNL1        0.0277
     33 C           3.1106   -0.6176   23.3044 C.ar    1  UNL1       -0.0220
     34 C           2.1320    0.4994   23.0922 C.ar    1  UNL1       -0.0020
     35 C           1.4154    0.6296   21.7809 C.ar    1  UNL1        0.0293
     36 C           1.6774   -0.3570   20.6818 C.ar    1  UNL1        0.1401
     37 F           0.9608   -0.2267   19.3705 F       1  UNL1       -0.2042
     38 C           2.6559   -1.4739   20.8941 C.ar    1  UNL1        0.0293
     39 C           3.3725   -1.6042   22.2054 C.ar    1  UNL1       -0.0020
@<TRIPOS>BOND
     1    19    20    1
     2    20    21    2
     3    20    13    1
     4    13    14   ar
     5    14    15   ar
     6    15     7    1
     7     7     8   am
     8     8     9    2
     9     8    10   am
    10     1    10    1
    11     1     2    1
    12     2     3    1
    13     3     4    1
    14     4    22    1
    15    22    23    1
    16    23    24    1
    17     4     5    1
    18     5     6    1
    19     6    25    1
    20    25    26    1
    21    26    27    1
    22    27    28    1
    23    28    29    1
    24    29    30    1
    25    30    32    1
    26    32    33    1
    27    33    34   ar
    28    34    35   ar
    29    35    36   ar
    30    36    37    1
    31    36    38   ar
    32    38    39   ar
    33    30    31    1
    34    15    16   ar
    35    16    17   ar
    36    17    18    1
    37    17    13   ar
    38     6     1    1
    39    31    26    1
    40    39    33   ar
    41     7    11    1
    42    10    12    1
@<TRIPOS>MOLECULE
*****
 39 42 0 0 0
SMALL
GASTEIGER

@<TRIPOS>ATOM
      1 C           6.4806   -2.6140   28.1233 C.3     1  UNL1        0.0771
      2 C           6.4235   -4.0147   28.6570 C.3     1  UNL1        0.0370
      3 C           7.1607   -5.1157   27.9540 C.3     1  UNL1        0.0739
      4 N           7.9551   -4.8160   26.7174 N.3     1  UNL1       -0.2702
      5 C           8.0122   -3.4154   26.1838 C.3     1  UNL1        0.0752
      6 C           7.2750   -2.3144   26.8867 C.3     1  UNL1        0.0500
      7 N           3.5876   -0.1004   29.1541 N.am    1  UNL1       -0.2485
      8 C           4.3248   -1.2015   28.4512 C.2     1  UNL1        0.3058
      9 O           3.6435   -1.9912   27.3730 O.2     1  UNL1       -0.2524
     10 N           5.7434   -1.5129   28.8263 N.am    1  UNL1       -0.2901
     11 H           4.0348    0.4179   29.8616 H       1  UNL1        0.1583
     12 H           6.1906   -0.9946   29.5339 H       1  UNL1        0.1509
     13 C           0.2294    1.1067   27.6273 C.ar    1  UNL1        0.0803
     14 S           1.7289    1.0679   27.6291 S.2     1  UNL1       -0.0488
     15 C           2.1691    0.2110   28.7789 C.ar    1  UNL1        0.1664
     16 N           0.9415   -0.2798   29.4876 N.ar    1  UNL1       -0.2282
     17 C          -0.2572    0.2738   28.7759 C.ar    1  UNL1        0.0701
     18 C          -1.6909    0.0361   29.1476 C.3     1  UNL1        0.0528
     19 C          -0.3949    1.6965   25.1753 C.3     1  UNL1        0.0779
     20 C          -0.6321    1.8483   26.6486 C.2     1  UNL1        0.1807
     21 O          -1.7309    2.7415   27.1432 O.2     1  UNL1       -0.2908
     22 C           8.6923   -5.9172   26.0144 C.3     1  UNL1        0.1107
     23 C           7.9477   -6.8726   25.1298 C.3     1  UNL1        0.2105
     24 F           8.6888   -7.9580   24.4066 F       1  UNL1       -0.2328
     25 C           7.3322   -0.9136   26.3531 C.3     1  UNL1        0.0751
     26 N           6.1576   -0.3440   25.6143 N.3     1  UNL1       -0.2726
     27 C           5.7078    1.0604   25.8894 C.3     1  UNL1        0.0721
     28 C           4.5332    1.6300   25.1506 C.3     1  UNL1        0.0174
     29 C           3.8084    0.7952   24.1367 C.3     1  UNL1        0.0031
     30 C           4.2581   -0.6090   23.8617 C.3     1  UNL1        0.0204
     31 C           5.4327   -1.1786   24.6005 C.3     1  UNL1        0.0724
     32 C           3.5333   -1.4438   22.8478 C.3     1  UNL1        0.0277
     33 C           4.2076   -1.8124   21.5596 C.ar    1  UNL1       -0.0220
     34 C           4.7137   -0.7376   20.6437 C.ar    1  UNL1       -0.0020
     35 C           5.3880   -1.1062   19.3555 C.ar    1  UNL1        0.0293
     36 C           5.5561   -2.5496   18.9832 C.ar    1  UNL1        0.1401
     37 F           6.2304   -2.9181   17.6950 F       1  UNL1       -0.2042
     38 C           5.0500   -3.6242   19.8991 C.ar    1  UNL1        0.0293
     39 C           4.3757   -3.2556   21.1873 C.ar    1  UNL1       -0.0020
@<TRIPOS>BOND
     1    19    20    1
     2    20    21    2
     3    20    13    1
     4    13    14   ar
     5    14    15   ar
     6    15     7    1
     7     7     8   am
     8     8     9    2
     9     8    10   am
    10     1    10    1
    11     1     2    1
    12     2     3    1
    13     3     4    1
    14     4    22    1
    15    22    23    1
    16    23    24    1
    17     4     5    1
    18     5     6    1
    19     6    25    1
    20    25    26    1
    21    26    27    1
    22    27    28    1
    23    28    29    1
    24    29    30    1
    25    30    32    1
    26    32    33    1
    27    33    34   ar
    28    34    35   ar
    29    35    36   ar
    30    36    37    1
    31    36    38   ar
    32    38    39   ar
    33    30    31    1
    34    15    16   ar
    35    16    17   ar
    36    17    18    1
    37    17    13   ar
    38     6     1    1
    39    31    26    1
    40    39    33   ar
    41     7    11    1
    42    10    12    1
@<TRIPOS>MOLECULE
*****
 39 42 0 0 0
SMALL
GASTEIGER

@<TRIPOS>ATOM
      1 C           7.3271   -3.0973   23.7451 C.3     1  UNL1        0.0771
      2 C           7.3273   -3.6219   25.1503 C.3     1  UNL1        0.0370
      3 C           7.7295   -5.0413   25.4209 C.3     1  UNL1        0.0739
      4 N           8.1316   -5.9362   24.2863 N.3     1  UNL1       -0.2702
      5 C           8.1315   -5.4117   22.8810 C.3     1  UNL1        0.0752
      6 C           7.7292   -3.9922   22.6104 C.3     1  UNL1        0.0500
      7 N           5.0713    0.1209   23.1935 N.am    1  UNL1       -0.2485
      8 C           5.4736   -1.2985   23.4641 C.2     1  UNL1        0.3058
      9 O           4.4247   -2.3387   23.7245 O.2     1  UNL1       -0.2524
     10 N           6.9248   -1.6778   23.4744 N.am    1  UNL1       -0.2901
     11 H           5.7598    0.8037   23.0226 H       1  UNL1        0.1583
     12 H           7.6133   -0.9951   23.3035 H       1  UNL1        0.1509
     13 C           1.4110    1.1559   22.4212 C.ar    1  UNL1        0.0803
     14 S           2.8061    0.8396   21.9698 S.2     1  UNL1       -0.0488
     15 C           3.6201    0.5002   23.1832 C.ar    1  UNL1        0.1664
     16 N           2.7281    0.6068   24.3844 N.ar    1  UNL1       -0.2282
     17 C           1.3628    1.0120   23.9135 C.ar    1  UNL1        0.0701
     18 C           0.1604    1.2343   24.7823 C.3     1  UNL1        0.0528
     19 C          -0.2003    2.9727   21.4976 C.3     1  UNL1        0.0779
     20 C           0.2653    1.5473   21.5357 C.2     1  UNL1        0.1807
     21 O          -0.4149    0.5133   20.6882 O.2     1  UNL1       -0.2908
     22 C           8.5339   -7.3558   24.5569 C.3     1  UNL1        0.1107
     23 C           8.1507   -8.0101   25.8511 C.3     1  UNL1        0.2105
     24 F           6.7046   -8.1322   26.2305 F       1  UNL1       -0.2328
     25 C           7.7290   -3.4676   21.2051 C.3     1  UNL1        0.0751
     26 N           6.4322   -3.2785   20.4753 N.3     1  UNL1       -0.2726
     27 C           5.2619   -4.1647   20.7837 C.3     1  UNL1        0.0721
     28 C           3.9651   -3.9756   20.0539 C.3     1  UNL1        0.0174
     29 C           3.8386   -2.9002   19.0158 C.3     1  UNL1        0.0031
     30 C           5.0089   -2.0140   18.7075 C.3     1  UNL1        0.0204
     31 C           6.3057   -2.2031   19.4373 C.3     1  UNL1        0.0724
     32 C           4.8824   -0.9386   17.6694 C.3     1  UNL1        0.0277
     33 C           4.1665    0.3385   17.9959 C.ar    1  UNL1       -0.0220
     34 C           4.9499    1.5856   18.2809 C.ar    1  UNL1       -0.0020
     35 C           4.2340    2.8627   18.6074 C.ar    1  UNL1        0.0293
     36 C           2.7348    2.8927   18.6489 C.ar    1  UNL1        0.1401
     37 F           2.0190    4.1698   18.9754 F       1  UNL1       -0.2042
     38 C           1.9516    1.6456   18.3638 C.ar    1  UNL1        0.0293
     39 C           2.6674    0.3685   18.0374 C.ar    1  UNL1       -0.0020
@<TRIPOS>BOND
     1    19    20    1
     2    20    21    2
     3    20    13    1
     4    13    14   ar
     5    14    15   ar
     6    15     7    1
     7     7     8   am
     8     8     9    2
     9     8    10   am
    10     1    10    1
    11     1     2    1
    12     2     3    1
    13     3     4    1
    14     4    22    1
    15    22    23    1
    16    23    24    1
    17     4     5    1
    18     5     6    1
    19     6    25    1
    20    25    26    1
    21    26    27    1
    22    27    28    1
    23    28    29    1
    24    29    30    1
    25    30    32    1
    26    32    33    1
    27    33    34   ar
    28    34    35   ar
    29    35    36   ar
    30    36    37    1
    31    36    38   ar
    32    38    39   ar
    33    30    31    1
    34    15    16   ar
    35    16    17   ar
    36    17    18    1
    37    17    13   ar
    38     6     1    1
    39    31    26    1
    40    39    33   ar
    41     7    11    1
    42    10    12    1
@<TRIPOS>MOLECULE
*****
 39 42 0 0 0
SMALL
GASTEIGER

@<TRIPOS>ATOM
      1 C           4.2256   -1.3090   25.8359 C.3     1  UNL1        0.0771
      2 C           3.4934   -1.1326   24.5387 C.3     1  UNL1        0.0370
      3 C           4.2528   -0.8050   23.2874 C.3     1  UNL1        0.0739
      4 N           5.7445   -0.6538   23.3333 N.3     1  UNL1       -0.2702
      5 C           6.4767   -0.8302   24.6305 C.3     1  UNL1        0.0752
      6 C           5.7172   -1.1578   25.8818 C.3     1  UNL1        0.0500
      7 N           2.4567   -0.8991   29.3648 N.am    1  UNL1       -0.2485
      8 C           3.2161   -0.5715   28.1135 C.2     1  UNL1        0.3058
      9 O           3.7256    0.8213   27.8882 O.2     1  UNL1       -0.2524
     10 N           3.4661   -1.6366   27.0873 N.am    1  UNL1       -0.2901
     11 H           2.1223   -1.8132   29.5127 H       1  UNL1        0.1583
     12 H           3.1317   -2.5507   27.2351 H       1  UNL1        0.1509
     13 C           2.4183    1.5699   32.3596 C.ar    1  UNL1        0.0803
     14 S           3.0245    0.4114   31.6243 S.2     1  UNL1       -0.0488
     15 C           2.2068    0.1661   30.3910 C.ar    1  UNL1        0.1664
     16 N           1.0952    1.1729   30.3640 N.ar    1  UNL1       -0.2282
     17 C           1.2259    2.0405   31.5807 C.ar    1  UNL1        0.0701
     18 C           0.3228    3.1788   31.9530 C.3     1  UNL1        0.0528
     19 C           4.3349    2.6325   33.7551 C.3     1  UNL1        0.0779
     20 C           2.9170    2.1550   33.6476 C.2     1  UNL1        0.1807
     21 O           1.9979    2.2625   34.8280 O.2     1  UNL1       -0.2908
     22 C           6.5039   -0.3261   22.0819 C.3     1  UNL1        0.1107
     23 C           6.6034   -1.3373   20.9785 C.3     1  UNL1        0.2105
     24 F           5.8464   -2.6288   21.0742 F       1  UNL1       -0.2328
     25 C           6.4494   -1.3342   27.1790 C.3     1  UNL1        0.0751
     26 N           6.5318   -2.6901   27.8153 N.3     1  UNL1       -0.2726
     27 C           6.5215   -3.9220   26.9596 C.3     1  UNL1        0.0721
     28 C           6.6039   -5.2779   27.5959 C.3     1  UNL1        0.0174
     29 C           6.6966   -5.4018   29.0879 C.3     1  UNL1        0.0031
     30 C           6.7069   -4.1699   29.9436 C.3     1  UNL1        0.0204
     31 C           6.6245   -2.8140   29.3073 C.3     1  UNL1        0.0724
     32 C           6.7997   -4.2937   31.4356 C.3     1  UNL1        0.0277
     33 C           6.8133   -3.0617   32.2911 C.ar    1  UNL1       -0.0220
     34 C           8.1111   -2.3729   32.5935 C.ar    1  UNL1       -0.0020
     35 C           8.1248   -1.1408   33.4489 C.ar    1  UNL1        0.0293
     36 C           6.8406   -0.5975   34.0020 C.ar    1  UNL1        0.1401
     37 F           6.8542    0.6346   34.8574 F       1  UNL1       -0.2042
     38 C           5.5429   -1.2863   33.6996 C.ar    1  UNL1        0.0293
     39 C           5.5292   -2.5184   32.8442 C.ar    1  UNL1       -0.0020
@<TRIPOS>BOND
     1    19    20    1
     2    20    21    2
     3    20    13    1
     4    13    14   ar
     5    14    15   ar
     6    15     7    1
     7     7     8   am
     8     8     9    2
     9     8    10   am
    10     1    10    1
    11     1     2    1
    12     2     3    1
    13     3     4    1
    14     4    22    1
    15    22    23    1
    16    23    24    1
    17     4     5    1
    18     5     6    1
    19     6    25    1
    20    25    26    1
    21    26    27    1
    22    27    28    1
    23    28    29    1
    24    29    30    1
    25    30    32    1
    26    32    33    1
    27    33    34   ar
    28    34    35   ar
    29    35    36   ar
    30    36    37    1
    31    36    38   ar
    32    38    39   ar
    33    30    31    1
    34    15    16   ar
    35    16    17   ar
    36    17    18    1
    37    17    13   ar
    38     6     1    1
    39    31    26    1
    40    39    33   ar
    41     7    11    1
    42    10    12    1
@<TRIPOS>MOLECULE
*****
 39 42 0 0 0
SMALL
GASTEIGER

@<TRIPOS>ATOM
      1 C           6.5685   -1.8119   30.3023 C.3     1  UNL1        0.0771
      2 C           6.4812   -2.9659   31.2566 C.3     1  UNL1        0.0370
      3 C           7.3713   -4.1593   31.0737 C.3     1  UNL1        0.0739
      4 N           8.3489   -4.1986   29.9367 N.3     1  UNL1       -0.2702
      5 C           8.4362   -3.0446   28.9825 C.3     1  UNL1        0.0752
      6 C           7.5460   -1.8513   29.1653 C.3     1  UNL1        0.0500
      7 N           3.4442    0.6169   30.0029 N.am    1  UNL1       -0.2485
      8 C           4.3344   -0.5764   29.8202 C.2     1  UNL1        0.3058
      9 O           3.8807   -1.7278   28.9724 O.2     1  UNL1       -0.2524
     10 N           5.6783   -0.6185   30.4851 N.am    1  UNL1       -0.2901
     11 H           3.7420    1.3725   30.5593 H       1  UNL1        0.1583
     12 H           5.9761    0.1371   31.0415 H       1  UNL1        0.1509
     13 C           0.3151    1.1552   27.7704 C.ar    1  UNL1        0.0803
     14 S           1.7680    1.3819   28.0664 S.2     1  UNL1       -0.0488
     15 C           2.1003    0.6590   29.3380 C.ar    1  UNL1        0.1664
     16 N           0.8527   -0.0145   29.8278 N.ar    1  UNL1       -0.2282
     17 C          -0.2506    0.2922   28.8590 C.ar    1  UNL1        0.0701
     18 C          -1.6703   -0.1811   28.9610 C.3     1  UNL1        0.0528
     19 C          -1.4321    2.8050   26.7828 C.3     1  UNL1        0.0779
     20 C          -0.4396    1.6965   26.5925 C.2     1  UNL1        0.1807
     21 O          -0.2019    1.1294   25.2244 O.2     1  UNL1       -0.2908
     22 C           9.2391   -5.3920   29.7539 C.3     1  UNL1        0.1107
     23 C           8.8553   -6.4730   28.7874 C.3     1  UNL1        0.2105
     24 F           7.4335   -6.5955   28.3249 F       1  UNL1       -0.2328
     25 C           7.6334   -0.6972   28.2110 C.3     1  UNL1        0.0751
     26 N           7.3849   -0.9135   26.7477 N.3     1  UNL1       -0.2726
     27 C           8.5108   -0.7717   25.7667 C.3     1  UNL1        0.0721
     28 C           8.2624   -0.9881   24.3034 C.3     1  UNL1        0.0174
     29 C           6.8879   -1.3463   23.8209 C.3     1  UNL1        0.0031
     30 C           5.7620   -1.4881   24.8019 C.3     1  UNL1        0.0204
     31 C           6.0105   -1.2717   26.2652 C.3     1  UNL1        0.0724
     32 C           4.3876   -1.8463   24.3194 C.3     1  UNL1        0.0277
     33 C           4.1758   -2.2497   22.8903 C.ar    1  UNL1       -0.0220
     34 C           3.5352   -1.2936   21.9282 C.ar    1  UNL1       -0.0020
     35 C           3.3234   -1.6970   20.4990 C.ar    1  UNL1        0.0293
     36 C           3.7523   -3.0564   20.0320 C.ar    1  UNL1        0.1401
     37 F           3.5405   -3.4598   18.6029 F       1  UNL1       -0.2042
     38 C           4.3929   -4.0124   20.9941 C.ar    1  UNL1        0.0293
     39 C           4.6047   -3.6091   22.4232 C.ar    1  UNL1       -0.0020
@<TRIPOS>BOND
     1    19    20    1
     2    20    21    2
     3    20    13    1
     4    13    14   ar
     5    14    15   ar
     6    15     7    1
     7     7     8   am
     8     8     9    2
     9     8    10   am
    10     1    10    1
    11     1     2    1
    12     2     3    1
    13     3     4    1
    14     4    22    1
    15    22    23    1
    16    23    24    1
    17     4     5    1
    18     5     6    1
    19     6    25    1
    20    25    26    1
    21    26    27    1
    22    27    28    1
    23    28    29    1
    24    29    30    1
    25    30    32    1
    26    32    33    1
    27    33    34   ar
    28    34    35   ar
    29    35    36   ar
    30    36    37    1
    31    36    38   ar
    32    38    39   ar
    33    30    31    1
    34    15    16   ar
    35    16    17   ar
    36    17    18    1
    37    17    13   ar
    38     6     1    1
    39    31    26    1
    40    39    33   ar
    41     7    11    1
    42    10    12    1
@<TRIPOS>MOLECULE
*****
 39 42 0 0 0
SMALL
GASTEIGER

@<TRIPOS>ATOM
      1 C           7.1458   -2.7417   26.6084 C.3     1  UNL1        0.0771
      2 C           8.1428   -3.0541   27.6847 C.3     1  UNL1        0.0370
      3 C           8.7455   -4.4247   27.7737 C.3     1  UNL1        0.0739
      4 N           8.3512   -5.4830   26.7865 N.3     1  UNL1       -0.2702
      5 C           7.3542   -5.1706   25.7103 C.3     1  UNL1        0.0752
      6 C           6.7515   -3.8000   25.6213 C.3     1  UNL1        0.0500
      7 N           4.6527    0.3003   27.1386 N.am    1  UNL1       -0.2485
      8 C           5.2555   -1.0704   27.2277 C.2     1  UNL1        0.3058
      9 O           4.5706   -2.1405   28.0251 O.2     1  UNL1       -0.2524
     10 N           6.5431   -1.3709   26.5193 N.am    1  UNL1       -0.2901
     11 H           5.1022    1.0026   26.6153 H       1  UNL1        0.1583
     12 H           6.9925   -0.6686   25.9960 H       1  UNL1        0.1509
     13 C           0.9990    0.8258   28.3386 C.ar    1  UNL1        0.0803
     14 S           1.9859    0.3931   27.2951 S.2     1  UNL1       -0.0488
     15 C           3.3651    0.6008   27.8470 C.ar    1  UNL1        0.1664
     16 N           3.2306    1.1619   29.2315 N.ar    1  UNL1       -0.2282
     17 C           1.7683    1.3009   29.5354 C.ar    1  UNL1        0.0701
     18 C           1.1789    1.8234   30.8120 C.3     1  UNL1        0.0528
     19 C          -1.2635   -0.3946   28.7149 C.3     1  UNL1        0.0779
     20 C          -0.4949    0.7896   28.2082 C.2     1  UNL1        0.1807
     21 O          -1.2201    1.9376   27.5711 O.2     1  UNL1       -0.2908
     22 C           8.9540   -6.8537   26.8756 C.3     1  UNL1        0.1107
     23 C           8.3747   -7.9813   26.0738 C.3     1  UNL1        0.2105
     24 F           6.9460   -8.3903   26.2779 F       1  UNL1       -0.2328
     25 C           5.7544   -3.4875   24.5450 C.3     1  UNL1        0.0751
     26 N           6.1881   -3.4471   23.1096 N.3     1  UNL1       -0.2726
     27 C           7.6470   -3.3717   22.7688 C.3     1  UNL1        0.0721
     28 C           8.0807   -3.3313   21.3334 C.3     1  UNL1        0.0174
     29 C           7.0555   -3.3662   20.2389 C.3     1  UNL1        0.0031
     30 C           5.5968   -3.4416   20.5798 C.3     1  UNL1        0.0204
     31 C           5.1630   -3.4820   22.0151 C.3     1  UNL1        0.0724
     32 C           4.5716   -3.4766   19.4852 C.3     1  UNL1        0.0277
     33 C           3.8093   -2.2340   19.1317 C.ar    1  UNL1       -0.0220
     34 C           2.7145   -1.7439   20.0325 C.ar    1  UNL1       -0.0020
     35 C           1.9523   -0.5014   19.6789 C.ar    1  UNL1        0.0293
     36 C           2.2848    0.2511   18.4246 C.ar    1  UNL1        0.1401
     37 F           1.5225    1.4937   18.0710 F       1  UNL1       -0.2042
     38 C           3.3796   -0.2390   17.5239 C.ar    1  UNL1        0.0293
     39 C           4.1418   -1.4815   17.8775 C.ar    1  UNL1       -0.0020
@<TRIPOS>BOND
     1    19    20    1
     2    20    21    2
     3    20    13    1
     4    13    14   ar
     5    14    15   ar
     6    15     7    1
     7     7     8   am
     8     8     9    2
     9     8    10   am
    10     1    10    1
    11     1     2    1
    12     2     3    1
    13     3     4    1
    14     4    22    1
    15    22    23    1
    16    23    24    1
    17     4     5    1
    18     5     6    1
    19     6    25    1
    20    25    26    1
    21    26    27    1
    22    27    28    1
    23    28    29    1
    24    29    30    1
    25    30    32    1
    26    32    33    1
    27    33    34   ar
    28    34    35   ar
    29    35    36   ar
    30    36    37    1
    31    36    38   ar
    32    38    39   ar
    33    30    31    1
    34    15    16   ar
    35    16    17   ar
    36    17    18    1
    37    17    13   ar
    38     6     1    1
    39    31    26    1
    40    39    33   ar
    41     7    11    1
    42    10    12    1
