@<TRIPOS>MOLECULE
*****
 36 40 0 0 0
SMALL
GASTEIGER

@<TRIPOS>ATOM
      1 C           0.7555    1.2298   19.3188 C.ar    1  UNL1        0.1353
      2 C          -0.0703    1.6084   20.5124 C.ar    1  UNL1        0.0346
      3 C          -0.9113    2.8501   20.4793 C.ar    1  UNL1        0.0058
      4 C          -0.9265    3.7130   19.2525 C.ar    1  UNL1        0.0208
      5 C          -0.1008    3.3344   18.0589 C.ar    1  UNL1        0.1003
      6 N           0.7402    2.0928   18.0920 N.ar    1  UNL1       -0.2290
      7 C           7.7446   -2.2005   18.9533 C.3     1  UNL1        0.0339
      8 C           6.2559   -2.2987   19.1084 C.3     1  UNL1        0.1351
      9 C           5.4149   -1.0571   19.0751 C.3     1  UNL1        0.1244
     10 N           3.9262   -1.1553   19.2302 N.am    1  UNL1       -0.2590
     11 C           3.0851    0.0864   19.1970 C.2     1  UNL1        0.3089
     12 O           3.7328    1.4262   19.0087 O.2     1  UNL1       -0.2522
     13 N           1.5964   -0.0118   19.3520 N.am    1  UNL1       -0.2535
     14 C           3.2785   -2.4951   19.4185 C.3     1  UNL1        0.1244
     15 C           4.1194   -3.7367   19.4517 C.3     1  UNL1        0.1351
     16 C           3.4717   -5.0764   19.6400 C.3     1  UNL1        0.0339
     17 O           5.6082   -3.6385   19.2966 O.3     1  UNL1       -0.3552
     18 H           1.1713   -0.8911   19.4756 H       1  UNL1        0.1578
     19 C          -1.7371    3.2288   21.6729 C.ar    1  UNL1        0.0188
     20 C          -3.1719    3.6657   21.6497 C.ar    1  UNL1        0.0758
     21 N          -3.5945    3.9439   23.0618 N.ar    1  UNL1       -0.3267
     22 C          -2.4210    3.6789   23.9577 C.ar    1  UNL1        0.0793
     23 C          -2.2494    3.7830   25.4442 C.ar    1  UNL1        0.1160
     24 N          -0.9298    3.4451   26.0723 N.ar    1  UNL1       -0.2408
     25 C           0.2182    3.0031   25.2139 C.ar    1  UNL1        0.0990
     26 C           0.0466    2.8991   23.7274 C.ar    1  UNL1        0.0222
     27 C          -1.2730    3.2370   23.0993 C.ar    1  UNL1        0.0203
     28 C          -4.9523    4.4059   23.5009 C.3     1  UNL1        0.0857
     29 C          -6.1799    3.8890   22.8110 C.3     1  UNL1        0.0250
     30 C          -7.5378    4.3511   23.2502 C.3     1  UNL1        0.0288
     31 C          -7.6680    5.3300   24.3792 C.3     1  UNL1        0.0885
     32 C          -8.3010    6.2391   25.3906 C.3     1  UNL1        0.0293
     33 O          -9.1154    5.1288   24.0405 O.3     1  UNL1       -0.3867
     34 C          -6.4405    5.8469   25.0690 C.3     1  UNL1        0.0288
     35 C          -5.0827    5.3849   24.6299 C.3     1  UNL1        0.0250
     36 H          -9.1911    4.5010   23.3050 H       1  UNL1        0.2102
@<TRIPOS>BOND
     1     8     7    1
     2     8     9    1
     3     9    10    1
     4    10    11   am
     5    11    12    2
     6    11    13   am
     7    13     1    1
     8     1     2   ar
     9     2     3   ar
    10     3    19    1
    11    19    20   ar
    12    20    21   ar
    13    28    21    1
    14    28    29    1
    15    29    30    1
    16    30    31    1
    17    31    32    1
    18    31    33    1
    19    31    34    1
    20    34    35    1
    21    21    22   ar
    22    22    23   ar
    23    23    24   ar
    24    24    25   ar
    25    25    26   ar
    26    26    27   ar
    27     3     4   ar
    28     4     5   ar
    29     5     6   ar
    30    10    14    1
    31    14    15    1
    32    15    16    1
    33    15    17    1
    34    17     8    1
    35     6     1   ar
    36    27    19   ar
    37    35    28    1
    38    27    22   ar
    39    13    18    1
    40    33    36    1
@<TRIPOS>MOLECULE
*****
 36 40 0 0 0
SMALL
GASTEIGER

@<TRIPOS>ATOM
      1 C           0.2920    2.4647   19.9680 C.ar    1  UNL1        0.1353
      2 C           0.0036    2.4639   21.4400 C.ar    1  UNL1        0.0346
      3 C          -1.1838    3.2104   21.9720 C.ar    1  UNL1        0.0058
      4 C          -2.0827    3.9575   21.0320 C.ar    1  UNL1        0.0208
      5 C          -1.7942    3.9584   19.5600 C.ar    1  UNL1        0.1003
      6 N          -0.6069    3.2120   19.0280 N.ar    1  UNL1       -0.2290
      7 C           4.2121   -4.2090   19.0496 C.3     1  UNL1        0.0339
      8 C           4.0928   -2.7309   18.8238 C.3     1  UNL1        0.1351
      9 C           2.9055   -1.9844   19.3557 C.3     1  UNL1        0.1244
     10 N           2.7861   -0.5063   19.1299 N.am    1  UNL1       -0.2590
     11 C           1.5987    0.2402   19.6619 C.2     1  UNL1        0.3089
     12 O           0.5307   -0.4914   20.4196 O.2     1  UNL1       -0.2522
     13 N           1.4794    1.7183   19.4361 N.am    1  UNL1       -0.2535
     14 C           3.8541    0.2253   18.3722 C.3     1  UNL1        0.1244
     15 C           5.0415   -0.5212   17.8403 C.3     1  UNL1        0.1351
     16 C           6.1095    0.2104   17.0826 C.3     1  UNL1        0.0339
     17 O           5.1608   -1.9993   18.0661 O.3     1  UNL1       -0.3552
     18 H           2.1803    2.1985   18.9387 H       1  UNL1        0.1578
     19 C          -1.4723    3.2095   23.4441 C.ar    1  UNL1        0.0188
     20 C          -0.5056    2.8455   24.5317 C.ar    1  UNL1        0.0758
     21 N          -1.2139    2.9836   25.8467 N.ar    1  UNL1       -0.3267
     22 C          -2.6184    3.4329   25.5717 C.ar    1  UNL1        0.0793
     23 C          -3.7725    3.7330   26.4816 C.ar    1  UNL1        0.1160
     24 N          -5.0862    4.1727   25.9066 N.ar    1  UNL1       -0.2408
     25 C          -5.2459    4.3123   24.4217 C.ar    1  UNL1        0.0990
     26 C          -4.0918    4.0123   23.5118 C.ar    1  UNL1        0.0222
     27 C          -2.7781    3.5726   24.0868 C.ar    1  UNL1        0.0203
     28 C          -0.6218    2.7188   27.1992 C.3     1  UNL1        0.0857
     29 C          -0.6701    1.3373   27.7817 C.3     1  UNL1        0.0250
     30 C          -0.0780    1.0725   29.1342 C.3     1  UNL1        0.0288
     31 C           0.5624    2.1891   29.9042 C.3     1  UNL1        0.0885
     32 C           1.2716    2.9134   31.0100 C.3     1  UNL1        0.0293
     33 O           0.7604    1.0592   30.8707 O.3     1  UNL1       -0.3867
     34 C           0.6107    3.5706   29.3218 C.3     1  UNL1        0.0288
     35 C           0.0185    3.8354   27.9693 C.3     1  UNL1        0.0250
     36 H           0.3854    0.2458   30.4984 H       1  UNL1        0.2102
@<TRIPOS>BOND
     1     8     7    1
     2     8     9    1
     3     9    10    1
     4    10    11   am
     5    11    12    2
     6    11    13   am
     7    13     1    1
     8     1     2   ar
     9     2     3   ar
    10     3    19    1
    11    19    20   ar
    12    20    21   ar
    13    28    21    1
    14    28    29    1
    15    29    30    1
    16    30    31    1
    17    31    32    1
    18    31    33    1
    19    31    34    1
    20    34    35    1
    21    21    22   ar
    22    22    23   ar
    23    23    24   ar
    24    24    25   ar
    25    25    26   ar
    26    26    27   ar
    27     3     4   ar
    28     4     5   ar
    29     5     6   ar
    30    10    14    1
    31    14    15    1
    32    15    16    1
    33    15    17    1
    34    17     8    1
    35     6     1   ar
    36    27    19   ar
    37    35    28    1
    38    27    22   ar
    39    13    18    1
    40    33    36    1
@<TRIPOS>MOLECULE
*****
 36 40 0 0 0
SMALL
GASTEIGER

@<TRIPOS>ATOM
      1 C           1.6499    1.5183   19.3225 C.ar    1  UNL1        0.1353
      2 C           0.3597    1.8638   20.0051 C.ar    1  UNL1        0.0346
      3 C          -0.2543    3.2181   19.8074 C.ar    1  UNL1        0.0058
      4 C           0.4220    4.2268   18.9271 C.ar    1  UNL1        0.0208
      5 C           1.7122    3.8814   18.2445 C.ar    1  UNL1        0.1003
      6 N           2.3262    2.5271   18.4422 N.ar    1  UNL1       -0.2290
      7 C           5.5832   -3.5244   23.7777 C.3     1  UNL1        0.0339
      8 C           4.8859   -3.1977   22.4904 C.3     1  UNL1        0.1351
      9 C           4.2721   -1.8435   22.2927 C.3     1  UNL1        0.1244
     10 N           3.5749   -1.5169   21.0054 N.am    1  UNL1       -0.2590
     11 C           2.9610   -0.1625   20.8076 C.2     1  UNL1        0.3089
     12 O           3.0443    0.8651   21.8971 O.2     1  UNL1       -0.2522
     13 N           2.2637    0.1641   19.5202 N.am    1  UNL1       -0.2535
     14 C           3.4915   -2.5445   19.9159 C.3     1  UNL1        0.1244
     15 C           4.1054   -3.8987   20.1136 C.3     1  UNL1        0.1351
     16 C           4.0220   -4.9264   19.0241 C.3     1  UNL1        0.0339
     17 O           4.8026   -4.2254   21.4009 O.3     1  UNL1       -0.3552
     18 H           2.2090   -0.5104   18.8051 H       1  UNL1        0.1578
     19 C          -1.5445    3.5636   20.4901 C.ar    1  UNL1        0.0188
     20 C          -1.7383    3.7527   21.9654 C.ar    1  UNL1        0.0758
     21 N          -3.1810    4.0866   22.2043 N.ar    1  UNL1       -0.3267
     22 C          -3.8789    4.1038   20.8766 C.ar    1  UNL1        0.0793
     23 C          -5.3046    4.3721   20.4956 C.ar    1  UNL1        0.1160
     24 N          -5.7189    4.3172   19.0550 N.ar    1  UNL1       -0.2408
     25 C          -4.7074    3.9940   17.9955 C.ar    1  UNL1        0.0990
     26 C          -3.2817    3.7257   18.3766 C.ar    1  UNL1        0.0222
     27 C          -2.8674    3.7806   19.8172 C.ar    1  UNL1        0.0203
     28 C          -3.8147    4.3559   23.5370 C.3     1  UNL1        0.0857
     29 C          -3.4287    3.5338   24.7309 C.3     1  UNL1        0.0250
     30 C          -4.0624    3.8031   26.0635 C.3     1  UNL1        0.0288
     31 C          -5.0821    4.8945   26.2023 C.3     1  UNL1        0.0885
     32 C          -6.0891    5.8109   26.8317 C.3     1  UNL1        0.0293
     33 O          -5.0458    4.3907   27.6147 O.3     1  UNL1       -0.3867
     34 C          -5.4680    5.7165   25.0085 C.3     1  UNL1        0.0288
     35 C          -4.8343    5.4472   23.6758 C.3     1  UNL1        0.0250
     36 H          -4.4107    3.6606   27.6814 H       1  UNL1        0.2102
@<TRIPOS>BOND
     1     8     7    1
     2     8     9    1
     3     9    10    1
     4    10    11   am
     5    11    12    2
     6    11    13   am
     7    13     1    1
     8     1     2   ar
     9     2     3   ar
    10     3    19    1
    11    19    20   ar
    12    20    21   ar
    13    28    21    1
    14    28    29    1
    15    29    30    1
    16    30    31    1
    17    31    32    1
    18    31    33    1
    19    31    34    1
    20    34    35    1
    21    21    22   ar
    22    22    23   ar
    23    23    24   ar
    24    24    25   ar
    25    25    26   ar
    26    26    27   ar
    27     3     4   ar
    28     4     5   ar
    29     5     6   ar
    30    10    14    1
    31    14    15    1
    32    15    16    1
    33    15    17    1
    34    17     8    1
    35     6     1   ar
    36    27    19   ar
    37    35    28    1
    38    27    22   ar
    39    13    18    1
    40    33    36    1
@<TRIPOS>MOLECULE
*****
 36 40 0 0 0
SMALL
GASTEIGER

@<TRIPOS>ATOM
      1 C           6.2420    0.6753   34.1955 C.ar    1  UNL1        0.1353
      2 C           5.9502   -0.0926   32.9404 C.ar    1  UNL1        0.0346
      3 C           7.0472   -0.8498   32.2523 C.ar    1  UNL1        0.0058
      4 C           8.4357   -0.8391   32.8193 C.ar    1  UNL1        0.0208
      5 C           8.7275   -0.0712   34.0744 C.ar    1  UNL1        0.1003
      6 N           7.6306    0.6860   34.7625 N.ar    1  UNL1       -0.2290
      7 C           0.9575    1.2075   39.8999 C.3     1  UNL1        0.0339
      8 C           1.6220    1.7872   38.6865 C.3     1  UNL1        0.1351
      9 C           2.7190    1.0301   37.9985 C.3     1  UNL1        0.1244
     10 N           3.3835    1.6098   36.7851 N.am    1  UNL1       -0.2590
     11 C           4.4805    0.8527   36.0970 C.2     1  UNL1        0.3089
     12 O           4.9130   -0.4841   36.6223 O.2     1  UNL1       -0.2522
     13 N           5.1450    1.4324   34.8836 N.am    1  UNL1       -0.2535
     14 C           2.9511    2.9466   36.2598 C.3     1  UNL1        0.1244
     15 C           1.8541    3.7038   36.9478 C.3     1  UNL1        0.1351
     16 C           1.4217    5.0405   36.4225 C.3     1  UNL1        0.0339
     17 O           1.1896    3.1240   38.1612 O.3     1  UNL1       -0.3552
     18 H           4.8612    2.3098   34.5388 H       1  UNL1        0.1578
     19 C           6.7554   -1.6177   30.9972 C.ar    1  UNL1        0.0188
     20 C           6.2688   -1.0382   29.7021 C.ar    1  UNL1        0.0758
     21 N           6.1117   -2.1623   28.7214 N.ar    1  UNL1       -0.3267
     22 C           6.5011   -3.4365   29.4104 C.ar    1  UNL1        0.0793
     23 C           6.5449   -4.8597   28.9388 C.ar    1  UNL1        0.1160
     24 N           6.9866   -5.9464   29.8737 N.ar    1  UNL1       -0.2408
     25 C           7.3844   -5.6098   31.2803 C.ar    1  UNL1        0.0990
     26 C           7.3406   -4.1865   31.7519 C.ar    1  UNL1        0.0222
     27 C           6.8990   -3.0999   30.8170 C.ar    1  UNL1        0.0203
     28 C           5.6467   -2.0347   27.3010 C.3     1  UNL1        0.0857
     29 C           6.4982   -2.5594   26.1830 C.3     1  UNL1        0.0250
     30 C           6.0332   -2.4317   24.7626 C.3     1  UNL1        0.0288
     31 C           4.7168   -1.7794   24.4602 C.3     1  UNL1        0.0885
     32 C           3.5560   -1.2448   23.6747 C.3     1  UNL1        0.0293
     33 O           5.1651   -2.1184   23.0694 O.3     1  UNL1       -0.3867
     34 C           3.8653   -1.2547   25.5781 C.3     1  UNL1        0.0288
     35 C           4.3303   -1.3824   26.9985 C.3     1  UNL1        0.0250
     36 H           6.0286   -2.5589   23.1064 H       1  UNL1        0.2102
@<TRIPOS>BOND
     1     8     7    1
     2     8     9    1
     3     9    10    1
     4    10    11   am
     5    11    12    2
     6    11    13   am
     7    13     1    1
     8     1     2   ar
     9     2     3   ar
    10     3    19    1
    11    19    20   ar
    12    20    21   ar
    13    28    21    1
    14    28    29    1
    15    29    30    1
    16    30    31    1
    17    31    32    1
    18    31    33    1
    19    31    34    1
    20    34    35    1
    21    21    22   ar
    22    22    23   ar
    23    23    24   ar
    24    24    25   ar
    25    25    26   ar
    26    26    27   ar
    27     3     4   ar
    28     4     5   ar
    29     5     6   ar
    30    10    14    1
    31    14    15    1
    32    15    16    1
    33    15    17    1
    34    17     8    1
    35     6     1   ar
    36    27    19   ar
    37    35    28    1
    38    27    22   ar
    39    13    18    1
    40    33    36    1
@<TRIPOS>MOLECULE
*****
 36 40 0 0 0
SMALL
GASTEIGER

@<TRIPOS>ATOM
      1 C           2.0772    1.5729   18.9221 C.ar    1  UNL1        0.1353
      2 C           0.6501    1.9238   19.2227 C.ar    1  UNL1        0.0346
      3 C           0.1442    3.3088   18.9471 C.ar    1  UNL1        0.0058
      4 C           1.0654    4.3429   18.3710 C.ar    1  UNL1        0.0208
      5 C           2.4925    3.9920   18.0704 C.ar    1  UNL1        0.1003
      6 N           2.9984    2.6070   18.3460 N.ar    1  UNL1       -0.2290
      7 C           5.5204   -3.5283   23.7044 C.3     1  UNL1        0.0339
      8 C           4.8785   -3.2129   22.3859 C.3     1  UNL1        0.1351
      9 C           4.3727   -1.8279   22.1103 C.3     1  UNL1        0.1244
     10 N           3.7307   -1.5125   20.7918 N.am    1  UNL1       -0.2590
     11 C           3.2249   -0.1275   20.5162 C.2     1  UNL1        0.3089
     12 O           3.3611    0.9421   21.5590 O.2     1  UNL1       -0.2522
     13 N           2.5829    0.1880   19.1977 N.am    1  UNL1       -0.2535
     14 C           3.5946   -2.5821   19.7490 C.3     1  UNL1        0.1244
     15 C           4.1004   -3.9670   20.0246 C.3     1  UNL1        0.1351
     16 C           3.9642   -5.0366   18.9818 C.3     1  UNL1        0.0339
     17 O           4.7423   -4.2825   21.3431 O.3     1  UNL1       -0.3552
     18 H           2.4936   -0.5140   18.5132 H       1  UNL1        0.1578
     19 C          -1.2829    3.6597   19.2477 C.ar    1  UNL1        0.0188
     20 C          -1.9042    3.7338   20.6109 C.ar    1  UNL1        0.0758
     21 N          -3.3445    4.1180   20.4435 N.ar    1  UNL1       -0.3267
     22 C          -3.6133    4.2812   18.9769 C.ar    1  UNL1        0.0793
     23 C          -4.8536    4.6512   18.2189 C.ar    1  UNL1        0.1160
     24 N          -4.8198    4.7379   16.7218 N.ar    1  UNL1       -0.2408
     25 C          -3.5456    4.4547   15.9827 C.ar    1  UNL1        0.0990
     26 C          -2.3053    4.0847   16.7407 C.ar    1  UNL1        0.0222
     27 C          -2.3391    3.9980   18.2378 C.ar    1  UNL1        0.0203
     28 C          -4.3411    4.3059   21.5488 C.3     1  UNL1        0.0857
     29 C          -5.7286    3.7530   21.4096 C.3     1  UNL1        0.0250
     30 C          -6.7252    3.9409   22.5148 C.3     1  UNL1        0.0288
     31 C          -6.3343    4.6816   23.7592 C.3     1  UNL1        0.0885
     32 C          -6.4379    5.3056   25.1193 C.3     1  UNL1        0.0293
     33 O          -7.7578    4.3455   24.0924 O.3     1  UNL1       -0.3867
     34 C          -4.9469    5.2344   23.8984 C.3     1  UNL1        0.0288
     35 C          -3.9503    5.0465   22.7931 C.3     1  UNL1        0.0250
     36 H          -8.1535    3.8506   23.3580 H       1  UNL1        0.2102
@<TRIPOS>BOND
     1     8     7    1
     2     8     9    1
     3     9    10    1
     4    10    11   am
     5    11    12    2
     6    11    13   am
     7    13     1    1
     8     1     2   ar
     9     2     3   ar
    10     3    19    1
    11    19    20   ar
    12    20    21   ar
    13    28    21    1
    14    28    29    1
    15    29    30    1
    16    30    31    1
    17    31    32    1
    18    31    33    1
    19    31    34    1
    20    34    35    1
    21    21    22   ar
    22    22    23   ar
    23    23    24   ar
    24    24    25   ar
    25    25    26   ar
    26    26    27   ar
    27     3     4   ar
    28     4     5   ar
    29     5     6   ar
    30    10    14    1
    31    14    15    1
    32    15    16    1
    33    15    17    1
    34    17     8    1
    35     6     1   ar
    36    27    19   ar
    37    35    28    1
    38    27    22   ar
    39    13    18    1
    40    33    36    1
@<TRIPOS>MOLECULE
*****
 36 40 0 0 0
SMALL
GASTEIGER

@<TRIPOS>ATOM
      1 C           0.9677    1.1604   20.9004 C.ar    1  UNL1        0.1353
      2 C           0.5402    1.3704   22.3228 C.ar    1  UNL1        0.0346
      3 C          -0.2560    2.5861   22.6950 C.ar    1  UNL1        0.0058
      4 C          -0.6247    3.5915   21.6447 C.ar    1  UNL1        0.0208
      5 C          -0.1972    3.3814   20.2223 C.ar    1  UNL1        0.1003
      6 N           0.5990    2.1659   19.8502 N.ar    1  UNL1       -0.2290
      7 C           7.6931   -2.0765   18.6554 C.3     1  UNL1        0.0339
      8 C           6.2475   -2.2131   19.0317 C.3     1  UNL1        0.1351
      9 C           5.4513   -0.9976   19.4037 C.3     1  UNL1        0.1244
     10 N           4.0057   -1.1342   19.7800 N.am    1  UNL1       -0.2590
     11 C           3.2094    0.0814   20.1521 C.2     1  UNL1        0.3089
     12 O           3.8588    1.4336   20.1479 O.2     1  UNL1       -0.2522
     13 N           1.7638   -0.0552   20.5284 N.am    1  UNL1       -0.2535
     14 C           3.3564   -2.4863   19.7842 C.3     1  UNL1        0.1244
     15 C           4.1525   -3.7019   19.4122 C.3     1  UNL1        0.1351
     16 C           3.5031   -5.0540   19.4164 C.3     1  UNL1        0.0339
     17 O           5.5981   -3.5653   19.0359 O.3     1  UNL1       -0.3552
     18 H           1.3376   -0.9426   20.5311 H       1  UNL1        0.1578
     19 C          -0.6835    2.7961   24.1174 C.ar    1  UNL1        0.0188
     20 C           0.1660    2.5792   25.3345 C.ar    1  UNL1        0.0758
     21 N          -0.6610    2.9090   26.5416 N.ar    1  UNL1       -0.3267
     22 C          -2.0216    3.3298   26.0706 C.ar    1  UNL1        0.0793
     23 C          -3.2496    3.7674   26.8124 C.ar    1  UNL1        0.1160
     24 N          -4.4915    4.1353   26.0560 N.ar    1  UNL1       -0.2408
     25 C          -4.5054    4.0655   24.5577 C.ar    1  UNL1        0.0990
     26 C          -3.2773    3.6279   23.8158 C.ar    1  UNL1        0.0222
     27 C          -2.0354    3.2600   24.5723 C.ar    1  UNL1        0.0203
     28 C          -0.2072    2.8317   27.9692 C.3     1  UNL1        0.0857
     29 C          -0.2989    1.5340   28.7161 C.3     1  UNL1        0.0250
     30 C           0.1549    1.4566   30.1438 C.3     1  UNL1        0.0288
     31 C           0.7005    2.6768   30.8245 C.3     1  UNL1        0.0885
     32 C           1.2847    3.5520   31.8936 C.3     1  UNL1        0.0293
     33 O           0.8116    1.6831   31.9426 O.3     1  UNL1       -0.3867
     34 C           0.7922    3.9744   30.0776 C.3     1  UNL1        0.0288
     35 C           0.3384    4.0518   28.6500 C.3     1  UNL1        0.0250
     36 H           0.4859    0.8204   31.6420 H       1  UNL1        0.2102
@<TRIPOS>BOND
     1     8     7    1
     2     8     9    1
     3     9    10    1
     4    10    11   am
     5    11    12    2
     6    11    13   am
     7    13     1    1
     8     1     2   ar
     9     2     3   ar
    10     3    19    1
    11    19    20   ar
    12    20    21   ar
    13    28    21    1
    14    28    29    1
    15    29    30    1
    16    30    31    1
    17    31    32    1
    18    31    33    1
    19    31    34    1
    20    34    35    1
    21    21    22   ar
    22    22    23   ar
    23    23    24   ar
    24    24    25   ar
    25    25    26   ar
    26    26    27   ar
    27     3     4   ar
    28     4     5   ar
    29     5     6   ar
    30    10    14    1
    31    14    15    1
    32    15    16    1
    33    15    17    1
    34    17     8    1
    35     6     1   ar
    36    27    19   ar
    37    35    28    1
    38    27    22   ar
    39    13    18    1
    40    33    36    1
@<TRIPOS>MOLECULE
*****
 36 40 0 0 0
SMALL
GASTEIGER

@<TRIPOS>ATOM
      1 C           7.0471   -1.0605   25.2114 C.ar    1  UNL1        0.1353
      2 C           6.6908   -1.5219   26.5935 C.ar    1  UNL1        0.0346
      3 C           7.6814   -1.3784   27.7108 C.ar    1  UNL1        0.0058
      4 C           9.0281   -0.7735   27.4459 C.ar    1  UNL1        0.0208
      5 C           9.3844   -0.3121   26.0638 C.ar    1  UNL1        0.1003
      6 N           8.3939   -0.4556   24.9466 N.ar    1  UNL1       -0.2290
      7 C           4.5213   -4.8267   18.8723 C.3     1  UNL1        0.0339
      8 C           4.3726   -3.7149   19.8681 C.3     1  UNL1        0.1351
      9 C           5.3632   -3.5713   20.9853 C.3     1  UNL1        0.1244
     10 N           5.2145   -2.4595   21.9811 N.am    1  UNL1       -0.2590
     11 C           6.2051   -2.3159   23.0984 C.2     1  UNL1        0.3089
     12 O           7.3444   -3.2841   23.2198 O.2     1  UNL1       -0.2522
     13 N           6.0565   -1.2041   24.0943 N.am    1  UNL1       -0.2535
     14 C           4.0753   -1.4913   21.8598 C.3     1  UNL1        0.1244
     15 C           3.0847   -1.6348   20.7426 C.3     1  UNL1        0.1351
     16 C           1.9455   -0.6666   20.6213 C.3     1  UNL1        0.0339
     17 O           3.2334   -2.7467   19.7468 O.3     1  UNL1       -0.3552
     18 H           5.3088   -0.5686   24.0147 H       1  UNL1        0.1578
     19 C           7.3251   -1.8398   29.0929 C.ar    1  UNL1        0.0188
     20 C           6.9983   -0.9566   30.2604 C.ar    1  UNL1        0.0758
     21 N           6.7043   -1.8364   31.4392 N.ar    1  UNL1       -0.3267
     22 C           6.8494   -3.2633   31.0002 C.ar    1  UNL1        0.0793
     23 C           6.6816   -4.5610   31.7335 C.ar    1  UNL1        0.1160
     24 N           6.8976   -5.8608   31.0168 N.ar    1  UNL1       -0.2408
     25 C           7.2813   -5.8630   29.5667 C.ar    1  UNL1        0.0990
     26 C           7.4490   -4.5653   28.8333 C.ar    1  UNL1        0.0222
     27 C           7.2330   -3.2655   29.5501 C.ar    1  UNL1        0.0203
     28 C           6.3308   -1.3709   32.8154 C.3     1  UNL1        0.0857
     29 C           4.9472   -1.6165   33.3404 C.3     1  UNL1        0.0250
     30 C           4.5737   -1.1511   34.7166 C.3     1  UNL1        0.0288
     31 C           5.5837   -0.4401   35.5678 C.3     1  UNL1        0.0885
     32 C           6.1858    0.2714   36.7431 C.3     1  UNL1        0.0293
     33 O           4.4093   -0.4386   36.5010 O.3     1  UNL1       -0.3867
     34 C           6.9672   -0.1946   35.0427 C.3     1  UNL1        0.0288
     35 C           7.3407   -0.6600   33.6665 C.3     1  UNL1        0.0250
     36 H           3.6572   -0.8785   36.0749 H       1  UNL1        0.2102
@<TRIPOS>BOND
     1     8     7    1
     2     8     9    1
     3     9    10    1
     4    10    11   am
     5    11    12    2
     6    11    13   am
     7    13     1    1
     8     1     2   ar
     9     2     3   ar
    10     3    19    1
    11    19    20   ar
    12    20    21   ar
    13    28    21    1
    14    28    29    1
    15    29    30    1
    16    30    31    1
    17    31    32    1
    18    31    33    1
    19    31    34    1
    20    34    35    1
    21    21    22   ar
    22    22    23   ar
    23    23    24   ar
    24    24    25   ar
    25    25    26   ar
    26    26    27   ar
    27     3     4   ar
    28     4     5   ar
    29     5     6   ar
    30    10    14    1
    31    14    15    1
    32    15    16    1
    33    15    17    1
    34    17     8    1
    35     6     1   ar
    36    27    19   ar
    37    35    28    1
    38    27    22   ar
    39    13    18    1
    40    33    36    1
@<TRIPOS>MOLECULE
*****
 36 40 0 0 0
SMALL
GASTEIGER

@<TRIPOS>ATOM
      1 C           0.7025    1.8362   27.7992 C.ar    1  UNL1        0.1353
      2 C           1.4922    1.4383   26.5875 C.ar    1  UNL1        0.0346
      3 C           0.8967    1.5948   25.2196 C.ar    1  UNL1        0.0058
      4 C          -0.4882    2.1491   25.0635 C.ar    1  UNL1        0.0208
      5 C          -1.2779    2.5469   26.2752 C.ar    1  UNL1        0.1003
      6 N          -0.6825    2.3905   27.6430 N.ar    1  UNL1       -0.2290
      7 C           4.6109   -2.4440   33.0101 C.3     1  UNL1        0.0339
      8 C           3.9036   -1.1738   32.6409 C.3     1  UNL1        0.1351
      9 C           3.3081   -1.0173   31.2731 C.3     1  UNL1        0.1244
     10 N           2.6008    0.2529   30.9040 N.am    1  UNL1       -0.2590
     11 C           2.0053    0.4095   29.5361 C.2     1  UNL1        0.3089
     12 O           2.1171   -0.7042   28.5375 O.2     1  UNL1       -0.2522
     13 N           1.2979    1.6797   29.1670 N.am    1  UNL1       -0.2535
     14 C           2.4889    1.3665   31.9026 C.3     1  UNL1        0.1244
     15 C           3.0844    1.2100   33.2704 C.3     1  UNL1        0.1351
     16 C           2.9725    2.3237   34.2691 C.3     1  UNL1        0.0339
     17 O           3.7917   -0.0602   33.6396 O.3     1  UNL1       -0.3552
     18 H           1.2245    2.4106   29.8224 H       1  UNL1        0.1578
     19 C           1.6864    1.1970   24.0079 C.ar    1  UNL1        0.0188
     20 C           2.0621   -0.2027   23.6208 C.ar    1  UNL1        0.0758
     21 N           2.8469   -0.1357   22.3443 N.ar    1  UNL1       -0.3267
     22 C           2.9562    1.3053   21.9424 C.ar    1  UNL1        0.0793
     23 C           3.6162    1.9739   20.7730 C.ar    1  UNL1        0.1160
     24 N           3.5589    3.4661   20.6318 N.ar    1  UNL1       -0.2408
     25 C           2.8416    4.2897   21.6600 C.ar    1  UNL1        0.0990
     26 C           2.1817    3.6212   22.8294 C.ar    1  UNL1        0.0222
     27 C           2.2390    2.1290   22.9706 C.ar    1  UNL1        0.0203
     28 C           3.4215   -1.3045   21.6002 C.3     1  UNL1        0.0857
     29 C           4.4548   -2.1745   22.2528 C.3     1  UNL1        0.0250
     30 C           5.0294   -3.3433   21.5087 C.3     1  UNL1        0.0288
     31 C           4.5709   -3.6422   20.1121 C.3     1  UNL1        0.0885
     32 C           4.4575   -4.3257   18.7817 C.3     1  UNL1        0.0293
     33 O           5.5647   -4.7496   20.3026 O.3     1  UNL1       -0.3867
     34 C           3.5377   -2.7723   19.4596 C.3     1  UNL1        0.0288
     35 C           2.9631   -1.6035   20.2037 C.3     1  UNL1        0.0250
     36 H           5.9559   -4.6842   21.1878 H       1  UNL1        0.2102
@<TRIPOS>BOND
     1     8     7    1
     2     8     9    1
     3     9    10    1
     4    10    11   am
     5    11    12    2
     6    11    13   am
     7    13     1    1
     8     1     2   ar
     9     2     3   ar
    10     3    19    1
    11    19    20   ar
    12    20    21   ar
    13    28    21    1
    14    28    29    1
    15    29    30    1
    16    30    31    1
    17    31    32    1
    18    31    33    1
    19    31    34    1
    20    34    35    1
    21    21    22   ar
    22    22    23   ar
    23    23    24   ar
    24    24    25   ar
    25    25    26   ar
    26    26    27   ar
    27     3     4   ar
    28     4     5   ar
    29     5     6   ar
    30    10    14    1
    31    14    15    1
    32    15    16    1
    33    15    17    1
    34    17     8    1
    35     6     1   ar
    36    27    19   ar
    37    35    28    1
    38    27    22   ar
    39    13    18    1
    40    33    36    1
@<TRIPOS>MOLECULE
*****
 36 40 0 0 0
SMALL
GASTEIGER

@<TRIPOS>ATOM
      1 C           2.8313    2.0502   20.3950 C.ar    1  UNL1        0.1353
      2 C           1.3527    2.2871   20.3072 C.ar    1  UNL1        0.0346
      3 C           0.8320    3.6287   19.8839 C.ar    1  UNL1        0.0058
      4 C           1.7898    4.7332   19.5485 C.ar    1  UNL1        0.0208
      5 C           3.2684    4.4962   19.6363 C.ar    1  UNL1        0.1003
      6 N           3.7891    3.1547   20.0595 N.ar    1  UNL1       -0.2290
      7 C           4.5354   -5.3667   18.7114 C.3     1  UNL1        0.0339
      8 C           4.4880   -4.2360   19.6959 C.3     1  UNL1        0.1351
      9 C           3.9674   -2.8945   19.2726 C.3     1  UNL1        0.1244
     10 N           3.9200   -1.7637   20.2571 N.am    1  UNL1       -0.2590
     11 C           3.3993   -0.4221   19.8338 C.2     1  UNL1        0.3089
     12 O           2.9261   -0.2113   18.4262 O.2     1  UNL1       -0.2522
     13 N           3.3519    0.7086   20.8183 N.am    1  UNL1       -0.2535
     14 C           4.3932   -1.9746   21.6647 C.3     1  UNL1        0.1244
     15 C           4.9139   -3.3161   22.0880 C.3     1  UNL1        0.1351
     16 C           5.3871   -3.5269   23.4957 C.3     1  UNL1        0.0339
     17 O           4.9613   -4.4468   21.1036 O.3     1  UNL1       -0.3552
     18 H           3.6625    0.5703   21.7422 H       1  UNL1        0.1578
     19 C          -0.6466    3.8657   19.7961 C.ar    1  UNL1        0.0188
     20 C          -1.5856    4.0177   20.9560 C.ar    1  UNL1        0.0758
     21 N          -2.9650    4.2382   20.4097 N.ar    1  UNL1       -0.3267
     22 C          -2.8786    4.2225   18.9122 C.ar    1  UNL1        0.0793
     23 C          -3.9196    4.3880   17.8450 C.ar    1  UNL1        0.1160
     24 N          -3.5276    4.3233   16.3986 N.ar    1  UNL1       -0.2408
     25 C          -2.0947    4.0931   16.0194 C.ar    1  UNL1        0.0990
     26 C          -1.0538    3.9275   17.0866 C.ar    1  UNL1        0.0222
     27 C          -1.4457    3.9922   18.5330 C.ar    1  UNL1        0.0203
     28 C          -4.2120    4.4392   21.2188 C.3     1  UNL1        0.0857
     29 C          -4.7065    3.3457   22.1188 C.3     1  UNL1        0.0250
     30 C          -5.9535    3.5467   22.9279 C.3     1  UNL1        0.0288
     31 C          -6.7060    4.8410   22.8370 C.3     1  UNL1        0.0885
     32 C          -7.7571    5.8811   23.0891 C.3     1  UNL1        0.0293
     33 O          -7.5655    4.1088   23.8246 O.3     1  UNL1       -0.3867
     34 C          -6.2116    5.9344   21.9370 C.3     1  UNL1        0.0288
     35 C          -4.9646    5.7335   21.1279 C.3     1  UNL1        0.0250
     36 H          -7.1925    3.2284   23.9875 H       1  UNL1        0.2102
@<TRIPOS>BOND
     1     8     7    1
     2     8     9    1
     3     9    10    1
     4    10    11   am
     5    11    12    2
     6    11    13   am
     7    13     1    1
     8     1     2   ar
     9     2     3   ar
    10     3    19    1
    11    19    20   ar
    12    20    21   ar
    13    28    21    1
    14    28    29    1
    15    29    30    1
    16    30    31    1
    17    31    32    1
    18    31    33    1
    19    31    34    1
    20    34    35    1
    21    21    22   ar
    22    22    23   ar
    23    23    24   ar
    24    24    25   ar
    25    25    26   ar
    26    26    27   ar
    27     3     4   ar
    28     4     5   ar
    29     5     6   ar
    30    10    14    1
    31    14    15    1
    32    15    16    1
    33    15    17    1
    34    17     8    1
    35     6     1   ar
    36    27    19   ar
    37    35    28    1
    38    27    22   ar
    39    13    18    1
    40    33    36    1
