@<TRIPOS>MOLECULE
*****
 18 20 0 0 0
SMALL
GASTEIGER

@<TRIPOS>ATOM
      1 C          -8.0182  -19.0583   22.2782 C.ar    1  UNL1       -0.0208
      2 C          -8.6860  -20.1190   23.1023 C.ar    1  UNL1       -0.0042
      3 C         -10.1050  -19.9363   23.5526 C.ar    1  UNL1       -0.0003
      4 C         -10.8564  -18.6930   23.1788 C.ar    1  UNL1       -0.0000
      5 C         -12.2755  -18.5104   23.6291 C.ar    1  UNL1       -0.0000
      6 C         -13.0268  -17.2672   23.2553 C.ar    1  UNL1       -0.0000
      7 C         -12.3591  -16.2065   22.4312 C.ar    1  UNL1       -0.0000
      8 C         -10.9400  -16.3892   21.9809 C.ar    1  UNL1       -0.0000
      9 C         -10.1887  -17.6324   22.3547 C.ar    1  UNL1       -0.0003
     10 C          -8.7695  -17.8151   21.9044 C.ar    1  UNL1       -0.0042
     11 C          -3.7047  -20.2034   20.3938 C.2     1  UNL1       -0.0136
     12 C          -5.0816  -20.7617   20.1876 C.2     1  UNL1       -0.0289
     13 C          -6.3697  -20.3334   20.8258 C.3     1  UNL1        0.0315
     14 C          -6.5991  -19.2410   21.8278 C.3     1  UNL1        0.0424
     15 C          -5.5970  -18.3071   22.4391 C.3     1  UNL1        0.0735
     16 N          -4.1181  -18.2349   22.1993 N.3     1  UNL1       -0.2935
     17 C          -3.2759  -19.0789   21.2890 C.3     1  UNL1        0.0950
     18 H          -3.7031  -18.3622   23.1224 H       1  UNL1        0.1236
@<TRIPOS>BOND
     1    11    12    2
     2    12    13    1
     3    13    14    1
     4    14     1    1
     5     1     2   ar
     6     2     3   ar
     7     3     4   ar
     8     4     5   ar
     9     5     6   ar
    10     6     7   ar
    11     7     8   ar
    12     8     9   ar
    13     9    10   ar
    14    14    15    1
    15    15    16    1
    16    16    17    1
    17    17    11    1
    18    10     1   ar
    19     9     4   ar
    20    16    18    1
@<TRIPOS>MOLECULE
*****
 18 20 0 0 0
SMALL
GASTEIGER

@<TRIPOS>ATOM
      1 C          -7.4696  -18.9950   21.1148 C.ar    1  UNL1       -0.0208
      2 C          -8.1870  -19.4888   19.8935 C.ar    1  UNL1       -0.0042
      3 C          -9.6704  -19.3046   19.7693 C.ar    1  UNL1       -0.0003
      4 C         -10.4365  -18.6266   20.8664 C.ar    1  UNL1       -0.0000
      5 C         -11.9199  -18.4424   20.7421 C.ar    1  UNL1       -0.0000
      6 C         -12.6859  -17.7644   21.8391 C.ar    1  UNL1       -0.0000
      7 C         -11.9685  -17.2706   23.0604 C.ar    1  UNL1       -0.0000
      8 C         -10.4851  -17.4548   23.1847 C.ar    1  UNL1       -0.0000
      9 C          -9.7191  -18.1328   22.0876 C.ar    1  UNL1       -0.0003
     10 C          -8.2356  -18.3170   22.2119 C.ar    1  UNL1       -0.0042
     11 C          -2.7358  -19.9991   20.8874 C.2     1  UNL1       -0.0136
     12 C          -3.8949  -20.3743   20.0124 C.2     1  UNL1       -0.0289
     13 C          -5.3415  -20.0094   20.1689 C.3     1  UNL1        0.0315
     14 C          -5.9861  -19.1792   21.2390 C.3     1  UNL1        0.0424
     15 C          -5.3434  -18.5089   22.4170 C.3     1  UNL1        0.0735
     16 N          -3.8974  -18.5031   22.8158 N.3     1  UNL1       -0.2935
     17 C          -2.7369  -19.1664   22.1350 C.3     1  UNL1        0.0950
     18 H          -3.8916  -18.8855   23.7614 H       1  UNL1        0.1236
@<TRIPOS>BOND
     1    11    12    2
     2    12    13    1
     3    13    14    1
     4    14     1    1
     5     1     2   ar
     6     2     3   ar
     7     3     4   ar
     8     4     5   ar
     9     5     6   ar
    10     6     7   ar
    11     7     8   ar
    12     8     9   ar
    13     9    10   ar
    14    14    15    1
    15    15    16    1
    16    16    17    1
    17    17    11    1
    18    10     1   ar
    19     9     4   ar
    20    16    18    1
@<TRIPOS>MOLECULE
*****
 18 20 0 0 0
SMALL
GASTEIGER

@<TRIPOS>ATOM
      1 C          -7.7403  -18.6830   21.6200 C.ar    1  UNL1       -0.0208
      2 C          -7.5798  -19.6577   20.4912 C.ar    1  UNL1       -0.0042
      3 C          -6.2137  -20.1466   20.1110 C.ar    1  UNL1       -0.0003
      4 C          -5.0080  -19.6608   20.8596 C.ar    1  UNL1       -0.0000
      5 C          -3.6418  -20.1498   20.4794 C.ar    1  UNL1       -0.0000
      6 C          -2.4362  -19.6640   21.2280 C.ar    1  UNL1       -0.0000
      7 C          -2.5967  -18.6893   22.3568 C.ar    1  UNL1       -0.0000
      8 C          -3.9628  -18.2004   22.7370 C.ar    1  UNL1       -0.0000
      9 C          -5.1685  -18.6861   21.9884 C.ar    1  UNL1       -0.0003
     10 C          -6.5347  -18.1972   22.3686 C.ar    1  UNL1       -0.0042
     11 C         -12.3244  -17.8311   22.9347 C.2     1  UNL1       -0.0136
     12 C         -11.5371  -19.0964   22.7642 C.2     1  UNL1       -0.0289
     13 C         -10.1049  -19.2580   22.3483 C.3     1  UNL1        0.0315
     14 C          -9.1065  -18.1941   22.0002 C.3     1  UNL1        0.0424
     15 C          -9.2936  -16.7059   21.9820 C.3     1  UNL1        0.0735
     16 N         -10.5252  -15.9140   22.3074 N.3     1  UNL1       -0.2935
     17 C         -11.8741  -16.4149   22.7314 C.3     1  UNL1        0.0950
     18 H         -10.7083  -15.3686   21.4651 H       1  UNL1        0.1236
@<TRIPOS>BOND
     1    11    12    2
     2    12    13    1
     3    13    14    1
     4    14     1    1
     5     1     2   ar
     6     2     3   ar
     7     3     4   ar
     8     4     5   ar
     9     5     6   ar
    10     6     7   ar
    11     7     8   ar
    12     8     9   ar
    13     9    10   ar
    14    14    15    1
    15    15    16    1
    16    16    17    1
    17    17    11    1
    18    10     1   ar
    19     9     4   ar
    20    16    18    1
@<TRIPOS>MOLECULE
*****
 18 20 0 0 0
SMALL
GASTEIGER

@<TRIPOS>ATOM
      1 C          -6.0422  -19.2943   21.1924 C.ar    1  UNL1       -0.0208
      2 C          -5.2509  -19.5685   22.4369 C.ar    1  UNL1       -0.0042
      3 C          -3.7620  -19.3863   22.4344 C.ar    1  UNL1       -0.0003
      4 C          -3.0644  -18.9298   21.1874 C.ar    1  UNL1       -0.0000
      5 C          -1.5755  -18.7475   21.1849 C.ar    1  UNL1       -0.0000
      6 C          -0.8780  -18.2910   19.9379 C.ar    1  UNL1       -0.0000
      7 C          -1.6692  -18.0168   18.6935 C.ar    1  UNL1       -0.0000
      8 C          -3.1581  -18.1991   18.6960 C.ar    1  UNL1       -0.0000
      9 C          -3.8557  -18.6555   19.9429 C.ar    1  UNL1       -0.0003
     10 C          -5.3446  -18.8378   19.9455 C.ar    1  UNL1       -0.0042
     11 C         -10.8009  -19.8194   20.4529 C.2     1  UNL1       -0.0136
     12 C          -9.6471  -19.6065   19.5183 C.2     1  UNL1       -0.0289
     13 C          -8.1918  -19.4539   19.8486 C.3     1  UNL1        0.0315
     14 C          -7.5311  -19.4766   21.1950 C.3     1  UNL1        0.0424
     15 C          -8.1623  -19.6574   22.5437 C.3     1  UNL1        0.0735
     16 N          -9.6101  -19.8603   22.8791 N.3     1  UNL1       -0.2935
     17 C         -10.7845  -19.9324   21.9485 C.3     1  UNL1        0.0950
     18 H          -9.8347  -19.0952   23.5151 H       1  UNL1        0.1236
@<TRIPOS>BOND
     1    11    12    2
     2    12    13    1
     3    13    14    1
     4    14     1    1
     5     1     2   ar
     6     2     3   ar
     7     3     4   ar
     8     4     5   ar
     9     5     6   ar
    10     6     7   ar
    11     7     8   ar
    12     8     9   ar
    13     9    10   ar
    14    14    15    1
    15    15    16    1
    16    16    17    1
    17    17    11    1
    18    10     1   ar
    19     9     4   ar
    20    16    18    1
@<TRIPOS>MOLECULE
*****
 18 20 0 0 0
SMALL
GASTEIGER

@<TRIPOS>ATOM
      1 C          -7.5040  -17.3778   22.9037 C.ar    1  UNL1       -0.0208
      2 C          -6.7222  -16.3523   23.6700 C.ar    1  UNL1       -0.0042
      3 C          -5.2246  -16.4262   23.7091 C.ar    1  UNL1       -0.0003
      4 C          -4.5086  -17.5256   22.9820 C.ar    1  UNL1       -0.0000
      5 C          -3.0110  -17.5994   23.0211 C.ar    1  UNL1       -0.0000
      6 C          -2.2951  -18.6988   22.2940 C.ar    1  UNL1       -0.0000
      7 C          -3.0768  -19.7243   21.5277 C.ar    1  UNL1       -0.0000
      8 C          -4.5744  -19.6505   21.4885 C.ar    1  UNL1       -0.0000
      9 C          -5.2903  -18.5511   22.2157 C.ar    1  UNL1       -0.0003
     10 C          -6.7881  -18.4772   22.1765 C.ar    1  UNL1       -0.0042
     11 C         -12.3239  -17.7426   23.2259 C.2     1  UNL1       -0.0136
     12 C         -11.2045  -18.5495   23.8141 C.2     1  UNL1       -0.0289
     13 C          -9.7259  -18.3543   23.6533 C.3     1  UNL1        0.0315
     14 C          -9.0017  -17.3039   22.8646 C.3     1  UNL1        0.0424
     15 C          -9.5770  -16.1894   22.0419 C.3     1  UNL1        0.0735
     16 N         -11.0187  -15.8499   21.8047 N.3     1  UNL1       -0.2935
     17 C         -12.2412  -16.5412   22.3317 C.3     1  UNL1        0.0950
     18 H         -11.1249  -15.8805   20.7907 H       1  UNL1        0.1236
@<TRIPOS>BOND
     1    11    12    2
     2    12    13    1
     3    13    14    1
     4    14     1    1
     5     1     2   ar
     6     2     3   ar
     7     3     4   ar
     8     4     5   ar
     9     5     6   ar
    10     6     7   ar
    11     7     8   ar
    12     8     9   ar
    13     9    10   ar
    14    14    15    1
    15    15    16    1
    16    16    17    1
    17    17    11    1
    18    10     1   ar
    19     9     4   ar
    20    16    18    1
@<TRIPOS>MOLECULE
*****
 18 20 0 0 0
SMALL
GASTEIGER

@<TRIPOS>ATOM
      1 C          -8.6497  -16.9463   23.3490 C.ar    1  UNL1       -0.0208
      2 C         -10.1203  -16.6869   23.2067 C.ar    1  UNL1       -0.0042
      3 C         -10.8846  -17.3045   22.0734 C.ar    1  UNL1       -0.0003
      4 C         -10.1784  -18.1815   21.0823 C.ar    1  UNL1       -0.0000
      5 C         -10.9427  -18.7990   19.9490 C.ar    1  UNL1       -0.0000
      6 C         -10.2364  -19.6760   18.9580 C.ar    1  UNL1       -0.0000
      7 C          -8.7659  -19.9354   19.1003 C.ar    1  UNL1       -0.0000
      8 C          -8.0016  -19.3179   20.2336 C.ar    1  UNL1       -0.0000
      9 C          -8.7078  -18.4409   21.2246 C.ar    1  UNL1       -0.0003
     10 C          -7.9435  -17.8233   22.3580 C.ar    1  UNL1       -0.0042
     11 C          -6.7705  -15.1455   27.4348 C.2     1  UNL1       -0.0136
     12 C          -8.0657  -15.8400   27.1346 C.2     1  UNL1       -0.0289
     13 C          -8.5620  -16.3666   25.8205 C.3     1  UNL1        0.0315
     14 C          -7.8854  -16.3287   24.4824 C.3     1  UNL1        0.0424
     15 C          -6.5457  -15.7550   24.1276 C.3     1  UNL1        0.0735
     16 N          -5.5515  -15.0774   25.0233 N.3     1  UNL1       -0.2935
     17 C          -5.6516  -14.8062   26.4953 C.3     1  UNL1        0.0950
     18 H          -5.4136  -14.1584   24.6029 H       1  UNL1        0.1236
@<TRIPOS>BOND
     1    11    12    2
     2    12    13    1
     3    13    14    1
     4    14     1    1
     5     1     2   ar
     6     2     3   ar
     7     3     4   ar
     8     4     5   ar
     9     5     6   ar
    10     6     7   ar
    11     7     8   ar
    12     8     9   ar
    13     9    10   ar
    14    14    15    1
    15    15    16    1
    16    16    17    1
    17    17    11    1
    18    10     1   ar
    19     9     4   ar
    20    16    18    1
@<TRIPOS>MOLECULE
*****
 18 20 0 0 0
SMALL
GASTEIGER

@<TRIPOS>ATOM
      1 C          -7.3272  -18.1606   22.0717 C.ar    1  UNL1       -0.0208
      2 C          -7.4360  -17.0275   23.0486 C.ar    1  UNL1       -0.0042
      3 C          -8.7774  -16.4347   23.3633 C.ar    1  UNL1       -0.0003
      4 C         -10.0102  -16.9750   22.7012 C.ar    1  UNL1       -0.0000
      5 C         -11.3516  -16.3822   23.0159 C.ar    1  UNL1       -0.0000
      6 C         -12.5843  -16.9225   22.3537 C.ar    1  UNL1       -0.0000
      7 C         -12.4756  -18.0556   21.3769 C.ar    1  UNL1       -0.0000
      8 C         -11.1342  -18.6484   21.0621 C.ar    1  UNL1       -0.0000
      9 C          -9.9015  -18.1081   21.7243 C.ar    1  UNL1       -0.0003
     10 C          -8.5599  -18.7009   21.4096 C.ar    1  UNL1       -0.0042
     11 C          -3.3507  -20.4388   20.5016 C.2     1  UNL1       -0.0136
     12 C          -4.7783  -20.4578   20.0416 C.2     1  UNL1       -0.0289
     13 C          -5.9511  -19.7077   20.6003 C.3     1  UNL1        0.0315
     14 C          -5.9857  -18.7534   21.7570 C.3     1  UNL1        0.0424
     15 C          -4.8563  -18.3133   22.6406 C.3     1  UNL1        0.0735
     16 N          -3.4132  -18.7190   22.5859 N.3     1  UNL1       -0.2935
     17 C          -2.7432  -19.6649   21.6338 C.3     1  UNL1        0.0950
     18 H          -3.2218  -19.1075   23.5093 H       1  UNL1        0.1236
@<TRIPOS>BOND
     1    11    12    2
     2    12    13    1
     3    13    14    1
     4    14     1    1
     5     1     2   ar
     6     2     3   ar
     7     3     4   ar
     8     4     5   ar
     9     5     6   ar
    10     6     7   ar
    11     7     8   ar
    12     8     9   ar
    13     9    10   ar
    14    14    15    1
    15    15    16    1
    16    16    17    1
    17    17    11    1
    18    10     1   ar
    19     9     4   ar
    20    16    18    1
@<TRIPOS>MOLECULE
*****
 18 20 0 0 0
SMALL
GASTEIGER

@<TRIPOS>ATOM
      1 C          -8.3886  -17.5040   22.7581 C.ar    1  UNL1       -0.0208
      2 C          -9.0238  -16.5233   21.8175 C.ar    1  UNL1       -0.0042
      3 C         -10.5117  -16.3334   21.8243 C.ar    1  UNL1       -0.0003
      4 C         -11.3645  -17.1241   22.7718 C.ar    1  UNL1       -0.0000
      5 C         -12.8523  -16.9342   22.7786 C.ar    1  UNL1       -0.0000
      6 C         -13.7050  -17.7249   23.7260 C.ar    1  UNL1       -0.0000
      7 C         -13.0698  -18.7055   24.6667 C.ar    1  UNL1       -0.0000
      8 C         -11.5819  -18.8955   24.6599 C.ar    1  UNL1       -0.0000
      9 C         -10.7292  -18.1048   23.7124 C.ar    1  UNL1       -0.0003
     10 C          -9.2413  -18.2947   23.7056 C.ar    1  UNL1       -0.0042
     11 C          -3.7275  -18.7741   22.3990 C.2     1  UNL1       -0.0136
     12 C          -4.9984  -19.4540   21.9836 C.2     1  UNL1       -0.0289
     13 C          -6.4107  -18.9732   22.1404 C.3     1  UNL1        0.0315
     14 C          -6.9006  -17.6939   22.7513 C.3     1  UNL1        0.0424
     15 C          -6.0995  -16.5794   23.3562 C.3     1  UNL1        0.0735
     16 N          -4.6105  -16.4688   23.4997 N.3     1  UNL1       -0.2935
     17 C          -3.5549  -17.4456   23.0737 C.3     1  UNL1        0.0950
     18 H          -4.4585  -16.3489   24.5012 H       1  UNL1        0.1236
@<TRIPOS>BOND
     1    11    12    2
     2    12    13    1
     3    13    14    1
     4    14     1    1
     5     1     2   ar
     6     2     3   ar
     7     3     4   ar
     8     4     5   ar
     9     5     6   ar
    10     6     7   ar
    11     7     8   ar
    12     8     9   ar
    13     9    10   ar
    14    14    15    1
    15    15    16    1
    16    16    17    1
    17    17    11    1
    18    10     1   ar
    19     9     4   ar
    20    16    18    1
@<TRIPOS>MOLECULE
*****
 18 20 0 0 0
SMALL
GASTEIGER

@<TRIPOS>ATOM
      1 C          -8.4366  -18.4624   22.6707 C.ar    1  UNL1       -0.0208
      2 C          -7.4521  -17.4962   23.2599 C.ar    1  UNL1       -0.0042
      3 C          -5.9959  -17.6069   22.9176 C.ar    1  UNL1       -0.0003
      4 C          -5.5242  -18.6839   21.9862 C.ar    1  UNL1       -0.0000
      5 C          -4.0680  -18.7946   21.6439 C.ar    1  UNL1       -0.0000
      6 C          -3.5963  -19.8715   20.7125 C.ar    1  UNL1       -0.0000
      7 C          -4.5808  -20.8378   20.1233 C.ar    1  UNL1       -0.0000
      8 C          -6.0370  -20.7271   20.4655 C.ar    1  UNL1       -0.0000
      9 C          -6.5087  -19.6501   21.3970 C.ar    1  UNL1       -0.0003
     10 C          -7.9649  -19.5393   21.7393 C.ar    1  UNL1       -0.0042
     11 C         -13.2125  -17.7752   23.1039 C.2     1  UNL1       -0.0136
     12 C         -12.2355  -17.4456   22.0145 C.2     1  UNL1       -0.0289
     13 C         -10.7581  -17.7021   21.9740 C.3     1  UNL1        0.0315
     14 C          -9.8929  -18.3516   23.0130 C.3     1  UNL1        0.0424
     15 C         -10.2913  -18.9050   24.3490 C.3     1  UNL1        0.0735
     16 N         -11.6533  -18.9457   24.9761 N.3     1  UNL1       -0.2935
     17 C         -12.9534  -18.4428   24.4219 C.3     1  UNL1        0.0950
     18 H         -11.5427  -18.4482   25.8597 H       1  UNL1        0.1236
@<TRIPOS>BOND
     1    11    12    2
     2    12    13    1
     3    13    14    1
     4    14     1    1
     5     1     2   ar
     6     2     3   ar
     7     3     4   ar
     8     4     5   ar
     9     5     6   ar
    10     6     7   ar
    11     7     8   ar
    12     8     9   ar
    13     9    10   ar
    14    14    15    1
    15    15    16    1
    16    16    17    1
    17    17    11    1
    18    10     1   ar
    19     9     4   ar
    20    16    18    1
