@<TRIPOS>MOLECULE
*****
 32 37 0 0 0
SMALL
GASTEIGER

@<TRIPOS>ATOM
      1 C           8.6640   -0.2009   18.7787 C.ar    1  UNL1        0.1196
      2 C           9.4038   -0.8768   19.8948 C.ar    1  UNL1        0.1023
      3 N           8.5830   -2.0453   20.3543 N.ar    1  UNL1       -0.2837
      4 C           8.8100   -3.0731   21.4229 C.ar    1  UNL1        0.1004
      5 C           7.7900   -4.1472   21.6593 C.ar    1  UNL1        0.0968
      6 N           6.5429   -4.1934   20.8271 N.ar    1  UNL1       -0.2263
      7 C           6.3158   -3.1655   19.7584 C.ar    1  UNL1        0.1670
      8 C           7.3359   -2.0915   19.5220 C.ar    1  UNL1        0.1801
      9 N           7.3860   -0.9516   18.5483 N.ar    1  UNL1       -0.2222
     10 C           8.0170   -5.1750   22.7279 C.2     1  UNL1        0.0030
     11 C           8.8561   -6.3844   22.4392 C.2     1  UNL1       -0.0023
     12 C           9.0832   -7.4122   23.5078 C.2     1  UNL1        0.0026
     13 C           8.4711   -7.2307   24.8652 C.2     1  UNL1        0.0366
     14 C           8.5190   -8.0691   26.1082 C.2     1  UNL1        0.1233
     15 N           7.7095   -7.3779   27.1649 N.2     1  UNL1       -0.1467
     16 N           7.1613   -6.1123   26.5753 N.2     1  UNL1       -0.1520
     17 C           7.6320   -6.0213   25.1540 C.2     1  UNL1        0.0865
     18 C           7.4050   -4.9935   24.0853 C.3     1  UNL1        0.0755
     19 N           5.0687   -3.2117   18.9262 N.pl3   1  UNL1       -0.2955
     20 H           4.9187   -3.9609   18.3053 H       1  UNL1        0.1537
     21 C           4.0502   -2.1164   19.0399 C.ar    1  UNL1        0.0495
     22 C           3.1911   -2.0154   20.2653 C.ar    1  UNL1        0.0159
     23 C           2.1726   -0.9202   20.3790 C.ar    1  UNL1        0.0158
     24 C           2.0131    0.0741   19.2673 C.ar    1  UNL1        0.0481
     25 C           2.8722   -0.0268   18.0419 C.ar    1  UNL1        0.0158
     26 C           3.8907   -1.1221   17.9282 C.ar    1  UNL1        0.0159
     27 N           0.9946    1.1694   19.3810 N.pl3   1  UNL1       -0.3028
     28 C           0.7535    2.0926   18.2236 C.3     1  UNL1        0.1231
     29 C          -0.2651    3.1879   18.3373 C.3     1  UNL1        0.1636
     30 O          -1.0426    3.3600   19.6085 O.3     1  UNL1       -0.3501
     31 C          -0.8014    2.4368   20.7660 C.3     1  UNL1        0.1636
     32 C           0.2171    1.3415   20.6522 C.3     1  UNL1        0.1231
@<TRIPOS>BOND
     1     1     2   ar
     2     2     3   ar
     3     3     4   ar
     4     4     5   ar
     5     5    10    1
     6    10    11    2
     7    11    12    1
     8    12    13    2
     9    13    14    1
    10    14    15    2
    11    15    16    1
    12    16    17    2
    13    17    18    1
    14     5     6   ar
    15     6     7   ar
    16     7    19    1
    17    19    21    1
    18    21    22   ar
    19    22    23   ar
    20    23    24   ar
    21    24    27    1
    22    27    28    1
    23    28    29    1
    24    29    30    1
    25    30    31    1
    26    31    32    1
    27    24    25   ar
    28    25    26   ar
    29     7     8   ar
    30     8     9   ar
    31     9     1   ar
    32     8     3   ar
    33    18    10    1
    34    26    21   ar
    35    17    13    1
    36    32    27    1
    37    19    20    1
@<TRIPOS>MOLECULE
*****
 32 37 0 0 0
SMALL
GASTEIGER

@<TRIPOS>ATOM
      1 C          -4.3215    4.1770   21.1137 C.ar    1  UNL1        0.1196
      2 C          -4.3917    4.1054   22.6104 C.ar    1  UNL1        0.1023
      3 N          -3.0478    3.6732   23.1174 N.ar    1  UNL1       -0.2837
      4 C          -2.5280    3.4325   24.5037 C.ar    1  UNL1        0.1004
      5 C          -1.1072    2.9961   24.7067 C.ar    1  UNL1        0.0968
      6 N          -0.2064    2.8005   23.5234 N.ar    1  UNL1       -0.2263
      7 C          -0.7263    3.0413   22.1371 C.ar    1  UNL1        0.1670
      8 C          -2.1470    3.4776   21.9341 C.ar    1  UNL1        0.1801
      9 N          -2.9342    3.7890   20.6958 N.ar    1  UNL1       -0.2222
     10 C          -0.5874    2.7554   26.0930 C.2     1  UNL1        0.0030
     11 C          -0.2475    3.9172   26.9788 C.2     1  UNL1       -0.0023
     12 C           0.2723    3.6765   28.3650 C.2     1  UNL1        0.0026
     13 C           0.4522    2.2739   28.8656 C.2     1  UNL1        0.0366
     14 C           0.9415    1.7306   30.1753 C.2     1  UNL1        0.1233
     15 N           0.9039    0.2330   30.0989 N.2     1  UNL1       -0.1467
     16 N           0.3915   -0.1492   28.7421 N.2     1  UNL1       -0.1520
     17 C           0.1123    1.1121   27.9798 C.2     1  UNL1        0.0865
     18 C          -0.4075    1.3529   26.5934 C.3     1  UNL1        0.0755
     19 N           0.1746    2.8457   20.9538 N.pl3   1  UNL1       -0.2955
     20 H           0.2097    3.5269   20.2439 H       1  UNL1        0.1537
     21 C           1.0219    1.6121   20.8521 C.ar    1  UNL1        0.0495
     22 C           2.4551    1.6482   21.2931 C.ar    1  UNL1        0.0159
     23 C           3.3024    0.4147   21.1914 C.ar    1  UNL1        0.0158
     24 C           2.7165   -0.8550   20.6486 C.ar    1  UNL1        0.0481
     25 C           1.2833   -0.8912   20.2076 C.ar    1  UNL1        0.0158
     26 C           0.4360    0.3424   20.3093 C.ar    1  UNL1        0.0159
     27 N           3.5639   -2.0886   20.5469 N.pl3   1  UNL1       -0.3028
     28 C           3.5247   -2.9249   19.3024 C.3     1  UNL1        0.1231
     29 C           4.3721   -4.1585   19.2006 C.3     1  UNL1        0.1636
     30 O           5.2586   -4.5558   20.3436 O.3     1  UNL1       -0.3501
     31 C           5.2978   -3.7194   21.5882 C.3     1  UNL1        0.1636
     32 C           4.4504   -2.4859   21.6899 C.3     1  UNL1        0.1231
@<TRIPOS>BOND
     1     1     2   ar
     2     2     3   ar
     3     3     4   ar
     4     4     5   ar
     5     5    10    1
     6    10    11    2
     7    11    12    1
     8    12    13    2
     9    13    14    1
    10    14    15    2
    11    15    16    1
    12    16    17    2
    13    17    18    1
    14     5     6   ar
    15     6     7   ar
    16     7    19    1
    17    19    21    1
    18    21    22   ar
    19    22    23   ar
    20    23    24   ar
    21    24    27    1
    22    27    28    1
    23    28    29    1
    24    29    30    1
    25    30    31    1
    26    31    32    1
    27    24    25   ar
    28    25    26   ar
    29     7     8   ar
    30     8     9   ar
    31     9     1   ar
    32     8     3   ar
    33    18    10    1
    34    26    21   ar
    35    17    13    1
    36    32    27    1
    37    19    20    1
@<TRIPOS>MOLECULE
*****
 32 37 0 0 0
SMALL
GASTEIGER

@<TRIPOS>ATOM
      1 C          -4.1087    4.8734   22.9660 C.ar    1  UNL1        0.1196
      2 C          -3.7268    4.4397   24.3502 C.ar    1  UNL1        0.1023
      3 N          -2.4542    3.6514   24.2544 N.ar    1  UNL1       -0.2837
      4 C          -1.6116    2.9754   25.2951 C.ar    1  UNL1        0.1004
      5 C          -0.3643    2.2458   24.8923 C.ar    1  UNL1        0.0968
      6 N           0.0403    2.1923   23.4489 N.ar    1  UNL1       -0.2263
      7 C          -0.8024    2.8684   22.4082 C.ar    1  UNL1        0.1670
      8 C          -2.0496    3.5979   22.8110 C.ar    1  UNL1        0.1801
      9 N          -3.0721    4.3531   22.0147 N.ar    1  UNL1       -0.2222
     10 C           0.4783    1.5698   25.9329 C.2     1  UNL1        0.0030
     11 C           1.9031    1.2129   25.6285 C.2     1  UNL1       -0.0023
     12 C           2.7457    0.5369   26.6692 C.2     1  UNL1        0.0026
     13 C           2.1635    0.2178   28.0143 C.2     1  UNL1        0.0366
     14 C           2.7468   -0.4389   29.2303 C.2     1  UNL1        0.1233
     15 N           1.6826   -0.4878   30.2861 N.2     1  UNL1       -0.1467
     16 N           0.4416    0.1387   29.7229 N.2     1  UNL1       -0.1520
     17 C           0.7388    0.5748   28.3188 C.2     1  UNL1        0.0865
     18 C          -0.1038    1.2508   27.2780 C.3     1  UNL1        0.0755
     19 N          -0.3978    2.8149   20.9648 N.pl3   1  UNL1       -0.2955
     20 H          -0.7945    3.4430   20.3188 H       1  UNL1        0.1537
     21 C           0.6112    1.8043   20.5057 C.ar    1  UNL1        0.0495
     22 C           0.2593    0.3463   20.4912 C.ar    1  UNL1        0.0159
     23 C           1.2683   -0.6642   20.0321 C.ar    1  UNL1        0.0158
     24 C           2.6292   -0.2166   19.5875 C.ar    1  UNL1        0.0481
     25 C           2.9811    1.2414   19.6019 C.ar    1  UNL1        0.0158
     26 C           1.9721    2.2519   20.0610 C.ar    1  UNL1        0.0159
     27 N           3.6382   -1.2272   19.1284 N.pl3   1  UNL1       -0.3028
     28 C           4.8748   -0.7784   18.4078 C.3     1  UNL1        0.1231
     29 C           5.8838   -1.7890   17.9487 C.3     1  UNL1        0.1636
     30 O           5.6561   -3.2484   18.2102 O.3     1  UNL1       -0.3501
     31 C           4.4194   -3.6972   18.9308 C.3     1  UNL1        0.1636
     32 C           3.4105   -2.6866   19.3899 C.3     1  UNL1        0.1231
@<TRIPOS>BOND
     1     1     2   ar
     2     2     3   ar
     3     3     4   ar
     4     4     5   ar
     5     5    10    1
     6    10    11    2
     7    11    12    1
     8    12    13    2
     9    13    14    1
    10    14    15    2
    11    15    16    1
    12    16    17    2
    13    17    18    1
    14     5     6   ar
    15     6     7   ar
    16     7    19    1
    17    19    21    1
    18    21    22   ar
    19    22    23   ar
    20    23    24   ar
    21    24    27    1
    22    27    28    1
    23    28    29    1
    24    29    30    1
    25    30    31    1
    26    31    32    1
    27    24    25   ar
    28    25    26   ar
    29     7     8   ar
    30     8     9   ar
    31     9     1   ar
    32     8     3   ar
    33    18    10    1
    34    26    21   ar
    35    17    13    1
    36    32    27    1
    37    19    20    1
@<TRIPOS>MOLECULE
*****
 32 37 0 0 0
SMALL
GASTEIGER

@<TRIPOS>ATOM
      1 C          -2.0440    5.2956   18.0191 C.ar    1  UNL1        0.1196
      2 C          -1.3816    4.1466   17.3183 C.ar    1  UNL1        0.1023
      3 N          -0.4926    3.4513   18.3063 N.ar    1  UNL1       -0.2837
      4 C           0.4051    2.2561   18.1811 C.ar    1  UNL1        0.1004
      5 C           1.1900    1.7801   19.3675 C.ar    1  UNL1        0.0968
      6 N           1.0771    2.4993   20.6790 N.ar    1  UNL1       -0.2263
      7 C           0.1793    3.6945   20.8041 C.ar    1  UNL1        0.1670
      8 C          -0.6055    4.1704   19.6178 C.ar    1  UNL1        0.1801
      9 N          -1.5643    5.3103   19.4403 N.ar    1  UNL1       -0.2222
     10 C           2.0877    0.5850   19.2424 C.2     1  UNL1        0.0030
     11 C           1.9208   -0.5792   20.1734 C.2     1  UNL1       -0.0023
     12 C           2.8186   -1.7743   20.0483 C.2     1  UNL1        0.0026
     13 C           3.8833   -1.8053   18.9921 C.2     1  UNL1        0.0366
     14 C           4.9092   -2.8383   18.6311 C.2     1  UNL1        0.1233
     15 N           5.7102   -2.3125   17.4770 N.2     1  UNL1       -0.1467
     16 N           5.1793   -0.9546   17.1247 N.2     1  UNL1       -0.1520
     17 C           4.0502   -0.6411   18.0610 C.2     1  UNL1        0.0865
     18 C           3.1524    0.5541   18.1862 C.3     1  UNL1        0.0755
     19 N           0.0664    4.4137   22.1156 N.pl3   1  UNL1       -0.2955
     20 H          -0.0333    5.3930   22.1330 H       1  UNL1        0.1537
     21 C           0.1054    3.6408   23.4006 C.ar    1  UNL1        0.0495
     22 C           1.4235    3.2840   24.0215 C.ar    1  UNL1        0.0159
     23 C           1.4625    2.5112   25.3064 C.ar    1  UNL1        0.0158
     24 C           0.1834    2.0950   25.9705 C.ar    1  UNL1        0.0481
     25 C          -1.1346    2.4518   25.3496 C.ar    1  UNL1        0.0158
     26 C          -1.1736    3.2247   24.0647 C.ar    1  UNL1        0.0159
     27 N           0.2225    1.3221   27.2555 N.pl3   1  UNL1       -0.3028
     28 C           1.5390    0.8981   27.8359 C.3     1  UNL1        0.1231
     29 C           1.5781    0.1252   29.1210 C.3     1  UNL1        0.1636
     30 O           0.3005   -0.2237   29.8254 O.3     1  UNL1       -0.3501
     31 C          -1.0160    0.2004   29.2449 C.3     1  UNL1        0.1636
     32 C          -1.0550    0.9733   27.9600 C.3     1  UNL1        0.1231
@<TRIPOS>BOND
     1     1     2   ar
     2     2     3   ar
     3     3     4   ar
     4     4     5   ar
     5     5    10    1
     6    10    11    2
     7    11    12    1
     8    12    13    2
     9    13    14    1
    10    14    15    2
    11    15    16    1
    12    16    17    2
    13    17    18    1
    14     5     6   ar
    15     6     7   ar
    16     7    19    1
    17    19    21    1
    18    21    22   ar
    19    22    23   ar
    20    23    24   ar
    21    24    27    1
    22    27    28    1
    23    28    29    1
    24    29    30    1
    25    30    31    1
    26    31    32    1
    27    24    25   ar
    28    25    26   ar
    29     7     8   ar
    30     8     9   ar
    31     9     1   ar
    32     8     3   ar
    33    18    10    1
    34    26    21   ar
    35    17    13    1
    36    32    27    1
    37    19    20    1
@<TRIPOS>MOLECULE
*****
 32 37 0 0 0
SMALL
GASTEIGER

@<TRIPOS>ATOM
      1 C           3.6926    0.0321   29.2768 C.ar    1  UNL1        0.1196
      2 C           4.0683   -1.0764   28.3387 C.ar    1  UNL1        0.1023
      3 N           3.7119   -0.6464   26.9466 N.ar    1  UNL1       -0.2837
      4 C           3.8530   -1.3287   25.6183 C.ar    1  UNL1        0.1004
      5 C           3.3982   -0.6366   24.3675 C.ar    1  UNL1        0.0968
      6 N           2.8023    0.7378   24.4452 N.ar    1  UNL1       -0.2263
      7 C           2.6612    1.4201   25.7736 C.ar    1  UNL1        0.1670
      8 C           3.1160    0.7280   27.0243 C.ar    1  UNL1        0.1801
      9 N           3.1041    1.1473   28.4644 N.ar    1  UNL1       -0.2222
     10 C           3.5393   -1.3189   23.0392 C.2     1  UNL1        0.0030
     11 C           2.8161   -0.7821   21.8397 C.2     1  UNL1       -0.0023
     12 C           2.9572   -1.4644   20.5114 C.2     1  UNL1        0.0026
     13 C           3.8216   -2.6835   20.3825 C.2     1  UNL1        0.0366
     14 C           4.1503   -3.5617   19.2117 C.2     1  UNL1        0.1233
     15 N           5.0766   -4.6412   19.6876 N.2     1  UNL1       -0.1467
     16 N           5.3205   -4.4303   21.1524 N.2     1  UNL1       -0.1520
     17 C           4.5449   -3.2203   21.5820 C.2     1  UNL1        0.0865
     18 C           4.4037   -2.5380   22.9103 C.3     1  UNL1        0.0755
     19 N           2.0653    2.7944   25.8513 N.pl3   1  UNL1       -0.2955
     20 H           2.6117    3.5509   26.1651 H       1  UNL1        0.1537
     21 C           0.6368    3.0162   25.4508 C.ar    1  UNL1        0.0495
     22 C          -0.4516    2.9374   26.4800 C.ar    1  UNL1        0.0159
     23 C          -1.8799    3.1592   26.0795 C.ar    1  UNL1        0.0158
     24 C          -2.2200    3.4599   24.6499 C.ar    1  UNL1        0.0481
     25 C          -1.1317    3.5387   23.6207 C.ar    1  UNL1        0.0158
     26 C           0.2967    3.3169   24.0212 C.ar    1  UNL1        0.0159
     27 N          -3.6485    3.6817   24.2494 N.pl3   1  UNL1       -0.3028
     28 C          -4.6641    4.0750   25.2808 C.3     1  UNL1        0.1231
     29 C          -6.0926    4.2968   24.8803 C.3     1  UNL1        0.1636
     30 O          -6.5054    4.1253   23.4485 O.3     1  UNL1       -0.3501
     31 C          -5.4897    3.7319   22.4171 C.3     1  UNL1        0.1636
     32 C          -4.0613    3.5101   22.8176 C.3     1  UNL1        0.1231
@<TRIPOS>BOND
     1     1     2   ar
     2     2     3   ar
     3     3     4   ar
     4     4     5   ar
     5     5    10    1
     6    10    11    2
     7    11    12    1
     8    12    13    2
     9    13    14    1
    10    14    15    2
    11    15    16    1
    12    16    17    2
    13    17    18    1
    14     5     6   ar
    15     6     7   ar
    16     7    19    1
    17    19    21    1
    18    21    22   ar
    19    22    23   ar
    20    23    24   ar
    21    24    27    1
    22    27    28    1
    23    28    29    1
    24    29    30    1
    25    30    31    1
    26    31    32    1
    27    24    25   ar
    28    25    26   ar
    29     7     8   ar
    30     8     9   ar
    31     9     1   ar
    32     8     3   ar
    33    18    10    1
    34    26    21   ar
    35    17    13    1
    36    32    27    1
    37    19    20    1
@<TRIPOS>MOLECULE
*****
 32 37 0 0 0
SMALL
GASTEIGER

@<TRIPOS>ATOM
      1 C           2.8894    5.4171   21.0437 C.ar    1  UNL1        0.1196
      2 C           1.8098    5.8727   21.9801 C.ar    1  UNL1        0.1023
      3 N           0.5630    5.1025   21.6602 N.ar    1  UNL1       -0.2837
      4 C          -0.8136    5.1291   22.2551 C.ar    1  UNL1        0.1004
      5 C          -1.8814    4.2240   21.7157 C.ar    1  UNL1        0.0968
      6 N          -1.5724    3.2923   20.5815 N.ar    1  UNL1       -0.2263
      7 C          -0.1956    3.2657   19.9866 C.ar    1  UNL1        0.1670
      8 C           0.8721    4.1708   20.5260 C.ar    1  UNL1        0.1801
      9 N           2.3098    4.3652   20.1450 N.ar    1  UNL1       -0.2222
     10 C          -3.2581    4.2507   22.3106 C.2     1  UNL1        0.0030
     11 C          -3.5237    3.5648   23.6179 C.2     1  UNL1       -0.0023
     12 C          -4.9004    3.5914   24.2128 C.2     1  UNL1        0.0026
     13 C          -6.0116    4.3040   23.5004 C.2     1  UNL1        0.0366
     14 C          -7.4598    4.4980   23.8398 C.2     1  UNL1        0.1233
     15 N          -8.0891    5.3037   22.7424 N.2     1  UNL1       -0.1467
     16 N          -7.0301    5.6078   21.7247 N.2     1  UNL1       -0.1520
     17 C          -5.7460    4.9899   22.1931 C.2     1  UNL1        0.0865
     18 C          -4.3692    4.9633   21.5983 C.3     1  UNL1        0.0755
     19 N           0.1135    2.3340   18.8524 N.pl3   1  UNL1       -0.2955
     20 H          -0.2863    2.4880   17.9660 H       1  UNL1        0.1537
     21 C           1.0316    1.1677   19.0688 C.ar    1  UNL1        0.0495
     22 C           0.7134    0.1478   20.1216 C.ar    1  UNL1        0.0159
     23 C           1.6315   -1.0184   20.3379 C.ar    1  UNL1        0.0158
     24 C           2.8680   -1.1647   19.5014 C.ar    1  UNL1        0.0481
     25 C           3.1863   -0.1448   18.4486 C.ar    1  UNL1        0.0158
     26 C           2.2681    1.0214   18.2323 C.ar    1  UNL1        0.0159
     27 N           3.7862   -2.3310   19.7178 N.pl3   1  UNL1       -0.3028
     28 C           4.9389   -2.2115   20.6701 C.3     1  UNL1        0.1231
     29 C           5.8571   -3.3778   20.8864 C.3     1  UNL1        0.1636
     30 O           5.6225   -4.6636   20.1505 O.3     1  UNL1       -0.3501
     31 C           4.4697   -4.7831   19.1982 C.3     1  UNL1        0.1636
     32 C           3.5515   -3.6169   18.9819 C.3     1  UNL1        0.1231
@<TRIPOS>BOND
     1     1     2   ar
     2     2     3   ar
     3     3     4   ar
     4     4     5   ar
     5     5    10    1
     6    10    11    2
     7    11    12    1
     8    12    13    2
     9    13    14    1
    10    14    15    2
    11    15    16    1
    12    16    17    2
    13    17    18    1
    14     5     6   ar
    15     6     7   ar
    16     7    19    1
    17    19    21    1
    18    21    22   ar
    19    22    23   ar
    20    23    24   ar
    21    24    27    1
    22    27    28    1
    23    28    29    1
    24    29    30    1
    25    30    31    1
    26    31    32    1
    27    24    25   ar
    28    25    26   ar
    29     7     8   ar
    30     8     9   ar
    31     9     1   ar
    32     8     3   ar
    33    18    10    1
    34    26    21   ar
    35    17    13    1
    36    32    27    1
    37    19    20    1
@<TRIPOS>MOLECULE
*****
 32 37 0 0 0
SMALL
GASTEIGER

@<TRIPOS>ATOM
      1 C          -2.4768    3.8801   16.3821 C.ar    1  UNL1        0.1196
      2 C          -3.5754    4.0256   17.3929 C.ar    1  UNL1        0.1023
      3 N          -2.9590    3.9679   18.7592 N.ar    1  UNL1       -0.2837
      4 C          -3.5539    4.0569   20.1333 C.ar    1  UNL1        0.1004
      5 C          -2.6690    3.9648   21.3410 C.ar    1  UNL1        0.0968
      6 N          -1.1893    3.7836   21.1746 N.ar    1  UNL1       -0.2263
      7 C          -0.5945    3.6946   19.8005 C.ar    1  UNL1        0.1670
      8 C          -1.4793    3.7868   18.5928 C.ar    1  UNL1        0.1801
      9 N          -1.1813    3.7325   17.1237 N.ar    1  UNL1       -0.2222
     10 C          -3.2639    4.0538   22.7151 C.2     1  UNL1        0.0030
     11 C          -4.5275    3.3113   23.0349 C.2     1  UNL1       -0.0023
     12 C          -5.1223    3.4003   24.4090 C.2     1  UNL1        0.0026
     13 C          -4.4537    4.2318   25.4634 C.2     1  UNL1        0.0366
     14 C          -4.8036    4.5078   26.8956 C.2     1  UNL1        0.1233
     15 N          -3.7563    5.4207   27.4610 N.2     1  UNL1       -0.1467
     16 N          -2.7592    5.7090   26.3782 N.2     1  UNL1       -0.1520
     17 C          -3.1901    4.9742   25.1436 C.2     1  UNL1        0.0865
     18 C          -2.5953    4.8852   23.7694 C.3     1  UNL1        0.0755
     19 N           0.8852    3.5135   19.6341 N.pl3   1  UNL1       -0.2955
     20 H           1.4453    4.2722   19.3515 H       1  UNL1        0.1537
     21 C           1.5115    2.1763   19.8982 C.ar    1  UNL1        0.0495
     22 C           0.9375    0.9417   19.2687 C.ar    1  UNL1        0.0159
     23 C           1.5638   -0.3954   19.5329 C.ar    1  UNL1        0.0158
     24 C           2.7641   -0.4979   20.4266 C.ar    1  UNL1        0.0481
     25 C           3.3382    0.7366   21.0561 C.ar    1  UNL1        0.0158
     26 C           2.7119    2.0737   20.7919 C.ar    1  UNL1        0.0159
     27 N           3.3904   -1.8351   20.6908 N.pl3   1  UNL1       -0.3028
     28 C           3.9831   -2.1331   22.0361 C.3     1  UNL1        0.1231
     29 C           4.6094   -3.4703   22.3002 C.3     1  UNL1        0.1636
     30 O           4.6430   -4.5095   21.2190 O.3     1  UNL1       -0.3501
     31 C           4.0503   -4.2114   19.8737 C.3     1  UNL1        0.1636
     32 C           3.4240   -2.8743   19.6096 C.3     1  UNL1        0.1231
@<TRIPOS>BOND
     1     1     2   ar
     2     2     3   ar
     3     3     4   ar
     4     4     5   ar
     5     5    10    1
     6    10    11    2
     7    11    12    1
     8    12    13    2
     9    13    14    1
    10    14    15    2
    11    15    16    1
    12    16    17    2
    13    17    18    1
    14     5     6   ar
    15     6     7   ar
    16     7    19    1
    17    19    21    1
    18    21    22   ar
    19    22    23   ar
    20    23    24   ar
    21    24    27    1
    22    27    28    1
    23    28    29    1
    24    29    30    1
    25    30    31    1
    26    31    32    1
    27    24    25   ar
    28    25    26   ar
    29     7     8   ar
    30     8     9   ar
    31     9     1   ar
    32     8     3   ar
    33    18    10    1
    34    26    21   ar
    35    17    13    1
    36    32    27    1
    37    19    20    1
@<TRIPOS>MOLECULE
*****
 32 37 0 0 0
SMALL
GASTEIGER

@<TRIPOS>ATOM
      1 C          -2.5534    4.2731   20.8144 C.ar    1  UNL1        0.1196
      2 C          -1.7675    3.2236   20.0857 C.ar    1  UNL1        0.1023
      3 N          -0.8283    2.5843   21.0652 N.ar    1  UNL1       -0.2837
      4 C           0.1874    1.4909   20.9146 C.ar    1  UNL1        0.1004
      5 C           0.9977    1.0518   22.0982 C.ar    1  UNL1        0.0968
      6 N           0.7923    1.7062   23.4322 N.ar    1  UNL1       -0.2263
      7 C          -0.2235    2.7997   23.5826 C.ar    1  UNL1        0.1670
      8 C          -1.0338    3.2387   22.3992 C.ar    1  UNL1        0.1801
      9 N          -2.0999    4.2824   22.2442 N.ar    1  UNL1       -0.2222
     10 C           2.0134   -0.0417   21.9477 C.2     1  UNL1        0.0030
     11 C           2.8528   -0.4523   23.1210 C.2     1  UNL1       -0.0023
     12 C           3.8685   -1.5457   22.9705 C.2     1  UNL1        0.0026
     13 C           4.0448   -2.2286   21.6466 C.2     1  UNL1        0.0366
     14 C           4.9587   -3.3309   21.1995 C.2     1  UNL1        0.1233
     15 N           4.6840   -3.6015   19.7500 N.2     1  UNL1       -0.1467
     16 N           3.6005   -2.6665   19.3011 N.2     1  UNL1       -0.1520
     17 C           3.2053   -1.8180   20.4732 C.2     1  UNL1        0.0865
     18 C           2.1896   -0.7245   20.6238 C.3     1  UNL1        0.0755
     19 N          -0.4289    3.4541   24.9166 N.pl3   1  UNL1       -0.2955
     20 H          -0.9489    4.2876   24.9812 H       1  UNL1        0.1537
     21 C           0.1578    2.8385   26.1523 C.ar    1  UNL1        0.0495
     22 C           1.5353    3.2263   26.6019 C.ar    1  UNL1        0.0159
     23 C           2.1220    2.6107   27.8375 C.ar    1  UNL1        0.0158
     24 C           1.3313    1.6073   28.6235 C.ar    1  UNL1        0.0481
     25 C          -0.0462    1.2195   28.1740 C.ar    1  UNL1        0.0158
     26 C          -0.6329    1.8351   26.9384 C.ar    1  UNL1        0.0159
     27 N           1.9180    0.9917   29.8592 N.pl3   1  UNL1       -0.3028
     28 C           1.9245    1.7583   31.1485 C.3     1  UNL1        0.1231
     29 C           2.5113    1.1427   32.3842 C.3     1  UNL1        0.1636
     30 O           3.0916   -0.2395   32.3305 O.3     1  UNL1       -0.3501
     31 C           3.0851   -1.0060   31.0411 C.3     1  UNL1        0.1636
     32 C           2.4983   -0.3904   29.8055 C.3     1  UNL1        0.1231
@<TRIPOS>BOND
     1     1     2   ar
     2     2     3   ar
     3     3     4   ar
     4     4     5   ar
     5     5    10    1
     6    10    11    2
     7    11    12    1
     8    12    13    2
     9    13    14    1
    10    14    15    2
    11    15    16    1
    12    16    17    2
    13    17    18    1
    14     5     6   ar
    15     6     7   ar
    16     7    19    1
    17    19    21    1
    18    21    22   ar
    19    22    23   ar
    20    23    24   ar
    21    24    27    1
    22    27    28    1
    23    28    29    1
    24    29    30    1
    25    30    31    1
    26    31    32    1
    27    24    25   ar
    28    25    26   ar
    29     7     8   ar
    30     8     9   ar
    31     9     1   ar
    32     8     3   ar
    33    18    10    1
    34    26    21   ar
    35    17    13    1
    36    32    27    1
    37    19    20    1
@<TRIPOS>MOLECULE
*****
 32 37 0 0 0
SMALL
GASTEIGER

@<TRIPOS>ATOM
      1 C           4.6096   -5.1429   18.9869 C.ar    1  UNL1        0.1196
      2 C           3.3876   -4.2741   18.9426 C.ar    1  UNL1        0.1023
      3 N           3.6134   -3.1093   19.8603 N.ar    1  UNL1       -0.2837
      4 C           2.7551   -1.9323   20.2181 C.ar    1  UNL1        0.1004
      5 C           3.2584   -0.9042   21.1875 C.ar    1  UNL1        0.0968
      6 N           4.6200   -1.0530   21.7990 N.ar    1  UNL1       -0.2263
      7 C           5.4783   -2.2300   21.4411 C.ar    1  UNL1        0.1670
      8 C           4.9750   -3.2582   20.4718 C.ar    1  UNL1        0.1801
      9 N           5.5907   -4.5150   19.9320 N.ar    1  UNL1       -0.2222
     10 C           2.4002    0.2728   21.5453 C.2     1  UNL1        0.0030
     11 C           2.8598    1.2463   22.5898 C.2     1  UNL1       -0.0023
     12 C           2.0015    2.4232   22.9477 C.2     1  UNL1        0.0026
     13 C           0.6835    2.6268   22.2609 C.2     1  UNL1        0.0366
     14 C          -0.3694    3.6856   22.4031 C.2     1  UNL1        0.1233
     15 N          -1.4798    3.3665   21.4465 N.2     1  UNL1       -0.1467
     16 N          -1.1131    2.1105   20.7130 N.2     1  UNL1       -0.1520
     17 C           0.2239    1.6533   21.2164 C.2     1  UNL1        0.0865
     18 C           1.0822    0.4763   20.8586 C.3     1  UNL1        0.0755
     19 N           6.8399   -2.3789   22.0526 N.pl3   1  UNL1       -0.2955
     20 H           7.6308   -2.0251   21.5851 H       1  UNL1        0.1537
     21 C           6.9964   -3.0668   23.3764 C.ar    1  UNL1        0.0495
     22 C           7.3015   -4.5345   23.4275 C.ar    1  UNL1        0.0159
     23 C           7.4580   -5.2223   24.7513 C.ar    1  UNL1        0.0158
     24 C           7.3094   -4.4424   26.0240 C.ar    1  UNL1        0.0481
     25 C           7.0042   -2.9747   25.9728 C.ar    1  UNL1        0.0158
     26 C           6.8477   -2.2869   24.6491 C.ar    1  UNL1        0.0159
     27 N           7.4659   -5.1303   27.3478 N.pl3   1  UNL1       -0.3028
     28 C           8.4829   -6.2206   27.5108 C.3     1  UNL1        0.1231
     29 C           8.6394   -6.9085   28.8346 C.3     1  UNL1        0.1636
     30 O           7.7788   -6.5060   29.9953 O.3     1  UNL1       -0.3501
     31 C           6.7617   -5.4155   29.8323 C.3     1  UNL1        0.1636
     32 C           6.6053   -4.7277   28.5085 C.3     1  UNL1        0.1231
@<TRIPOS>BOND
     1     1     2   ar
     2     2     3   ar
     3     3     4   ar
     4     4     5   ar
     5     5    10    1
     6    10    11    2
     7    11    12    1
     8    12    13    2
     9    13    14    1
    10    14    15    2
    11    15    16    1
    12    16    17    2
    13    17    18    1
    14     5     6   ar
    15     6     7   ar
    16     7    19    1
    17    19    21    1
    18    21    22   ar
    19    22    23   ar
    20    23    24   ar
    21    24    27    1
    22    27    28    1
    23    28    29    1
    24    29    30    1
    25    30    31    1
    26    31    32    1
    27    24    25   ar
    28    25    26   ar
    29     7     8   ar
    30     8     9   ar
    31     9     1   ar
    32     8     3   ar
    33    18    10    1
    34    26    21   ar
    35    17    13    1
    36    32    27    1
    37    19    20    1
