@<TRIPOS>MOLECULE
*****
 35 39 0 0 0
SMALL
GASTEIGER

@<TRIPOS>ATOM
      1 C           6.6945   -2.7521   26.5009 C.ar    1  UNL1        0.0014
      2 C           7.2116   -3.7036   25.4631 C.ar    1  UNL1        0.0013
      3 C           6.5613   -3.7665   24.1128 C.ar    1  UNL1        0.0146
      4 C           5.3939   -2.8780   23.8004 C.ar    1  UNL1        0.0499
      5 C           4.8767   -1.9265   24.8383 C.ar    1  UNL1       -0.0068
      6 C           5.5270   -1.8635   26.1885 C.ar    1  UNL1       -0.0029
      7 C           3.7189   -1.1791   24.2460 C.3     1  UNL1        0.0495
      8 C           3.5204   -1.6687   22.8421 C.3     1  UNL1        0.1029
      9 N           4.5556   -2.7187   22.5668 N.am    1  UNL1       -0.2583
     10 C           4.7232   -3.4763   21.2831 C.2     1  UNL1        0.2338
     11 O           5.8097   -4.5024   21.1541 O.2     1  UNL1       -0.2742
     12 C           9.4933   -1.0784   30.6537 C.3     1  UNL1        0.1319
     13 N           8.6312   -1.9199   29.7600 N.ar    1  UNL1       -0.3094
     14 C           8.1895   -1.5641   28.3714 C.ar    1  UNL1        0.0772
     15 C           7.3447   -2.6892   27.8512 C.ar    1  UNL1        0.0228
     16 C           7.2643   -3.7402   28.9183 C.ar    1  UNL1        0.0668
     17 C           6.5699   -5.0688   28.9682 C.ar    1  UNL1        0.1300
     18 N           5.7748   -5.5443   27.7885 N.pl3   1  UNL1       -0.3425
     19 N           6.6705   -5.9220   30.1978 N.ar    1  UNL1       -0.2094
     20 C           7.4656   -5.4465   31.3776 C.ar    1  UNL1        0.2014
     21 N           8.1601   -4.1179   31.3277 N.ar    1  UNL1       -0.2065
     22 C           8.0594   -3.2648   30.0981 C.ar    1  UNL1        0.1483
     23 H           5.7087   -4.9843   26.9814 H       1  UNL1        0.1437
     24 H           5.3190   -6.4163   27.8212 H       1  UNL1        0.1437
     25 C           3.8042   -3.2079   20.1283 C.3     1  UNL1        0.1119
     26 C           4.0254   -2.0070   19.2571 C.ar    1  UNL1       -0.0131
     27 C           5.2747   -1.8972   18.4344 C.ar    1  UNL1       -0.0038
     28 C           5.4959   -0.6963   17.5632 C.ar    1  UNL1       -0.0004
     29 C           4.4678    0.3947   17.5148 C.ar    1  UNL1        0.0038
     30 C           3.2184    0.2850   18.3375 C.ar    1  UNL1        0.0711
     31 C           2.9972   -0.9159   19.2087 C.ar    1  UNL1        0.0001
     32 C           2.1902    1.3761   18.2891 C.3     1  UNL1        0.4186
     33 F           1.1620    2.4672   18.2406 F       1  UNL1       -0.1659
     34 F           1.0987    0.3472   18.2821 F       1  UNL1       -0.1659
     35 F           3.2817    2.4050   18.2960 F       1  UNL1       -0.1659
@<TRIPOS>BOND
     1    12    13    1
     2    13    14   ar
     3    14    15   ar
     4    15     1    1
     5     1     2   ar
     6     2     3   ar
     7     3     4   ar
     8     4     5   ar
     9     5     6   ar
    10     5     7    1
    11     7     8    1
    12     8     9    1
    13     9    10   am
    14    10    11    2
    15    10    25    1
    16    25    26    1
    17    26    27   ar
    18    27    28   ar
    19    28    29   ar
    20    29    30   ar
    21    30    32    1
    22    32    33    1
    23    32    34    1
    24    32    35    1
    25    30    31   ar
    26    15    16   ar
    27    16    17   ar
    28    17    18    1
    29    17    19   ar
    30    19    20   ar
    31    20    21   ar
    32    21    22   ar
    33    22    13   ar
    34     6     1   ar
    35    31    26   ar
    36    22    16   ar
    37     9     4    1
    38    18    23    1
    39    18    24    1
@<TRIPOS>MOLECULE
*****
 35 39 0 0 0
SMALL
GASTEIGER

@<TRIPOS>ATOM
      1 C           2.6900   -0.7572   19.6030 C.ar    1  UNL1        0.0014
      2 C           2.3714   -0.0149   18.3391 C.ar    1  UNL1        0.0013
      3 C           1.3942    1.1228   18.3635 C.ar    1  UNL1        0.0146
      4 C           0.7355    1.5182   19.6517 C.ar    1  UNL1        0.0499
      5 C           1.0540    0.7760   20.9157 C.ar    1  UNL1       -0.0068
      6 C           2.0312   -0.3617   20.8914 C.ar    1  UNL1       -0.0029
      7 C           0.2541    1.3885   22.0270 C.3     1  UNL1        0.0495
      8 C          -0.5588    2.5093   21.4499 C.3     1  UNL1        0.1029
      9 N          -0.2613    2.5894   19.9819 N.am    1  UNL1       -0.2583
     10 C          -0.8561    3.5689   19.0140 C.2     1  UNL1        0.2338
     11 O          -0.4608    3.5282   17.5676 O.2     1  UNL1       -0.2742
     12 C           4.8075   -5.5445   18.9112 C.3     1  UNL1        0.1319
     13 N           4.6406   -4.0953   19.2607 N.ar    1  UNL1       -0.3094
     14 C           3.3832   -3.2913   19.1104 C.ar    1  UNL1        0.0772
     15 C           3.6673   -1.8949   19.5787 C.ar    1  UNL1        0.0228
     16 C           5.1002   -1.8359   20.0183 C.ar    1  UNL1        0.0668
     17 C           5.9349   -0.7195   20.5722 C.ar    1  UNL1        0.1300
     18 N           5.3334    0.6405   20.7688 N.pl3   1  UNL1       -0.3425
     19 N           7.3712   -0.9630   20.9296 N.ar    1  UNL1       -0.2094
     20 C           7.9727   -2.3230   20.7331 C.ar    1  UNL1        0.2014
     21 N           7.1380   -3.4394   20.1792 N.ar    1  UNL1       -0.2065
     22 C           5.7017   -3.1958   19.8218 C.ar    1  UNL1        0.1483
     23 H           4.3907    0.8004   20.5342 H       1  UNL1        0.1437
     24 H           5.8812    1.3732   21.1323 H       1  UNL1        0.1437
     25 C          -1.8463    4.5891   19.4925 C.3     1  UNL1        0.1119
     26 C          -3.3090    4.2582   19.5225 C.ar    1  UNL1       -0.0131
     27 C          -4.0276    3.9198   18.2501 C.ar    1  UNL1       -0.0038
     28 C          -5.4903    3.5889   18.2801 C.ar    1  UNL1       -0.0004
     29 C          -6.2344    3.5963   19.5824 C.ar    1  UNL1        0.0038
     30 C          -5.5158    3.9346   20.8549 C.ar    1  UNL1        0.0711
     31 C          -4.0531    4.2656   20.8249 C.ar    1  UNL1        0.0001
     32 C          -6.2599    3.9420   22.1573 C.3     1  UNL1        0.4186
     33 F          -7.0041    3.9494   23.4597 F       1  UNL1       -0.1659
     34 F          -7.2693    4.8868   21.5752 F       1  UNL1       -0.1659
     35 F          -5.2506    2.9973   22.7393 F       1  UNL1       -0.1659
@<TRIPOS>BOND
     1    12    13    1
     2    13    14   ar
     3    14    15   ar
     4    15     1    1
     5     1     2   ar
     6     2     3   ar
     7     3     4   ar
     8     4     5   ar
     9     5     6   ar
    10     5     7    1
    11     7     8    1
    12     8     9    1
    13     9    10   am
    14    10    11    2
    15    10    25    1
    16    25    26    1
    17    26    27   ar
    18    27    28   ar
    19    28    29   ar
    20    29    30   ar
    21    30    32    1
    22    32    33    1
    23    32    34    1
    24    32    35    1
    25    30    31   ar
    26    15    16   ar
    27    16    17   ar
    28    17    18    1
    29    17    19   ar
    30    19    20   ar
    31    20    21   ar
    32    21    22   ar
    33    22    13   ar
    34     6     1   ar
    35    31    26   ar
    36    22    16   ar
    37     9     4    1
    38    18    23    1
    39    18    24    1
@<TRIPOS>MOLECULE
*****
 35 39 0 0 0
SMALL
GASTEIGER

@<TRIPOS>ATOM
      1 C           1.5755    1.8259   26.2536 C.ar    1  UNL1        0.0014
      2 C           0.3698    1.3565   25.4948 C.ar    1  UNL1        0.0013
      3 C           0.4358    1.1993   24.0045 C.ar    1  UNL1        0.0146
      4 C           1.7076    1.5115   23.2730 C.ar    1  UNL1        0.0499
      5 C           2.9134    1.9809   24.0317 C.ar    1  UNL1       -0.0068
      6 C           2.8474    2.1381   25.5220 C.ar    1  UNL1       -0.0029
      7 C           4.0205    2.2110   23.0463 C.3     1  UNL1        0.0495
      8 C           3.4990    1.8839   21.6784 C.3     1  UNL1        0.1029
      9 N           2.0696    1.4515   21.8186 N.am    1  UNL1       -0.2583
     10 C           1.1615    1.0327   20.7006 C.2     1  UNL1        0.2338
     11 O          -0.2514    0.6240   20.9950 O.2     1  UNL1       -0.2742
     12 C           0.6365    3.8056   31.0577 C.3     1  UNL1        0.1319
     13 N           1.0779    2.8930   29.9520 N.ar    1  UNL1       -0.3094
     14 C           0.9367    3.1565   28.4821 C.ar    1  UNL1        0.0772
     15 C           1.5095    1.9831   27.7439 C.ar    1  UNL1        0.0228
     16 C           2.0048    0.9945   28.7575 C.ar    1  UNL1        0.0668
     17 C           2.6643   -0.3450   28.6141 C.ar    1  UNL1        0.1300
     18 N           2.9311   -0.9074   27.2493 N.pl3   1  UNL1       -0.3425
     19 N           3.0570   -1.1222   29.8354 N.ar    1  UNL1       -0.2094
     20 C           2.7902   -0.5598   31.2002 C.ar    1  UNL1        0.2014
     21 N           2.1308    0.7797   31.3436 N.ar    1  UNL1       -0.2065
     22 C           1.7381    1.5569   30.1222 C.ar    1  UNL1        0.1483
     23 H           2.6733   -0.3973   26.4477 H       1  UNL1        0.1437
     24 H           3.3639   -1.7867   27.1552 H       1  UNL1        0.1437
     25 C           1.6663    1.0226   19.2880 C.3     1  UNL1        0.1119
     26 C           2.6292   -0.0380   18.8432 C.ar    1  UNL1       -0.0131
     27 C           3.5055    0.1977   17.6489 C.ar    1  UNL1       -0.0038
     28 C           4.4684   -0.8629   17.2041 C.ar    1  UNL1       -0.0004
     29 C           4.5550   -2.1593   17.9536 C.ar    1  UNL1        0.0038
     30 C           3.6787   -2.3950   19.1480 C.ar    1  UNL1        0.0711
     31 C           2.7158   -1.3344   19.5928 C.ar    1  UNL1        0.0001
     32 C           3.7653   -3.6915   19.8975 C.3     1  UNL1        0.4186
     33 F           3.8519   -4.9879   20.6471 F       1  UNL1       -0.1659
     34 F           3.9941   -2.9380   21.1743 F       1  UNL1       -0.1659
     35 F           3.5365   -4.4449   18.6208 F       1  UNL1       -0.1659
@<TRIPOS>BOND
     1    12    13    1
     2    13    14   ar
     3    14    15   ar
     4    15     1    1
     5     1     2   ar
     6     2     3   ar
     7     3     4   ar
     8     4     5   ar
     9     5     6   ar
    10     5     7    1
    11     7     8    1
    12     8     9    1
    13     9    10   am
    14    10    11    2
    15    10    25    1
    16    25    26    1
    17    26    27   ar
    18    27    28   ar
    19    28    29   ar
    20    29    30   ar
    21    30    32    1
    22    32    33    1
    23    32    34    1
    24    32    35    1
    25    30    31   ar
    26    15    16   ar
    27    16    17   ar
    28    17    18    1
    29    17    19   ar
    30    19    20   ar
    31    20    21   ar
    32    21    22   ar
    33    22    13   ar
    34     6     1   ar
    35    31    26   ar
    36    22    16   ar
    37     9     4    1
    38    18    23    1
    39    18    24    1
@<TRIPOS>MOLECULE
*****
 35 39 0 0 0
SMALL
GASTEIGER

@<TRIPOS>ATOM
      1 C           5.7040   -1.1772   33.8406 C.ar    1  UNL1        0.0014
      2 C           5.0545   -2.4133   33.2930 C.ar    1  UNL1        0.0013
      3 C           5.8250   -3.3266   32.3862 C.ar    1  UNL1        0.0146
      4 C           7.2451   -3.0037   32.0270 C.ar    1  UNL1        0.0499
      5 C           7.8947   -1.7675   32.5746 C.ar    1  UNL1       -0.0068
      6 C           7.1242   -0.8542   33.4814 C.ar    1  UNL1       -0.0029
      7 C           9.2983   -1.7096   32.0487 C.3     1  UNL1        0.0495
      8 C           9.5161   -2.9100   31.1760 C.3     1  UNL1        0.1029
      9 N           8.2472   -3.7098   31.1627 N.am    1  UNL1       -0.2583
     10 C           8.0203   -4.9908   30.4160 C.2     1  UNL1        0.2338
     11 O           6.6913   -5.6814   30.4981 O.2     1  UNL1       -0.2742
     12 C           3.8398    1.1960   38.1734 C.3     1  UNL1        0.1319
     13 N           4.0766    0.8269   36.7389 N.ar    1  UNL1       -0.3094
     14 C           5.0127   -0.2360   36.2451 C.ar    1  UNL1        0.0772
     15 C           4.9335   -0.2639   34.7474 C.ar    1  UNL1        0.0228
     16 C           3.9485    0.7818   34.3157 C.ar    1  UNL1        0.0668
     17 C           3.4655    1.2072   32.9609 C.ar    1  UNL1        0.1300
     18 N           3.9950    0.5330   31.7300 N.pl3   1  UNL1       -0.3425
     19 N           2.4528    2.3068   32.8369 N.ar    1  UNL1       -0.2094
     20 C           1.9232    2.9809   34.0677 C.ar    1  UNL1        0.2014
     21 N           2.4063    2.5556   35.4226 N.ar    1  UNL1       -0.2065
     22 C           3.4189    1.4560   35.5466 C.ar    1  UNL1        0.1483
     23 H           4.6597   -0.1887   31.8114 H       1  UNL1        0.1437
     24 H           3.6780    0.8122   30.8408 H       1  UNL1        0.1437
     25 C           9.1224   -5.5812   29.5872 C.3     1  UNL1        0.1119
     26 C           8.7931   -6.3812   28.3618 C.ar    1  UNL1       -0.0131
     27 C           8.9131   -7.8761   28.3875 C.ar    1  UNL1       -0.0038
     28 C           8.5838   -8.6761   27.1621 C.ar    1  UNL1       -0.0004
     29 C           8.1346   -7.9812   25.9111 C.ar    1  UNL1        0.0038
     30 C           8.0146   -6.4863   25.8854 C.ar    1  UNL1        0.0711
     31 C           8.3438   -5.6863   27.1107 C.ar    1  UNL1        0.0001
     32 C           7.5653   -5.7913   24.6343 C.3     1  UNL1        0.4186
     33 F           7.1160   -5.0964   23.3832 F       1  UNL1       -0.1659
     34 F           8.0144   -6.9679   23.8194 F       1  UNL1       -0.1659
     35 F           7.1162   -4.6147   25.4491 F       1  UNL1       -0.1659
@<TRIPOS>BOND
     1    12    13    1
     2    13    14   ar
     3    14    15   ar
     4    15     1    1
     5     1     2   ar
     6     2     3   ar
     7     3     4   ar
     8     4     5   ar
     9     5     6   ar
    10     5     7    1
    11     7     8    1
    12     8     9    1
    13     9    10   am
    14    10    11    2
    15    10    25    1
    16    25    26    1
    17    26    27   ar
    18    27    28   ar
    19    28    29   ar
    20    29    30   ar
    21    30    32    1
    22    32    33    1
    23    32    34    1
    24    32    35    1
    25    30    31   ar
    26    15    16   ar
    27    16    17   ar
    28    17    18    1
    29    17    19   ar
    30    19    20   ar
    31    20    21   ar
    32    21    22   ar
    33    22    13   ar
    34     6     1   ar
    35    31    26   ar
    36    22    16   ar
    37     9     4    1
    38    18    23    1
    39    18    24    1
@<TRIPOS>MOLECULE
*****
 35 39 0 0 0
SMALL
GASTEIGER

@<TRIPOS>ATOM
      1 C         -14.3692   -3.1765   18.6341 C.ar    1  UNL1        0.0014
      2 C         -15.3594   -2.9788   19.7433 C.ar    1  UNL1        0.0013
      3 C         -15.8577   -1.6016   20.0674 C.ar    1  UNL1        0.0146
      4 C         -15.3657   -0.4220   19.2823 C.ar    1  UNL1        0.0499
      5 C         -14.3754   -0.6196   18.1731 C.ar    1  UNL1       -0.0068
      6 C         -13.8772   -1.9968   17.8490 C.ar    1  UNL1       -0.0029
      7 C         -14.0729    0.7233   17.5771 C.3     1  UNL1        0.0495
      8 C         -14.8761    1.7508   18.3180 C.3     1  UNL1        0.1029
      9 N         -15.6751    1.0430   19.3718 N.am    1  UNL1       -0.2583
     10 C         -16.6180    1.6871   20.3445 C.2     1  UNL1        0.2338
     11 O         -17.3515    0.8461   21.3469 O.2     1  UNL1       -0.2742
     12 C         -14.2059   -8.2248   17.0951 C.3     1  UNL1        0.1319
     13 N         -13.7959   -6.8741   17.6026 N.ar    1  UNL1       -0.3094
     14 C         -14.6973   -5.6887   17.7818 C.ar    1  UNL1        0.0772
     15 C         -13.8709   -4.5537   18.3100 C.ar    1  UNL1        0.0228
     16 C         -12.4588   -5.0377   18.4573 C.ar    1  UNL1        0.0668
     17 C         -11.2092   -4.3578   18.9329 C.ar    1  UNL1        0.1300
     18 N         -11.2556   -2.9237   19.3702 N.pl3   1  UNL1       -0.3425
     19 N          -9.9133   -5.1121   18.9714 N.ar    1  UNL1       -0.2094
     20 C          -9.8669   -6.5462   18.5342 C.ar    1  UNL1        0.2014
     21 N         -11.1164   -7.2261   18.0585 N.ar    1  UNL1       -0.2065
     22 C         -12.4124   -6.4718   18.0200 C.ar    1  UNL1        0.1483
     23 H         -12.1062   -2.4287   19.3449 H       1  UNL1        0.1437
     24 H         -10.4355   -2.4775   19.6824 H       1  UNL1        0.1437
     25 C         -16.8274    3.1721   20.3147 C.3     1  UNL1        0.1119
     26 C         -15.9676    4.0678   21.1564 C.ar    1  UNL1       -0.0131
     27 C         -15.1156    5.1171   20.5061 C.ar    1  UNL1       -0.0038
     28 C         -14.2558    6.0128   21.3478 C.ar    1  UNL1       -0.0004
     29 C         -14.2481    5.8592   22.8399 C.ar    1  UNL1        0.0038
     30 C         -15.1001    4.8099   23.4903 C.ar    1  UNL1        0.0711
     31 C         -15.9599    3.9142   22.6486 C.ar    1  UNL1        0.0001
     32 C         -15.0924    4.6563   24.9824 C.3     1  UNL1        0.4186
     33 F         -15.0846    4.5028   26.4745 F       1  UNL1       -0.1659
     34 F         -13.5989    4.5185   24.9605 F       1  UNL1       -0.1659
     35 F         -16.5859    4.7942   25.0043 F       1  UNL1       -0.1659
@<TRIPOS>BOND
     1    12    13    1
     2    13    14   ar
     3    14    15   ar
     4    15     1    1
     5     1     2   ar
     6     2     3   ar
     7     3     4   ar
     8     4     5   ar
     9     5     6   ar
    10     5     7    1
    11     7     8    1
    12     8     9    1
    13     9    10   am
    14    10    11    2
    15    10    25    1
    16    25    26    1
    17    26    27   ar
    18    27    28   ar
    19    28    29   ar
    20    29    30   ar
    21    30    32    1
    22    32    33    1
    23    32    34    1
    24    32    35    1
    25    30    31   ar
    26    15    16   ar
    27    16    17   ar
    28    17    18    1
    29    17    19   ar
    30    19    20   ar
    31    20    21   ar
    32    21    22   ar
    33    22    13   ar
    34     6     1   ar
    35    31    26   ar
    36    22    16   ar
    37     9     4    1
    38    18    23    1
    39    18    24    1
@<TRIPOS>MOLECULE
*****
 35 39 0 0 0
SMALL
GASTEIGER

@<TRIPOS>ATOM
      1 C           4.8758   -0.5813   33.2585 C.ar    1  UNL1        0.0014
      2 C           4.4213   -2.0062   33.3713 C.ar    1  UNL1        0.0013
      3 C           5.2710   -3.1108   32.8163 C.ar    1  UNL1        0.0146
      4 C           6.5753   -2.7903   32.1485 C.ar    1  UNL1        0.0499
      5 C           7.0300   -1.3654   32.0357 C.ar    1  UNL1       -0.0068
      6 C           6.1803   -0.2608   32.5907 C.ar    1  UNL1       -0.0029
      7 C           8.3532   -1.3555   31.3294 C.3     1  UNL1        0.0495
      8 C           8.7164   -2.7745   31.0057 C.3     1  UNL1        0.1029
      9 N           7.6176   -3.6612   31.5119 N.am    1  UNL1       -0.2583
     10 C           7.5695   -5.1563   31.4011 C.2     1  UNL1        0.2338
     11 O           6.3995   -5.9124   31.9573 O.2     1  UNL1       -0.2742
     12 C           1.3487    3.3286   33.6498 C.3     1  UNL1        0.1319
     13 N           2.4049    2.3204   33.9934 N.ar    1  UNL1       -0.3094
     14 C           3.0191    1.3302   33.0488 C.ar    1  UNL1        0.0772
     15 C           4.0261    0.5232   33.8135 C.ar    1  UNL1        0.0228
     16 C           4.0343    1.0147   35.2307 C.ar    1  UNL1        0.0668
     17 C           4.8246    0.5944   36.4343 C.ar    1  UNL1        0.1300
     18 N           5.8266   -0.5164   36.3231 N.pl3   1  UNL1       -0.3425
     19 N           4.6130    1.2847   37.7490 N.ar    1  UNL1       -0.2094
     20 C           3.6110    2.3954   37.8601 C.ar    1  UNL1        0.2014
     21 N           2.8207    2.8158   36.6566 N.ar    1  UNL1       -0.2065
     22 C           3.0323    2.1254   35.3418 C.ar    1  UNL1        0.1483
     23 H           5.9655   -0.9695   35.4602 H       1  UNL1        0.1437
     24 H           6.3453   -0.7922   37.1131 H       1  UNL1        0.1437
     25 C           8.6915   -5.8954   30.7339 C.3     1  UNL1        0.1119
     26 C           8.5208   -6.4167   29.3379 C.ar    1  UNL1       -0.0131
     27 C           9.0529   -7.7706   28.9725 C.ar    1  UNL1       -0.0038
     28 C           8.8821   -8.2920   27.5765 C.ar    1  UNL1       -0.0004
     29 C           8.1793   -7.4593   26.5457 C.ar    1  UNL1        0.0038
     30 C           7.6471   -6.1053   26.9110 C.ar    1  UNL1        0.0711
     31 C           7.8179   -5.5840   28.3070 C.ar    1  UNL1        0.0001
     32 C           6.9442   -5.2726   25.8802 C.3     1  UNL1        0.4186
     33 F           6.2413   -4.4398   24.8493 F       1  UNL1       -0.1659
     34 F           6.4774   -4.3361   26.9550 F       1  UNL1       -0.1659
     35 F           7.4111   -6.2090   24.8053 F       1  UNL1       -0.1659
@<TRIPOS>BOND
     1    12    13    1
     2    13    14   ar
     3    14    15   ar
     4    15     1    1
     5     1     2   ar
     6     2     3   ar
     7     3     4   ar
     8     4     5   ar
     9     5     6   ar
    10     5     7    1
    11     7     8    1
    12     8     9    1
    13     9    10   am
    14    10    11    2
    15    10    25    1
    16    25    26    1
    17    26    27   ar
    18    27    28   ar
    19    28    29   ar
    20    29    30   ar
    21    30    32    1
    22    32    33    1
    23    32    34    1
    24    32    35    1
    25    30    31   ar
    26    15    16   ar
    27    16    17   ar
    28    17    18    1
    29    17    19   ar
    30    19    20   ar
    31    20    21   ar
    32    21    22   ar
    33    22    13   ar
    34     6     1   ar
    35    31    26   ar
    36    22    16   ar
    37     9     4    1
    38    18    23    1
    39    18    24    1
@<TRIPOS>MOLECULE
*****
 35 39 0 0 0
SMALL
GASTEIGER

@<TRIPOS>ATOM
      1 C           6.9641   -2.8640   26.4078 C.ar    1  UNL1        0.0014
      2 C           7.6752   -3.7063   25.3907 C.ar    1  UNL1        0.0013
      3 C           7.1424   -3.8026   23.9918 C.ar    1  UNL1        0.0146
      4 C           5.8984   -3.0564   23.6101 C.ar    1  UNL1        0.0499
      5 C           5.1873   -2.2140   24.6272 C.ar    1  UNL1       -0.0068
      6 C           5.7200   -2.1178   26.0261 C.ar    1  UNL1       -0.0029
      7 C           3.9919   -1.5968   23.9638 C.3     1  UNL1        0.0495
      8 C           3.9643   -2.0578   22.5366 C.3     1  UNL1        0.1029
      9 N           5.1426   -2.9599   22.3181 N.am    1  UNL1       -0.2583
     10 C           5.5019   -3.6451   21.0330 C.2     1  UNL1        0.2338
     11 O           6.7169   -4.5222   20.9651 O.2     1  UNL1       -0.2742
     12 C           9.4041   -1.0895   30.7412 C.3     1  UNL1        0.1319
     13 N           8.6184   -1.9521   29.7985 N.ar    1  UNL1       -0.3094
     14 C           8.2982   -1.6310   28.3687 C.ar    1  UNL1        0.0772
     15 C           7.4969   -2.7677   27.8067 C.ar    1  UNL1        0.0228
     16 C           7.3219   -3.7913   28.8892 C.ar    1  UNL1        0.0668
     17 C           6.6210   -5.1172   28.9129 C.ar    1  UNL1        0.1300
     18 N           5.9278   -5.6213   27.6819 N.pl3   1  UNL1       -0.3425
     19 N           6.6132   -5.9390   30.1677 N.ar    1  UNL1       -0.2094
     20 C           7.3063   -5.4349   31.3987 C.ar    1  UNL1        0.2014
     21 N           8.0073   -4.1090   31.3750 N.ar    1  UNL1       -0.2065
     22 C           8.0150   -3.2872   30.1202 C.ar    1  UNL1        0.1483
     23 H           5.9329   -5.0819   26.8583 H       1  UNL1        0.1437
     24 H           5.4678   -6.4915   27.6975 H       1  UNL1        0.1437
     25 C           4.6464   -3.4532   19.8159 C.3     1  UNL1        0.1119
     26 C           4.8890   -2.2866   18.9049 C.ar    1  UNL1       -0.0131
     27 C           3.8086   -1.8261   17.9719 C.ar    1  UNL1       -0.0038
     28 C           4.0513   -0.6594   17.0609 C.ar    1  UNL1       -0.0004
     29 C           5.3744    0.0467   17.0828 C.ar    1  UNL1        0.0038
     30 C           6.4549   -0.4137   18.0158 C.ar    1  UNL1        0.0711
     31 C           6.2122   -1.5804   18.9268 C.ar    1  UNL1        0.0001
     32 C           7.7781    0.2924   18.0377 C.3     1  UNL1        0.4186
     33 F           9.1013    0.9986   18.0596 F       1  UNL1       -0.1659
     34 F           8.0345   -0.2308   19.4199 F       1  UNL1       -0.1659
     35 F           7.5218    0.8157   16.6555 F       1  UNL1       -0.1659
@<TRIPOS>BOND
     1    12    13    1
     2    13    14   ar
     3    14    15   ar
     4    15     1    1
     5     1     2   ar
     6     2     3   ar
     7     3     4   ar
     8     4     5   ar
     9     5     6   ar
    10     5     7    1
    11     7     8    1
    12     8     9    1
    13     9    10   am
    14    10    11    2
    15    10    25    1
    16    25    26    1
    17    26    27   ar
    18    27    28   ar
    19    28    29   ar
    20    29    30   ar
    21    30    32    1
    22    32    33    1
    23    32    34    1
    24    32    35    1
    25    30    31   ar
    26    15    16   ar
    27    16    17   ar
    28    17    18    1
    29    17    19   ar
    30    19    20   ar
    31    20    21   ar
    32    21    22   ar
    33    22    13   ar
    34     6     1   ar
    35    31    26   ar
    36    22    16   ar
    37     9     4    1
    38    18    23    1
    39    18    24    1
@<TRIPOS>MOLECULE
*****
 35 39 0 0 0
SMALL
GASTEIGER

@<TRIPOS>ATOM
      1 C           2.4725   -0.3828   19.8865 C.ar    1  UNL1        0.0014
      2 C           2.0408   -0.1732   21.3076 C.ar    1  UNL1        0.0013
      3 C           1.0348    0.8897   21.6368 C.ar    1  UNL1        0.0146
      4 C           0.4605    1.7429   20.5449 C.ar    1  UNL1        0.0499
      5 C           0.8922    1.5332   19.1238 C.ar    1  UNL1       -0.0068
      6 C           1.8982    0.4704   18.7946 C.ar    1  UNL1       -0.0029
      7 C           0.1580    2.5205   18.2659 C.3     1  UNL1        0.0495
      8 C          -0.7276    3.3404   19.1568 C.3     1  UNL1        0.1029
      9 N          -0.5406    2.8597   20.5653 N.am    1  UNL1       -0.2583
     10 C          -1.2331    3.4010   21.7808 C.2     1  UNL1        0.2338
     11 O          -0.9434    2.8166   23.1316 O.2     1  UNL1       -0.2742
     12 C           4.6504   -5.0568   18.7502 C.3     1  UNL1        0.1319
     13 N           4.4795   -3.5940   19.0350 N.ar    1  UNL1       -0.3094
     14 C           3.1847   -2.9002   19.3384 C.ar    1  UNL1        0.0772
     15 C           3.4785   -1.4457   19.5573 C.ar    1  UNL1        0.0228
     16 C           4.9548   -1.2405   19.3892 C.ar    1  UNL1        0.0668
     17 C           5.8157   -0.0162   19.4883 C.ar    1  UNL1        0.1300
     18 N           5.1970    1.3116   19.8112 N.pl3   1  UNL1       -0.3425
     19 N           7.2953   -0.1197   19.2647 N.ar    1  UNL1       -0.2094
     20 C           7.9140   -1.4474   18.9418 C.ar    1  UNL1        0.2014
     21 N           7.0531   -2.6717   18.8427 N.ar    1  UNL1       -0.2065
     22 C           5.5735   -2.5683   19.0664 C.ar    1  UNL1        0.1483
     23 H           4.2259    1.3795   19.9580 H       1  UNL1        0.1437
     24 H           5.7621    2.1152   19.8762 H       1  UNL1        0.1437
     25 C          -2.2153    4.5266   21.6455 C.3     1  UNL1        0.1119
     26 C          -3.5738    4.4160   22.2718 C.ar    1  UNL1       -0.0131
     27 C          -4.7629    4.0666   21.4270 C.ar    1  UNL1       -0.0038
     28 C          -6.1214    3.9560   22.0533 C.ar    1  UNL1       -0.0004
     29 C          -6.2908    4.1947   23.5243 C.ar    1  UNL1        0.0038
     30 C          -5.1016    4.5441   24.3693 C.ar    1  UNL1        0.0711
     31 C          -3.7431    4.6547   23.7430 C.ar    1  UNL1        0.0001
     32 C          -5.2710    4.7828   25.8404 C.3     1  UNL1        0.4186
     33 F          -5.4404    5.0215   27.3116 F       1  UNL1       -0.1659
     34 F          -4.5022    3.5283   26.1325 F       1  UNL1       -0.1659
     35 F          -6.0398    6.0373   25.5484 F       1  UNL1       -0.1659
@<TRIPOS>BOND
     1    12    13    1
     2    13    14   ar
     3    14    15   ar
     4    15     1    1
     5     1     2   ar
     6     2     3   ar
     7     3     4   ar
     8     4     5   ar
     9     5     6   ar
    10     5     7    1
    11     7     8    1
    12     8     9    1
    13     9    10   am
    14    10    11    2
    15    10    25    1
    16    25    26    1
    17    26    27   ar
    18    27    28   ar
    19    28    29   ar
    20    29    30   ar
    21    30    32    1
    22    32    33    1
    23    32    34    1
    24    32    35    1
    25    30    31   ar
    26    15    16   ar
    27    16    17   ar
    28    17    18    1
    29    17    19   ar
    30    19    20   ar
    31    20    21   ar
    32    21    22   ar
    33    22    13   ar
    34     6     1   ar
    35    31    26   ar
    36    22    16   ar
    37     9     4    1
    38    18    23    1
    39    18    24    1
@<TRIPOS>MOLECULE
*****
 35 39 0 0 0
SMALL
GASTEIGER

@<TRIPOS>ATOM
      1 C           2.6077   -0.4366   19.9973 C.ar    1  UNL1        0.0014
      2 C           2.2684   -0.1768   21.4350 C.ar    1  UNL1        0.0013
      3 C           1.2922    0.9048   21.7917 C.ar    1  UNL1        0.0146
      4 C           0.6554    1.7267   20.7106 C.ar    1  UNL1        0.0499
      5 C           0.9947    1.4670   19.2728 C.ar    1  UNL1       -0.0068
      6 C           1.9708    0.3854   18.9161 C.ar    1  UNL1       -0.0029
      7 C           0.2139    2.4319   18.4306 C.3     1  UNL1        0.0495
      8 C          -0.6080    3.2880   19.3480 C.3     1  UNL1        0.1029
      9 N          -0.3351    2.8522   20.7571 N.am    1  UNL1       -0.2583
     10 C          -0.9456    3.4388   21.9953 C.2     1  UNL1        0.2338
     11 O          -0.5747    2.8964   23.3437 O.2     1  UNL1       -0.2742
     12 C           4.6563   -5.1403   18.7487 C.3     1  UNL1        0.1319
     13 N           4.5255   -3.6802   19.0667 N.ar    1  UNL1       -0.3094
     14 C           3.2506   -2.9592   19.3905 C.ar    1  UNL1        0.0772
     15 C           3.5839   -1.5182   19.6406 C.ar    1  UNL1        0.0228
     16 C           5.0646   -1.3487   19.4714 C.ar    1  UNL1        0.0668
     17 C           5.9582   -0.1503   19.5945 C.ar    1  UNL1        0.1300
     18 N           5.3763    1.1860   19.9492 N.pl3   1  UNL1       -0.3425
     19 N           7.4338   -0.2881   19.3629 N.ar    1  UNL1       -0.2094
     20 C           8.0157   -1.6243   19.0082 C.ar    1  UNL1        0.2014
     21 N           7.1221   -2.8227   18.8851 N.ar    1  UNL1       -0.2065
     22 C           5.6466   -2.6849   19.1167 C.ar    1  UNL1        0.1483
     23 H           4.4078    1.2764   20.1012 H       1  UNL1        0.1437
     24 H           5.9628    1.9725   20.0300 H       1  UNL1        0.1437
     25 C          -1.9271    4.5678   21.8851 C.3     1  UNL1        0.1119
     26 C          -3.3965    4.3006   22.0247 C.ar    1  UNL1       -0.0131
     27 C          -3.9806    4.0076   23.3748 C.ar    1  UNL1       -0.0038
     28 C          -5.4500    3.7404   23.5143 C.ar    1  UNL1       -0.0004
     29 C          -6.3352    3.7661   22.3038 C.ar    1  UNL1        0.0038
     30 C          -5.7512    4.0590   20.9536 C.ar    1  UNL1        0.0711
     31 C          -4.2818    4.3263   20.8140 C.ar    1  UNL1        0.0001
     32 C          -6.6365    4.0847   19.7430 C.3     1  UNL1        0.4186
     33 F          -7.5218    4.1104   18.5323 F       1  UNL1       -0.1659
     34 F          -5.9671    2.8454   19.2271 F       1  UNL1       -0.1659
     35 F          -7.3059    5.3240   20.2588 F       1  UNL1       -0.1659
@<TRIPOS>BOND
     1    12    13    1
     2    13    14   ar
     3    14    15   ar
     4    15     1    1
     5     1     2   ar
     6     2     3   ar
     7     3     4   ar
     8     4     5   ar
     9     5     6   ar
    10     5     7    1
    11     7     8    1
    12     8     9    1
    13     9    10   am
    14    10    11    2
    15    10    25    1
    16    25    26    1
    17    26    27   ar
    18    27    28   ar
    19    28    29   ar
    20    29    30   ar
    21    30    32    1
    22    32    33    1
    23    32    34    1
    24    32    35    1
    25    30    31   ar
    26    15    16   ar
    27    16    17   ar
    28    17    18    1
    29    17    19   ar
    30    19    20   ar
    31    20    21   ar
    32    21    22   ar
    33    22    13   ar
    34     6     1   ar
    35    31    26   ar
    36    22    16   ar
    37     9     4    1
    38    18    23    1
    39    18    24    1
