@<TRIPOS>MOLECULE
*****
 25 29 0 0 0
SMALL
GASTEIGER

@<TRIPOS>ATOM
      1 C         -10.9073   -5.7569   18.7640 C.ar    1  UNL1        0.1726
      2 C         -12.1674   -6.2968   19.3728 C.ar    1  UNL1        0.0401
      3 C         -13.3283   -5.3821   19.6294 C.ar    1  UNL1        0.0037
      4 C         -13.2290   -3.9274   19.2770 C.ar    1  UNL1        0.0150
      5 C         -14.3897   -3.0126   19.5334 C.ar    1  UNL1        0.0695
      6 C         -14.2904   -1.5580   19.1810 C.ar    1  UNL1        0.2260
      7 N         -13.0303   -1.0181   18.5722 N.ar    1  UNL1       -0.1641
      8 C         -11.8696   -1.9329   18.3157 C.ar    1  UNL1        0.2929
      9 C         -11.9689   -3.3876   18.6681 C.ar    1  UNL1        0.1068
     10 C         -10.8081   -4.3022   18.4116 C.ar    1  UNL1        0.1782
     11 C         -12.9311    0.4365   18.2198 C.3     1  UNL1        0.3269
     12 C         -14.0918    1.3513   18.4763 C.3     1  UNL1        0.1119
     13 C         -15.3520    0.8114   19.0852 C.ar    1  UNL1       -0.0062
     14 C         -16.5127    1.7261   19.3416 C.ar    1  UNL1        0.0363
     15 C         -17.7728    1.1863   19.9504 C.ar    1  UNL1        0.1761
     16 C         -17.8722   -0.2684   20.3028 C.ar    1  UNL1        0.1766
     17 C         -16.7114   -1.1831   20.0464 C.ar    1  UNL1        0.0458
     18 C         -15.4513   -0.6432   19.4375 C.ar    1  UNL1        0.0630
     19 O         -19.2321   -0.5121   20.8869 O.3     1  UNL1       -0.4346
     20 C         -19.9733    0.7920   20.8954 C.3     1  UNL1        0.4294
     21 O         -19.0714    1.8416   20.3167 O.3     1  UNL1       -0.4346
     22 C          -9.9854   -8.0601   17.9925 C.3     1  UNL1        0.2526
     23 O          -9.7466   -6.6717   18.5075 O.3     1  UNL1       -0.4684
     24 O          -9.5480   -3.7624   17.8028 O.3     1  UNL1       -0.4682
     25 C          -9.2943   -3.9275   16.3337 C.3     1  UNL1        0.2526
@<TRIPOS>UNITY_ATOM_ATTR
7 1
charge 1
@<TRIPOS>BOND
     1    22    23    1
     2    23     1    1
     3     1     2   ar
     4     2     3   ar
     5     3     4   ar
     6     4     5   ar
     7     5     6   ar
     8     6     7   ar
     9     7     8   ar
    10     8     9   ar
    11     9    10   ar
    12    10    24    1
    13    24    25    1
    14     7    11    1
    15    11    12    1
    16    12    13    1
    17    13    14   ar
    18    14    15   ar
    19    15    16   ar
    20    16    17   ar
    21    17    18   ar
    22    16    19    1
    23    19    20    1
    24    20    21    1
    25    10     1   ar
    26    18    13   ar
    27     9     4   ar
    28    21    15    1
    29    18     6    1
@<TRIPOS>MOLECULE
*****
 25 29 0 0 0
SMALL
GASTEIGER

@<TRIPOS>ATOM
      1 C         -10.7389   -5.7611   18.9785 C.ar    1  UNL1        0.1726
      2 C          -9.9572   -4.5035   18.7392 C.ar    1  UNL1        0.0401
      3 C         -10.6617   -3.1801   18.6912 C.ar    1  UNL1        0.0037
      4 C         -12.1479   -3.1143   18.8827 C.ar    1  UNL1        0.0150
      5 C         -12.8525   -1.7909   18.8348 C.ar    1  UNL1        0.0695
      6 C         -14.3388   -1.7252   19.0263 C.ar    1  UNL1        0.2260
      7 N         -15.1205   -2.9828   19.2657 N.ar    1  UNL1       -0.1641
      8 C         -14.4160   -4.3061   19.3136 C.ar    1  UNL1        0.2929
      9 C         -12.9297   -4.3719   19.1221 C.ar    1  UNL1        0.1068
     10 C         -12.2252   -5.6953   19.1700 C.ar    1  UNL1        0.1782
     11 C         -16.6068   -2.9169   19.4571 C.3     1  UNL1        0.3269
     12 C         -17.3114   -1.5935   19.4092 C.3     1  UNL1        0.1119
     13 C         -16.5295   -0.3359   19.1698 C.ar    1  UNL1       -0.0062
     14 C         -17.2341    0.9875   19.1219 C.ar    1  UNL1        0.0363
     15 C         -16.4523    2.2450   18.8825 C.ar    1  UNL1        0.1761
     16 C         -14.9660    2.1793   18.6911 C.ar    1  UNL1        0.1766
     17 C         -14.2615    0.8559   18.7390 C.ar    1  UNL1        0.0458
     18 C         -15.0433   -0.4017   18.9784 C.ar    1  UNL1        0.0630
     19 O         -14.4643    3.5761   18.4741 O.3     1  UNL1       -0.4346
     20 C         -15.6405    4.5052   18.5315 C.3     1  UNL1        0.4294
     21 O         -16.8692    3.6826   18.7839 O.3     1  UNL1       -0.4346
     22 C         -10.0345   -7.9783   17.8218 C.3     1  UNL1        0.2526
     23 O         -10.0344   -7.0845   19.0265 O.3     1  UNL1       -0.4684
     24 O         -13.0070   -6.9529   19.4094 O.3     1  UNL1       -0.4682
     25 C         -13.5976   -7.7007   18.2511 C.3     1  UNL1        0.2526
@<TRIPOS>UNITY_ATOM_ATTR
7 1
charge 1
@<TRIPOS>BOND
     1    22    23    1
     2    23     1    1
     3     1     2   ar
     4     2     3   ar
     5     3     4   ar
     6     4     5   ar
     7     5     6   ar
     8     6     7   ar
     9     7     8   ar
    10     8     9   ar
    11     9    10   ar
    12    10    24    1
    13    24    25    1
    14     7    11    1
    15    11    12    1
    16    12    13    1
    17    13    14   ar
    18    14    15   ar
    19    15    16   ar
    20    16    17   ar
    21    17    18   ar
    22    16    19    1
    23    19    20    1
    24    20    21    1
    25    10     1   ar
    26    18    13   ar
    27     9     4   ar
    28    21    15    1
    29    18     6    1
@<TRIPOS>MOLECULE
*****
 25 29 0 0 0
SMALL
GASTEIGER

@<TRIPOS>ATOM
      1 C         -10.9677   -5.5686   18.7175 C.ar    1  UNL1        0.1726
      2 C         -10.0038   -4.7593   17.9015 C.ar    1  UNL1        0.0401
      3 C         -10.3117   -3.3269   17.5796 C.ar    1  UNL1        0.0037
      4 C         -11.5836   -2.7040   18.0737 C.ar    1  UNL1        0.0150
      5 C         -11.8917   -1.2717   17.7518 C.ar    1  UNL1        0.0695
      6 C         -13.1636   -0.6487   18.2459 C.ar    1  UNL1        0.2260
      7 N         -14.1275   -1.4580   19.0619 N.ar    1  UNL1       -0.1641
      8 C         -13.8195   -2.8903   19.3838 C.ar    1  UNL1        0.2929
      9 C         -12.5475   -3.5133   18.8897 C.ar    1  UNL1        0.1068
     10 C         -12.2396   -4.9456   19.2116 C.ar    1  UNL1        0.1782
     11 C         -15.3994   -0.8350   19.5560 C.3     1  UNL1        0.3269
     12 C         -15.7074    0.5973   19.2341 C.3     1  UNL1        0.1119
     13 C         -14.7435    1.4066   18.4181 C.ar    1  UNL1       -0.0062
     14 C         -15.0515    2.8389   18.0962 C.ar    1  UNL1        0.0363
     15 C         -14.0876    3.6483   17.2802 C.ar    1  UNL1        0.1761
     16 C         -12.8157    3.0253   16.7861 C.ar    1  UNL1        0.1766
     17 C         -12.5076    1.5930   17.1080 C.ar    1  UNL1        0.0458
     18 C         -13.4716    0.7837   17.9240 C.ar    1  UNL1        0.0630
     19 O         -12.0624    4.0636   16.0086 O.3     1  UNL1       -0.4346
     20 C         -12.8689    5.3283   16.0222 C.3     1  UNL1        0.4294
     21 O         -14.1205    5.0716   16.8080 O.3     1  UNL1       -0.4346
     22 C          -9.2474   -7.5004   18.9606 C.3     1  UNL1        0.2526
     23 O         -10.6596   -7.0009   19.0394 O.3     1  UNL1       -0.4684
     24 O         -13.2035   -5.7549   20.0276 O.3     1  UNL1       -0.4682
     25 C         -14.3248   -6.4887   19.3538 C.3     1  UNL1        0.2526
@<TRIPOS>UNITY_ATOM_ATTR
7 1
charge 1
@<TRIPOS>BOND
     1    22    23    1
     2    23     1    1
     3     1     2   ar
     4     2     3   ar
     5     3     4   ar
     6     4     5   ar
     7     5     6   ar
     8     6     7   ar
     9     7     8   ar
    10     8     9   ar
    11     9    10   ar
    12    10    24    1
    13    24    25    1
    14     7    11    1
    15    11    12    1
    16    12    13    1
    17    13    14   ar
    18    14    15   ar
    19    15    16   ar
    20    16    17   ar
    21    17    18   ar
    22    16    19    1
    23    19    20    1
    24    20    21    1
    25    10     1   ar
    26    18    13   ar
    27     9     4   ar
    28    21    15    1
    29    18     6    1
@<TRIPOS>MOLECULE
*****
 25 29 0 0 0
SMALL
GASTEIGER

@<TRIPOS>ATOM
      1 C         -10.6296   -5.5087   18.3833 C.ar    1  UNL1        0.1726
      2 C         -10.2595   -4.0743   18.6189 C.ar    1  UNL1        0.0401
      3 C         -11.3232   -3.0700   18.9509 C.ar    1  UNL1        0.0037
      4 C         -12.7569   -3.5003   19.0472 C.ar    1  UNL1        0.0150
      5 C         -13.8206   -2.4961   19.3792 C.ar    1  UNL1        0.0695
      6 C         -15.2544   -2.9264   19.4756 C.ar    1  UNL1        0.2260
      7 N         -15.6244   -4.3608   19.2399 N.ar    1  UNL1       -0.1641
      8 C         -14.5607   -5.3649   18.9080 C.ar    1  UNL1        0.2929
      9 C         -13.1270   -4.9347   18.8116 C.ar    1  UNL1        0.1068
     10 C         -12.0634   -5.9389   18.4796 C.ar    1  UNL1        0.1782
     11 C         -17.0582   -4.7909   19.3363 C.3     1  UNL1        0.3269
     12 C         -18.1219   -3.7868   19.6683 C.3     1  UNL1        0.1119
     13 C         -17.7518   -2.3523   19.9039 C.ar    1  UNL1       -0.0062
     14 C         -18.8154   -1.3482   20.2359 C.ar    1  UNL1        0.0363
     15 C         -18.4454    0.0862   20.4715 C.ar    1  UNL1        0.1761
     16 C         -17.0116    0.5165   20.3752 C.ar    1  UNL1        0.1766
     17 C         -15.9480   -0.4877   20.0432 C.ar    1  UNL1        0.0458
     18 C         -16.3181   -1.9221   19.8076 C.ar    1  UNL1        0.0630
     19 O         -16.9494    1.9884   20.6571 O.3     1  UNL1       -0.4346
     20 C         -18.3447    2.4679   20.9276 C.3     1  UNL1        0.4294
     21 O         -19.2693    1.2923   20.8130 O.3     1  UNL1       -0.4346
     22 C          -9.2961   -7.6559   18.9844 C.3     1  UNL1        0.2526
     23 O          -9.5659   -6.5129   18.0513 O.3     1  UNL1       -0.4684
     24 O         -12.4335   -7.3733   18.2440 O.3     1  UNL1       -0.4682
     25 C         -12.6559   -7.8706   16.8464 C.3     1  UNL1        0.2526
@<TRIPOS>UNITY_ATOM_ATTR
7 1
charge 1
@<TRIPOS>BOND
     1    22    23    1
     2    23     1    1
     3     1     2   ar
     4     2     3   ar
     5     3     4   ar
     6     4     5   ar
     7     5     6   ar
     8     6     7   ar
     9     7     8   ar
    10     8     9   ar
    11     9    10   ar
    12    10    24    1
    13    24    25    1
    14     7    11    1
    15    11    12    1
    16    12    13    1
    17    13    14   ar
    18    14    15   ar
    19    15    16   ar
    20    16    17   ar
    21    17    18   ar
    22    16    19    1
    23    19    20    1
    24    20    21    1
    25    10     1   ar
    26    18    13   ar
    27     9     4   ar
    28    21    15    1
    29    18     6    1
@<TRIPOS>MOLECULE
*****
 25 29 0 0 0
SMALL
GASTEIGER

@<TRIPOS>ATOM
      1 C           7.4297   -4.7935   23.6598 C.ar    1  UNL1        0.1726
      2 C           6.5423   -4.1146   24.6606 C.ar    1  UNL1        0.0401
      3 C           5.4834   -3.1584   24.1973 C.ar    1  UNL1        0.0037
      4 C           5.3119   -2.8812   22.7332 C.ar    1  UNL1        0.0150
      5 C           4.2531   -1.9251   22.2698 C.ar    1  UNL1        0.0695
      6 C           4.0817   -1.6479   20.8057 C.ar    1  UNL1        0.2260
      7 N           4.9691   -2.3267   19.8049 N.ar    1  UNL1       -0.1641
      8 C           6.0279   -3.2828   20.2682 C.ar    1  UNL1        0.2929
      9 C           6.1993   -3.5601   21.7324 C.ar    1  UNL1        0.1068
     10 C           7.2582   -4.5162   22.1956 C.ar    1  UNL1        0.1782
     11 C           4.7976   -2.0494   18.3407 C.3     1  UNL1        0.3269
     12 C           3.7387   -1.0933   17.8773 C.3     1  UNL1        0.1119
     13 C           2.8513   -0.4145   18.8782 C.ar    1  UNL1       -0.0062
     14 C           1.7925    0.5416   18.4149 C.ar    1  UNL1        0.0363
     15 C           0.9051    1.2205   19.4157 C.ar    1  UNL1        0.1761
     16 C           1.0765    0.9433   20.8799 C.ar    1  UNL1        0.1766
     17 C           2.1353   -0.0128   21.3432 C.ar    1  UNL1        0.0458
     18 C           3.0228   -0.6917   20.3423 C.ar    1  UNL1        0.0630
     19 O           0.0608    1.7553   21.6275 O.3     1  UNL1       -0.4346
     20 C          -0.7383    2.5345   20.6253 C.3     1  UNL1        0.4294
     21 O          -0.2166    2.2039   19.2584 O.3     1  UNL1       -0.4346
     22 C           8.1410   -7.1856   24.3822 C.3     1  UNL1        0.2526
     23 O           8.4885   -5.7496   24.1232 O.3     1  UNL1       -0.4684
     24 O           8.1456   -5.1950   21.1948 O.3     1  UNL1       -0.4682
     25 C           9.4757   -4.5968   20.8444 C.3     1  UNL1        0.2526
@<TRIPOS>UNITY_ATOM_ATTR
7 1
charge 1
@<TRIPOS>BOND
     1    22    23    1
     2    23     1    1
     3     1     2   ar
     4     2     3   ar
     5     3     4   ar
     6     4     5   ar
     7     5     6   ar
     8     6     7   ar
     9     7     8   ar
    10     8     9   ar
    11     9    10   ar
    12    10    24    1
    13    24    25    1
    14     7    11    1
    15    11    12    1
    16    12    13    1
    17    13    14   ar
    18    14    15   ar
    19    15    16   ar
    20    16    17   ar
    21    17    18   ar
    22    16    19    1
    23    19    20    1
    24    20    21    1
    25    10     1   ar
    26    18    13   ar
    27     9     4   ar
    28    21    15    1
    29    18     6    1
@<TRIPOS>MOLECULE
*****
 25 29 0 0 0
SMALL
GASTEIGER

@<TRIPOS>ATOM
      1 C           3.2852   -0.8738   19.5049 C.ar    1  UNL1        0.1726
      2 C           2.6835   -0.8181   20.8779 C.ar    1  UNL1        0.0401
      3 C           3.3307   -1.5579   22.0110 C.ar    1  UNL1        0.0037
      4 C           4.5795   -2.3535   21.7711 C.ar    1  UNL1        0.0150
      5 C           5.2266   -3.0934   22.9042 C.ar    1  UNL1        0.0695
      6 C           6.4754   -3.8890   22.6643 C.ar    1  UNL1        0.2260
      7 N           7.0771   -3.9447   21.2914 N.ar    1  UNL1       -0.1641
      8 C           6.4299   -3.2049   20.1583 C.ar    1  UNL1        0.2929
      9 C           5.1811   -2.4093   20.3982 C.ar    1  UNL1        0.1068
     10 C           4.5340   -1.6695   19.2651 C.ar    1  UNL1        0.1782
     11 C           8.3259   -4.7403   21.0516 C.3     1  UNL1        0.3269
     12 C           8.9731   -5.4802   22.1846 C.3     1  UNL1        0.1119
     13 C           8.3714   -5.4244   23.5575 C.ar    1  UNL1       -0.0062
     14 C           9.0185   -6.1642   24.6906 C.ar    1  UNL1        0.0363
     15 C           8.4169   -6.1085   26.0635 C.ar    1  UNL1        0.1761
     16 C           7.1681   -5.3129   26.3034 C.ar    1  UNL1        0.1766
     17 C           6.5209   -4.5731   25.1704 C.ar    1  UNL1        0.0458
     18 C           7.1226   -4.6288   23.7974 C.ar    1  UNL1        0.0630
     19 O           6.8072   -5.4427   27.7535 O.3     1  UNL1       -0.4346
     20 C           7.8329   -6.3185   28.4098 C.3     1  UNL1        0.4294
     21 O           8.8278   -6.7300   27.3654 O.3     1  UNL1       -0.4346
     22 C           1.3503    0.6022   18.5952 C.3     1  UNL1        0.2526
     23 O           2.6380   -0.1340   18.3719 O.3     1  UNL1       -0.4684
     24 O           5.1356   -1.7252   17.8922 O.3     1  UNL1       -0.4682
     25 C           6.0810   -0.6506   17.4435 C.3     1  UNL1        0.2526
@<TRIPOS>UNITY_ATOM_ATTR
7 1
charge 1
@<TRIPOS>BOND
     1    22    23    1
     2    23     1    1
     3     1     2   ar
     4     2     3   ar
     5     3     4   ar
     6     4     5   ar
     7     5     6   ar
     8     6     7   ar
     9     7     8   ar
    10     8     9   ar
    11     9    10   ar
    12    10    24    1
    13    24    25    1
    14     7    11    1
    15    11    12    1
    16    12    13    1
    17    13    14   ar
    18    14    15   ar
    19    15    16   ar
    20    16    17   ar
    21    17    18   ar
    22    16    19    1
    23    19    20    1
    24    20    21    1
    25    10     1   ar
    26    18    13   ar
    27     9     4   ar
    28    21    15    1
    29    18     6    1
@<TRIPOS>MOLECULE
*****
 25 29 0 0 0
SMALL
GASTEIGER

@<TRIPOS>ATOM
      1 C           5.6725   -3.6184   21.9610 C.ar    1  UNL1        0.1726
      2 C           5.2509   -3.1283   23.3146 C.ar    1  UNL1        0.0401
      3 C           4.2169   -2.0480   23.4326 C.ar    1  UNL1        0.0037
      4 C           3.6044   -1.4579   22.1970 C.ar    1  UNL1        0.0150
      5 C           2.5704   -0.3777   22.3150 C.ar    1  UNL1        0.0695
      6 C           1.9579    0.2124   21.0794 C.ar    1  UNL1        0.2260
      7 N           2.3795   -0.2777   19.7258 N.ar    1  UNL1       -0.1641
      8 C           3.4135   -1.3580   19.6079 C.ar    1  UNL1        0.2929
      9 C           4.0259   -1.9480   20.8435 C.ar    1  UNL1        0.1068
     10 C           5.0599   -3.0283   20.7255 C.ar    1  UNL1        0.1782
     11 C           1.7669    0.3124   18.4903 C.3     1  UNL1        0.3269
     12 C           0.7329    1.3926   18.6082 C.3     1  UNL1        0.1119
     13 C           0.3114    1.8828   19.9618 C.ar    1  UNL1       -0.0062
     14 C          -0.7226    2.9630   20.0798 C.ar    1  UNL1        0.0363
     15 C          -1.1441    3.4531   21.4333 C.ar    1  UNL1        0.1761
     16 C          -0.5317    2.8630   22.6689 C.ar    1  UNL1        0.1766
     17 C           0.5024    1.7828   22.5510 C.ar    1  UNL1        0.0458
     18 C           0.9239    1.2927   21.1973 C.ar    1  UNL1        0.0630
     19 O          -1.1416    3.5430   23.8587 O.3     1  UNL1       -0.4346
     20 C          -2.1310    4.5533   23.3585 C.3     1  UNL1        0.4294
     21 O          -2.1326    4.4978   21.8595 O.3     1  UNL1       -0.4346
     22 C           8.1228   -4.3465   21.4965 C.3     1  UNL1        0.2526
     23 O           6.7065   -4.6986   21.8431 O.3     1  UNL1       -0.4684
     24 O           5.4815   -3.5184   19.3720 O.3     1  UNL1       -0.4682
     25 C           4.7869   -4.6935   18.7500 C.3     1  UNL1        0.2526
@<TRIPOS>UNITY_ATOM_ATTR
7 1
charge 1
@<TRIPOS>BOND
     1    22    23    1
     2    23     1    1
     3     1     2   ar
     4     2     3   ar
     5     3     4   ar
     6     4     5   ar
     7     5     6   ar
     8     6     7   ar
     9     7     8   ar
    10     8     9   ar
    11     9    10   ar
    12    10    24    1
    13    24    25    1
    14     7    11    1
    15    11    12    1
    16    12    13    1
    17    13    14   ar
    18    14    15   ar
    19    15    16   ar
    20    16    17   ar
    21    17    18   ar
    22    16    19    1
    23    19    20    1
    24    20    21    1
    25    10     1   ar
    26    18    13   ar
    27     9     4   ar
    28    21    15    1
    29    18     6    1
@<TRIPOS>MOLECULE
*****
 25 29 0 0 0
SMALL
GASTEIGER

@<TRIPOS>ATOM
      1 C           4.1769   -0.0039   29.3412 C.ar    1  UNL1        0.1726
      2 C           5.0025   -1.2172   29.0307 C.ar    1  UNL1        0.0401
      3 C           5.0358   -1.7645   27.6345 C.ar    1  UNL1        0.0037
      4 C           4.2434   -1.0986   26.5488 C.ar    1  UNL1        0.0150
      5 C           4.2767   -1.6458   25.1526 C.ar    1  UNL1        0.0695
      6 C           3.4843   -0.9799   24.0669 C.ar    1  UNL1        0.2260
      7 N           2.6587    0.2333   24.3775 N.ar    1  UNL1       -0.1641
      8 C           2.6254    0.7806   25.7737 C.ar    1  UNL1        0.2929
      9 C           3.4178    0.1146   26.8593 C.ar    1  UNL1        0.1068
     10 C           3.3845    0.6620   28.2555 C.ar    1  UNL1        0.1782
     11 C           1.8663    0.8992   23.2917 C.3     1  UNL1        0.3269
     12 C           1.8996    0.3519   21.8955 C.3     1  UNL1        0.1119
     13 C           2.7252   -0.8613   21.5850 C.ar    1  UNL1       -0.0062
     14 C           2.7585   -1.4086   20.1888 C.ar    1  UNL1        0.0363
     15 C           3.5841   -2.6218   19.8783 C.ar    1  UNL1        0.1761
     16 C           4.3765   -3.2877   20.9640 C.ar    1  UNL1        0.1766
     17 C           4.3433   -2.7405   22.3602 C.ar    1  UNL1        0.0458
     18 C           3.5176   -1.5272   22.6706 C.ar    1  UNL1        0.0630
     19 O           5.0930   -4.4602   20.3624 O.3     1  UNL1       -0.4346
     20 C           4.7434   -4.5189   18.9048 C.3     1  UNL1        0.4294
     21 O           3.8109   -3.3827   18.6057 O.3     1  UNL1       -0.4346
     22 C           3.1771   -0.0155   31.7392 C.3     1  UNL1        0.2526
     23 O           4.1436    0.5433   30.7374 O.3     1  UNL1       -0.4684
     24 O           2.5589    1.8752   28.5660 O.3     1  UNL1       -0.4682
     25 C           1.1544    1.7180   29.0687 C.3     1  UNL1        0.2526
@<TRIPOS>UNITY_ATOM_ATTR
7 1
charge 1
@<TRIPOS>BOND
     1    22    23    1
     2    23     1    1
     3     1     2   ar
     4     2     3   ar
     5     3     4   ar
     6     4     5   ar
     7     5     6   ar
     8     6     7   ar
     9     7     8   ar
    10     8     9   ar
    11     9    10   ar
    12    10    24    1
    13    24    25    1
    14     7    11    1
    15    11    12    1
    16    12    13    1
    17    13    14   ar
    18    14    15   ar
    19    15    16   ar
    20    16    17   ar
    21    17    18   ar
    22    16    19    1
    23    19    20    1
    24    20    21    1
    25    10     1   ar
    26    18    13   ar
    27     9     4   ar
    28    21    15    1
    29    18     6    1
@<TRIPOS>MOLECULE
*****
 25 29 0 0 0
SMALL
GASTEIGER

@<TRIPOS>ATOM
      1 C          -1.1598    2.9090   25.6134 C.ar    1  UNL1        0.1726
      2 C          -0.2118    1.8478   26.0879 C.ar    1  UNL1        0.0401
      3 C           0.6517    1.1180   25.1020 C.ar    1  UNL1        0.0037
      4 C           0.5672    1.4497   23.6415 C.ar    1  UNL1        0.0150
      5 C           1.4306    0.7201   22.6556 C.ar    1  UNL1        0.0695
      6 C           1.3461    1.0517   21.1951 C.ar    1  UNL1        0.2260
      7 N           0.3982    2.1130   20.7206 N.ar    1  UNL1       -0.1641
      8 C          -0.4652    2.8426   21.7066 C.ar    1  UNL1        0.2929
      9 C          -0.3807    2.5110   23.1670 C.ar    1  UNL1        0.1068
     10 C          -1.2442    3.2406   24.1529 C.ar    1  UNL1        0.1782
     11 C           0.3138    2.4446   19.2601 C.3     1  UNL1        0.3269
     12 C           1.1772    1.7149   18.2742 C.3     1  UNL1        0.1119
     13 C           2.1251    0.6536   18.7488 C.ar    1  UNL1       -0.0062
     14 C           2.9886   -0.0760   17.7628 C.ar    1  UNL1        0.0363
     15 C           3.9365   -1.1373   18.2373 C.ar    1  UNL1        0.1761
     16 C           4.0210   -1.4689   19.6977 C.ar    1  UNL1        0.1766
     17 C           3.1575   -0.7393   20.6837 C.ar    1  UNL1        0.0458
     18 C           2.2096    0.3220   20.2091 C.ar    1  UNL1        0.0630
     19 O           5.0417   -2.5548   19.8683 O.3     1  UNL1       -0.4346
     20 C           5.5880   -2.8942   18.5132 C.3     1  UNL1        0.4294
     21 O           4.9050   -2.0182   17.5052 O.3     1  UNL1       -0.4346
     22 C          -1.6161    4.9954   27.0929 C.3     1  UNL1        0.2526
     23 O          -2.0232    3.6387   26.5993 O.3     1  UNL1       -0.4684
     24 O          -2.1921    4.3019   23.6784 O.3     1  UNL1       -0.4682
     25 C          -3.6333    3.9654   23.4342 C.3     1  UNL1        0.2526
@<TRIPOS>UNITY_ATOM_ATTR
7 1
charge 1
@<TRIPOS>BOND
     1    22    23    1
     2    23     1    1
     3     1     2   ar
     4     2     3   ar
     5     3     4   ar
     6     4     5   ar
     7     5     6   ar
     8     6     7   ar
     9     7     8   ar
    10     8     9   ar
    11     9    10   ar
    12    10    24    1
    13    24    25    1
    14     7    11    1
    15    11    12    1
    16    12    13    1
    17    13    14   ar
    18    14    15   ar
    19    15    16   ar
    20    16    17   ar
    21    17    18   ar
    22    16    19    1
    23    19    20    1
    24    20    21    1
    25    10     1   ar
    26    18    13   ar
    27     9     4   ar
    28    21    15    1
    29    18     6    1
