@<TRIPOS>MOLECULE
*****
 37 40 0 0 0
SMALL
GASTEIGER

@<TRIPOS>ATOM
      1 N           7.1682   -4.4113   25.9281 N.ar    1  UNL1       -0.1273
      2 N           6.6710   -3.6888   24.7112 N.ar    1  UNL1       -0.1435
      3 C           7.1693   -4.4218   23.5011 C.ar    1  UNL1        0.1599
      4 C           7.9744   -5.5974   23.9701 C.ar    1  UNL1        0.0433
      5 C           8.7080   -6.6728   23.2251 C.ar    1  UNL1        0.0033
      6 C           9.4410   -7.7418   23.9800 C.ar    1  UNL1        0.0002
      7 C           9.4402   -7.7354   25.4800 C.ar    1  UNL1        0.0016
      8 C           8.7066   -6.6599   26.2250 C.ar    1  UNL1        0.0208
      9 C           7.9737   -5.5909   25.4701 C.ar    1  UNL1        0.1041
     10 C           6.9084   -4.0453   22.0728 C.ar    1  UNL1        0.2793
     11 N           5.6758   -4.3765   21.2847 N.ar    1  UNL1       -0.1880
     12 C           5.8398   -3.8075   19.9066 C.ar    1  UNL1        0.2007
     13 N           7.1739   -3.1246   19.8429 N.ar    1  UNL1       -0.0584
     14 O           7.8342   -3.2716   21.1817 O.2     1  UNL1       -0.3310
     15 C           4.8447   -3.9043   18.7885 C.3     1  UNL1        0.1621
     16 N           4.5237   -2.6936   17.9631 N.am    1  UNL1       -0.2634
     17 C           3.6075   -1.6373   18.5058 C.2     1  UNL1        0.4017
     18 O           3.0121   -1.7916   19.8739 O.2     1  UNL1       -0.2264
     19 H           4.9144   -2.5924   17.0651 H       1  UNL1        0.1532
     20 O           3.2865   -0.4266   17.6804 O.3     1  UNL1       -0.4419
     21 C           3.0365    0.8925   18.3493 C.3     1  UNL1        0.1378
     22 C           4.5151    1.1296   18.4343 C.3     1  UNL1        0.0437
     23 C           1.5578    0.6553   18.2642 C.3     1  UNL1        0.0437
     24 C           2.7864    2.2115   19.0182 C.3     1  UNL1        0.0437
     25 S           6.9058   -4.0226   27.3529 S.O2    1  UNL1        0.1007
     26 O           7.7244   -2.7799   27.1646 O.2     1  UNL1       -0.1463
     27 O           6.0873   -5.2654   27.5413 O.2     1  UNL1       -0.1463
     28 C           6.1188   -2.8568   31.6275 C.ar    1  UNL1        0.1725
     29 C           6.6636   -4.2177   31.3094 C.ar    1  UNL1        0.0414
     30 C           6.9259   -4.6063   29.8845 C.ar    1  UNL1        0.0238
     31 C           6.6435   -3.6340   28.7778 C.ar    1  UNL1        0.1324
     32 C           6.0987   -2.2731   29.0959 C.ar    1  UNL1        0.0605
     33 C           5.8363   -1.8845   30.5207 C.ar    1  UNL1        0.1737
     34 C           4.4485   -2.4100   33.5667 C.3     1  UNL1        0.2526
     35 O           5.8564   -2.4682   33.0522 O.3     1  UNL1       -0.4684
     36 O           5.2915   -0.5237   30.8388 O.3     1  UNL1       -0.4683
     37 C           5.3676    0.5722   29.8174 C.3     1  UNL1        0.2526
@<TRIPOS>BOND
     1    34    35    1
     2    35    28    1
     3    28    29   ar
     4    29    30   ar
     5    30    31   ar
     6    31    25    1
     7    25    26    2
     8    25    27    2
     9    25     1    1
    10     1     2   ar
    11     2     3   ar
    12     3    10    1
    13    10    11   ar
    14    11    12   ar
    15    12    15    1
    16    15    16    1
    17    16    17   am
    18    17    18    2
    19    17    20    1
    20    20    21    1
    21    21    22    1
    22    21    23    1
    23    21    24    1
    24    12    13   ar
    25    13    14   ar
    26     3     4   ar
    27     4     5   ar
    28     5     6   ar
    29     6     7   ar
    30     7     8   ar
    31     8     9   ar
    32    31    32   ar
    33    32    33   ar
    34    33    36    1
    35    36    37    1
    36    33    28   ar
    37     9     1   ar
    38    14    10   ar
    39     9     4   ar
    40    16    19    1
@<TRIPOS>MOLECULE
*****
 37 40 0 0 0
SMALL
GASTEIGER

@<TRIPOS>ATOM
      1 N           6.9881   -4.2906   23.6872 N.ar    1  UNL1       -0.1273
      2 N           6.5921   -3.7348   25.0230 N.ar    1  UNL1       -0.1435
      3 C           7.1963   -4.6052   26.0847 C.ar    1  UNL1        0.1599
      4 C           7.9658   -5.6990   25.4051 C.ar    1  UNL1        0.0433
      5 C           8.7669   -6.8468   25.9442 C.ar    1  UNL1        0.0033
      6 C           9.4394   -7.8002   25.0014 C.ar    1  UNL1        0.0002
      7 C           9.3107   -7.6057   23.5197 C.ar    1  UNL1        0.0016
      8 C           8.5095   -6.4579   22.9806 C.ar    1  UNL1        0.0208
      9 C           7.8371   -5.5045   23.9234 C.ar    1  UNL1        0.1041
     10 C           7.0558   -4.4153   27.5660 C.ar    1  UNL1        0.2793
     11 N           7.2485   -3.1284   28.3121 N.ar    1  UNL1       -0.1880
     12 C           7.0097   -3.3966   29.7685 C.ar    1  UNL1        0.2007
     13 N           6.6695   -4.8494   29.9224 N.ar    1  UNL1       -0.0584
     14 O           6.6980   -5.4790   28.5612 O.2     1  UNL1       -0.3310
     15 C           7.0960   -2.3891   30.8763 C.3     1  UNL1        0.1621
     16 N           5.8643   -1.6597   31.3244 N.am    1  UNL1       -0.2634
     17 C           4.9729   -2.2640   32.3685 C.2     1  UNL1        0.4017
     18 O           5.3132   -3.5978   32.9645 O.2     1  UNL1       -0.2264
     19 H           5.6409   -0.7843   30.9333 H       1  UNL1        0.1532
     20 O           3.7411   -1.5346   32.8166 O.3     1  UNL1       -0.4419
     21 C           3.8572   -0.1646   33.4164 C.3     1  UNL1        0.1378
     22 C           3.0972    0.4075   32.2568 C.3     1  UNL1        0.0437
     23 C           4.6172   -0.7369   34.5762 C.3     1  UNL1        0.0437
     24 C           3.9732    1.2052   34.0163 C.3     1  UNL1        0.0437
     25 S           6.6028   -3.7309   22.3500 S.O2    1  UNL1        0.1007
     26 O           5.2375   -4.3360   22.4900 O.2     1  UNL1       -0.1463
     27 O           7.9681   -3.1257   22.2099 O.2     1  UNL1       -0.1463
     28 C           5.4470   -2.0516   18.3382 C.ar    1  UNL1        0.1725
     29 C           5.0875   -3.4642   18.6917 C.ar    1  UNL1        0.0414
     30 C           5.4727   -4.0240   20.0290 C.ar    1  UNL1        0.0238
     31 C           6.2176   -3.1710   21.0127 C.ar    1  UNL1        0.1324
     32 C           6.5771   -1.7584   20.6591 C.ar    1  UNL1        0.0605
     33 C           6.1919   -1.1986   19.3219 C.ar    1  UNL1        0.1737
     34 C           3.7253   -0.8354   16.8195 C.3     1  UNL1        0.2526
     35 O           5.0618   -1.4917   17.0010 O.3     1  UNL1       -0.4684
     36 O           6.5515    0.2140   18.9684 O.3     1  UNL1       -0.4683
     37 C           7.7796    0.4939   18.1539 C.3     1  UNL1        0.2526
@<TRIPOS>BOND
     1    34    35    1
     2    35    28    1
     3    28    29   ar
     4    29    30   ar
     5    30    31   ar
     6    31    25    1
     7    25    26    2
     8    25    27    2
     9    25     1    1
    10     1     2   ar
    11     2     3   ar
    12     3    10    1
    13    10    11   ar
    14    11    12   ar
    15    12    15    1
    16    15    16    1
    17    16    17   am
    18    17    18    2
    19    17    20    1
    20    20    21    1
    21    21    22    1
    22    21    23    1
    23    21    24    1
    24    12    13   ar
    25    13    14   ar
    26     3     4   ar
    27     4     5   ar
    28     5     6   ar
    29     6     7   ar
    30     7     8   ar
    31     8     9   ar
    32    31    32   ar
    33    32    33   ar
    34    33    36    1
    35    36    37    1
    36    33    28   ar
    37     9     1   ar
    38    14    10   ar
    39     9     4   ar
    40    16    19    1
@<TRIPOS>MOLECULE
*****
 37 40 0 0 0
SMALL
GASTEIGER

@<TRIPOS>ATOM
      1 N           6.8370   -4.1588   24.2381 N.ar    1  UNL1       -0.1273
      2 N           6.5111   -3.8851   25.6765 N.ar    1  UNL1       -0.1435
      3 C           7.2053   -4.9182   26.5137 C.ar    1  UNL1        0.1599
      4 C           7.9602   -5.8303   25.5927 C.ar    1  UNL1        0.0433
      5 C           8.8254   -7.0276   25.8530 C.ar    1  UNL1        0.0033
      6 C           9.4631   -7.7555   24.7070 C.ar    1  UNL1        0.0002
      7 C           9.2355   -7.2862   23.3006 C.ar    1  UNL1        0.0016
      8 C           8.3702   -6.0889   23.0403 C.ar    1  UNL1        0.0208
      9 C           7.7326   -5.3610   24.1863 C.ar    1  UNL1        0.1041
     10 C           7.1536   -5.0211   28.0092 C.ar    1  UNL1        0.2793
     11 N           6.9615   -3.8815   28.9653 N.ar    1  UNL1       -0.1880
     12 C           6.9742   -4.4378   30.3583 C.ar    1  UNL1        0.2007
     13 N           7.1741   -5.9214   30.2630 N.ar    1  UNL1       -0.0584
     14 O           7.2850   -6.2819   28.8112 O.2     1  UNL1       -0.3310
     15 C           6.8148   -3.6491   31.6242 C.3     1  UNL1        0.1621
     16 N           5.4575   -3.1649   32.0404 N.am    1  UNL1       -0.2634
     17 C           5.0309   -1.7628   31.7213 C.2     1  UNL1        0.4017
     18 O           5.9617   -0.8447   30.9859 O.2     1  UNL1       -0.2264
     19 H           4.8466   -3.7675   32.5231 H       1  UNL1        0.1532
     20 O           3.6736   -1.2786   32.1376 O.3     1  UNL1       -0.4419
     21 C           3.5353    0.0137   32.8865 C.3     1  UNL1        0.1378
     22 C           4.2877   -0.5756   34.0425 C.3     1  UNL1        0.0437
     23 C           2.7828    0.6031   31.7304 C.3     1  UNL1        0.0437
     24 C           3.3970    1.3060   33.6353 C.3     1  UNL1        0.0437
     25 S           6.3524   -3.3689   23.0586 S.O2    1  UNL1        0.1007
     26 O           5.2616   -4.3736   22.8339 O.2     1  UNL1       -0.1463
     27 O           7.4433   -2.3641   23.2833 O.2     1  UNL1       -0.1463
     28 C           4.8991   -0.9990   19.5200 C.ar    1  UNL1        0.1725
     29 C           6.3673   -1.0811   19.8158 C.ar    1  UNL1        0.0414
     30 C           6.8517   -1.8710   20.9953 C.ar    1  UNL1        0.0238
     31 C           5.8679   -2.5789   21.8791 C.ar    1  UNL1        0.1324
     32 C           4.3997   -2.4969   21.5833 C.ar    1  UNL1        0.0605
     33 C           3.9152   -1.7070   20.4038 C.ar    1  UNL1        0.1737
     34 C           3.9946   -0.9160   17.0859 C.3     1  UNL1        0.2526
     35 O           4.4145   -0.2091   18.3405 O.3     1  UNL1       -0.4684
     36 O           2.4470   -1.6249   20.1080 O.3     1  UNL1       -0.4683
     37 C           1.6225   -0.5223   20.7033 C.3     1  UNL1        0.2526
@<TRIPOS>BOND
     1    34    35    1
     2    35    28    1
     3    28    29   ar
     4    29    30   ar
     5    30    31   ar
     6    31    25    1
     7    25    26    2
     8    25    27    2
     9    25     1    1
    10     1     2   ar
    11     2     3   ar
    12     3    10    1
    13    10    11   ar
    14    11    12   ar
    15    12    15    1
    16    15    16    1
    17    16    17   am
    18    17    18    2
    19    17    20    1
    20    20    21    1
    21    21    22    1
    22    21    23    1
    23    21    24    1
    24    12    13   ar
    25    13    14   ar
    26     3     4   ar
    27     4     5   ar
    28     5     6   ar
    29     6     7   ar
    30     7     8   ar
    31     8     9   ar
    32    31    32   ar
    33    32    33   ar
    34    33    36    1
    35    36    37    1
    36    33    28   ar
    37     9     1   ar
    38    14    10   ar
    39     9     4   ar
    40    16    19    1
@<TRIPOS>MOLECULE
*****
 37 40 0 0 0
SMALL
GASTEIGER

@<TRIPOS>ATOM
      1 N           1.7279    0.5390   21.6544 N.ar    1  UNL1       -0.1273
      2 N           1.9655    0.7265   23.1235 N.ar    1  UNL1       -0.1435
      3 C           2.8879   -0.3620   23.5864 C.ar    1  UNL1        0.1599
      4 C           3.2204   -1.2222   22.4034 C.ar    1  UNL1        0.0433
      5 C           4.0834   -2.4406   22.2592 C.ar    1  UNL1        0.0033
      6 C           4.2294   -3.1021   20.9209 C.ar    1  UNL1        0.0002
      7 C           3.5124   -2.5452   19.7268 C.ar    1  UNL1        0.0016
      8 C           2.6495   -1.3268   19.8710 C.ar    1  UNL1        0.0208
      9 C           2.5035   -0.6653   21.2093 C.ar    1  UNL1        0.1041
     10 C           3.3898   -0.5563   24.9866 C.ar    1  UNL1        0.2793
     11 N           3.2560    0.4229   26.1150 N.ar    1  UNL1       -0.1880
     12 C           3.8971   -0.1794   27.3300 C.ar    1  UNL1        0.2007
     13 N           4.4271   -1.5310   26.9524 N.ar    1  UNL1       -0.0584
     14 O           4.1136   -1.7639   25.5041 O.2     1  UNL1       -0.3310
     15 C           3.9915    0.4577   28.6845 C.3     1  UNL1        0.1621
     16 N           4.2306   -0.3913   29.8978 N.am    1  UNL1       -0.2634
     17 C           3.0890   -0.7398   30.8061 C.2     1  UNL1        0.4017
     18 O           1.7082   -0.2394   30.5012 O.2     1  UNL1       -0.2264
     19 H           5.1368   -0.7198   30.0980 H       1  UNL1        0.1532
     20 O           3.3280   -1.5889   32.0194 O.3     1  UNL1       -0.4419
     21 C           4.4407   -1.2483   32.9659 C.3     1  UNL1        0.1378
     22 C           5.1645   -2.4994   32.5654 C.3     1  UNL1        0.0437
     23 C           3.7168    0.0030   33.3665 C.3     1  UNL1        0.0437
     24 C           5.5533   -0.9075   33.9124 C.3     1  UNL1        0.0437
     25 S           0.8660    1.4040   20.7832 S.O2    1  UNL1        0.1007
     26 O          -0.2115    0.3611   20.8136 O.2     1  UNL1       -0.1463
     27 O           1.9436    2.4470   20.7528 O.2     1  UNL1       -0.1463
     28 C          -1.7193    3.9992   18.1695 C.ar    1  UNL1        0.1725
     29 C          -0.4132    3.4762   17.6495 C.ar    1  UNL1        0.0414
     30 C           0.4486    2.6111   18.5208 C.ar    1  UNL1        0.0238
     31 C           0.0042    2.2691   19.9120 C.ar    1  UNL1        0.1324
     32 C          -1.3020    2.7921   20.4320 C.ar    1  UNL1        0.0605
     33 C          -2.1637    3.6571   19.5608 C.ar    1  UNL1        0.1737
     34 C          -2.4477    6.3572   17.3575 C.3     1  UNL1        0.2526
     35 O          -2.5811    4.8642   17.2983 O.3     1  UNL1       -0.4684
     36 O          -3.4698    4.1802   20.0807 O.3     1  UNL1       -0.4683
     37 C          -4.3818    3.2793   20.8596 C.3     1  UNL1        0.2526
@<TRIPOS>BOND
     1    34    35    1
     2    35    28    1
     3    28    29   ar
     4    29    30   ar
     5    30    31   ar
     6    31    25    1
     7    25    26    2
     8    25    27    2
     9    25     1    1
    10     1     2   ar
    11     2     3   ar
    12     3    10    1
    13    10    11   ar
    14    11    12   ar
    15    12    15    1
    16    15    16    1
    17    16    17   am
    18    17    18    2
    19    17    20    1
    20    20    21    1
    21    21    22    1
    22    21    23    1
    23    21    24    1
    24    12    13   ar
    25    13    14   ar
    26     3     4   ar
    27     4     5   ar
    28     5     6   ar
    29     6     7   ar
    30     7     8   ar
    31     8     9   ar
    32    31    32   ar
    33    32    33   ar
    34    33    36    1
    35    36    37    1
    36    33    28   ar
    37     9     1   ar
    38    14    10   ar
    39     9     4   ar
    40    16    19    1
@<TRIPOS>MOLECULE
*****
 37 40 0 0 0
SMALL
GASTEIGER

@<TRIPOS>ATOM
      1 N          -4.4990    4.4217   22.2765 N.ar    1  UNL1       -0.1273
      2 N          -3.0884    3.9132   22.2367 N.ar    1  UNL1       -0.1435
      3 C          -2.7765    3.5221   20.8226 C.ar    1  UNL1        0.1599
      4 C          -3.9943    3.7889   19.9884 C.ar    1  UNL1        0.0433
      5 C          -4.2713    3.5975   18.5267 C.ar    1  UNL1        0.0033
      6 C          -5.6129    3.9620   17.9636 C.ar    1  UNL1        0.0002
      7 C          -6.6775    4.5180   18.8622 C.ar    1  UNL1        0.0016
      8 C          -6.4005    4.7095   20.3239 C.ar    1  UNL1        0.0208
      9 C          -5.0589    4.3450   20.8870 C.ar    1  UNL1        0.1041
     10 C          -1.4752    2.9624   20.3292 C.ar    1  UNL1        0.2793
     11 N          -0.6933    1.8535   20.9687 N.ar    1  UNL1       -0.1880
     12 C           0.5378    1.6191   20.1444 C.ar    1  UNL1        0.2007
     13 N           0.5167    2.5832   18.9954 N.ar    1  UNL1       -0.0584
     14 O          -0.7274    3.4134   19.1096 O.2     1  UNL1       -0.3310
     15 C           1.6029    0.5997   20.4206 C.3     1  UNL1        0.1621
     16 N           2.0368   -0.3438   19.3382 N.am    1  UNL1       -0.2634
     17 C           3.3948   -0.9781   19.3961 C.2     1  UNL1        0.4017
     18 O           4.3190   -0.6688   20.5363 O.2     1  UNL1       -0.2264
     19 H           1.4302   -0.5468   18.5898 H       1  UNL1        0.1532
     20 O           3.8287   -1.9216   18.3136 O.3     1  UNL1       -0.4419
     21 C           4.4910   -3.2192   18.6708 C.3     1  UNL1        0.1378
     22 C           5.8036   -2.6843   18.1804 C.3     1  UNL1        0.0437
     23 C           3.1782   -3.7542   19.1613 C.3     1  UNL1        0.0437
     24 C           5.1532   -4.5168   19.0280 C.3     1  UNL1        0.0437
     25 S          -5.2228    4.9197   23.4923 S.O2    1  UNL1        0.1007
     26 O          -4.8598    6.3295   23.1311 O.2     1  UNL1       -0.1463
     27 O          -5.5857    3.5098   23.8537 O.2     1  UNL1       -0.1463
     28 C          -7.3939    6.4132   27.1401 C.ar    1  UNL1        0.1725
     29 C          -5.9727    5.9466   27.2517 C.ar    1  UNL1        0.0414
     30 C          -5.2490    5.4488   26.0358 C.ar    1  UNL1        0.0238
     31 C          -5.9465    5.4175   24.7082 C.ar    1  UNL1        0.1324
     32 C          -7.3677    5.8841   24.5966 C.ar    1  UNL1        0.0605
     33 C          -8.0914    6.3819   25.8124 C.ar    1  UNL1        0.1737
     34 C          -7.4427    6.8811   29.6952 C.3     1  UNL1        0.2526
     35 O          -8.1177    6.9110   28.3559 O.3     1  UNL1       -0.4684
     36 O          -9.5126    6.8484   25.7008 O.3     1  UNL1       -0.4683
     37 C         -10.0762    7.2225   24.3619 C.3     1  UNL1        0.2526
@<TRIPOS>BOND
     1    34    35    1
     2    35    28    1
     3    28    29   ar
     4    29    30   ar
     5    30    31   ar
     6    31    25    1
     7    25    26    2
     8    25    27    2
     9    25     1    1
    10     1     2   ar
    11     2     3   ar
    12     3    10    1
    13    10    11   ar
    14    11    12   ar
    15    12    15    1
    16    15    16    1
    17    16    17   am
    18    17    18    2
    19    17    20    1
    20    20    21    1
    21    21    22    1
    22    21    23    1
    23    21    24    1
    24    12    13   ar
    25    13    14   ar
    26     3     4   ar
    27     4     5   ar
    28     5     6   ar
    29     6     7   ar
    30     7     8   ar
    31     8     9   ar
    32    31    32   ar
    33    32    33   ar
    34    33    36    1
    35    36    37    1
    36    33    28   ar
    37     9     1   ar
    38    14    10   ar
    39     9     4   ar
    40    16    19    1
@<TRIPOS>MOLECULE
*****
 37 40 0 0 0
SMALL
GASTEIGER

@<TRIPOS>ATOM
      1 N           1.0344    1.2444   20.2926 N.ar    1  UNL1       -0.1273
      2 N          -0.3918    1.3573   20.7436 N.ar    1  UNL1       -0.1435
      3 C          -0.9642    2.6150   20.1600 C.ar    1  UNL1        0.1599
      4 C           0.1082    3.2794   19.3485 C.ar    1  UNL1        0.0433
      5 C           0.1195    4.5463   18.5455 C.ar    1  UNL1        0.0033
      6 C           1.3660    4.9660   17.8244 C.ar    1  UNL1        0.0002
      7 C           2.6012    4.1189   17.9063 C.ar    1  UNL1        0.0016
      8 C           2.5899    2.8520   18.7093 C.ar    1  UNL1        0.0208
      9 C           1.3434    2.4323   19.4304 C.ar    1  UNL1        0.1041
     10 C          -2.3633    3.1198   20.3540 C.ar    1  UNL1        0.2793
     11 N          -3.1530    3.0615   21.6279 N.ar    1  UNL1       -0.1880
     12 C          -4.4962    3.6771   21.3694 C.ar    1  UNL1        0.2007
     13 N          -4.5366    4.1159   19.9355 N.ar    1  UNL1       -0.0584
     14 O          -3.2184    3.7714   19.3080 O.2     1  UNL1       -0.3310
     15 C          -5.6043    3.8276   22.3690 C.3     1  UNL1        0.1621
     16 N          -5.6946    5.0681   23.2076 N.am    1  UNL1       -0.2634
     17 C          -5.6005    4.9720   24.7015 C.2     1  UNL1        0.4017
     18 O          -5.4159    3.6354   25.3570 O.2     1  UNL1       -0.2264
     19 H          -5.8157    5.9453   22.7775 H       1  UNL1        0.1532
     20 O          -5.6908    6.2124   25.5401 O.3     1  UNL1       -0.4419
     21 C          -6.5148    6.2121   26.7935 C.3     1  UNL1        0.1378
     22 C          -5.2614    6.2136   27.6175 C.3     1  UNL1        0.0437
     23 C          -7.7682    6.2106   25.9695 C.3     1  UNL1        0.0437
     24 C          -7.3388    6.2117   28.0469 C.3     1  UNL1        0.0437
     25 S           1.9847    0.1378   20.6425 S.O2    1  UNL1        0.1007
     26 O           2.4588    0.9206   21.8308 O.2     1  UNL1       -0.1463
     27 O           1.5106   -0.6451   19.4540 O.2     1  UNL1       -0.1463
     28 C           4.8357   -3.1820   21.6919 C.ar    1  UNL1        0.1725
     29 C           4.2089   -2.3600   22.7788 C.ar    1  UNL1        0.0414
     30 C           3.2586   -1.2534   22.4290 C.ar    1  UNL1        0.0238
     31 C           2.9351   -0.9688   20.9922 C.ar    1  UNL1        0.1324
     32 C           3.5618   -1.7909   19.9053 C.ar    1  UNL1        0.0605
     33 C           4.5120   -2.8974   20.2551 C.ar    1  UNL1        0.1737
     34 C           7.2662   -4.0552   21.9745 C.3     1  UNL1        0.2526
     35 O           5.7859   -4.2886   22.0416 O.3     1  UNL1       -0.4684
     36 O           5.1388   -3.7194   19.1682 O.3     1  UNL1       -0.4683
     37 C           4.5544   -5.0520   18.8040 C.3     1  UNL1        0.2526
@<TRIPOS>BOND
     1    34    35    1
     2    35    28    1
     3    28    29   ar
     4    29    30   ar
     5    30    31   ar
     6    31    25    1
     7    25    26    2
     8    25    27    2
     9    25     1    1
    10     1     2   ar
    11     2     3   ar
    12     3    10    1
    13    10    11   ar
    14    11    12   ar
    15    12    15    1
    16    15    16    1
    17    16    17   am
    18    17    18    2
    19    17    20    1
    20    20    21    1
    21    21    22    1
    22    21    23    1
    23    21    24    1
    24    12    13   ar
    25    13    14   ar
    26     3     4   ar
    27     4     5   ar
    28     5     6   ar
    29     6     7   ar
    30     7     8   ar
    31     8     9   ar
    32    31    32   ar
    33    32    33   ar
    34    33    36    1
    35    36    37    1
    36    33    28   ar
    37     9     1   ar
    38    14    10   ar
    39     9     4   ar
    40    16    19    1
@<TRIPOS>MOLECULE
*****
 37 40 0 0 0
SMALL
GASTEIGER

@<TRIPOS>ATOM
      1 N           4.1449   -1.5557   21.8726 N.ar    1  UNL1       -0.1273
      2 N           3.0754   -0.6828   22.4592 N.ar    1  UNL1       -0.1435
      3 C           2.3944    0.0363   21.3327 C.ar    1  UNL1        0.1599
      4 C           3.0432   -0.3920   20.0498 C.ar    1  UNL1        0.0433
      5 C           2.7885   -0.0133   18.6210 C.ar    1  UNL1        0.0033
      6 C           3.6158   -0.6184   17.5259 C.ar    1  UNL1        0.0002
      7 C           4.6977   -1.6024   17.8596 C.ar    1  UNL1        0.0016
      8 C           4.9523   -1.9812   19.2884 C.ar    1  UNL1        0.0208
      9 C           4.1251   -1.3760   20.3836 C.ar    1  UNL1        0.1041
     10 C           1.2633    1.0125   21.4656 C.ar    1  UNL1        0.2793
     11 N           0.2682    1.3596   20.3983 N.ar    1  UNL1       -0.1880
     12 C          -0.6814    2.3746   20.9622 C.ar    1  UNL1        0.2007
     13 N          -0.2731    2.6548   22.3781 N.ar    1  UNL1       -0.0584
     14 O           0.9288    1.8130   22.6892 O.2     1  UNL1       -0.3310
     15 C          -1.8364    2.9996   20.2376 C.3     1  UNL1        0.1621
     16 N          -3.2415    2.7148   20.6789 N.am    1  UNL1       -0.2634
     17 C          -3.9997    3.7363   21.4734 C.2     1  UNL1        0.4017
     18 O          -3.3530    5.0428   21.8267 O.2     1  UNL1       -0.2264
     19 H          -3.6660    1.8573   20.4470 H       1  UNL1        0.1532
     20 O          -5.4048    3.4515   21.9147 O.3     1  UNL1       -0.4419
     21 C          -5.9087    4.0024   23.2157 C.3     1  UNL1        0.1378
     22 C          -6.9168    4.8299   22.4750 C.3     1  UNL1        0.0437
     23 C          -4.9004    3.1748   23.9565 C.3     1  UNL1        0.0437
     24 C          -6.4124    4.5533   24.5168 C.3     1  UNL1        0.0437
     25 S           5.0717   -2.4511   22.6403 S.O2    1  UNL1        0.1007
     26 O           4.2500   -3.6416   22.2438 O.2     1  UNL1       -0.1463
     27 O           5.8935   -1.2605   23.0369 O.2     1  UNL1       -0.1463
     28 C           7.8523   -5.1372   24.9433 C.ar    1  UNL1        0.1725
     29 C           7.8462   -5.1726   23.4437 C.ar    1  UNL1        0.0414
     30 C           6.9194   -4.2773   22.6761 C.ar    1  UNL1        0.0238
     31 C           5.9986   -3.3464   23.4080 C.ar    1  UNL1        0.1324
     32 C           6.0047   -3.3110   24.9076 C.ar    1  UNL1        0.0605
     33 C           6.9315   -4.2063   25.6752 C.ar    1  UNL1        0.1737
     34 C           8.4403   -7.4822   25.8947 C.3     1  UNL1        0.2526
     35 O           8.7791   -6.0325   25.7110 O.3     1  UNL1       -0.4684
     36 O           6.9376   -4.1708   27.1747 O.3     1  UNL1       -0.4683
     37 C           6.1825   -5.2076   27.9525 C.3     1  UNL1        0.2526
@<TRIPOS>BOND
     1    34    35    1
     2    35    28    1
     3    28    29   ar
     4    29    30   ar
     5    30    31   ar
     6    31    25    1
     7    25    26    2
     8    25    27    2
     9    25     1    1
    10     1     2   ar
    11     2     3   ar
    12     3    10    1
    13    10    11   ar
    14    11    12   ar
    15    12    15    1
    16    15    16    1
    17    16    17   am
    18    17    18    2
    19    17    20    1
    20    20    21    1
    21    21    22    1
    22    21    23    1
    23    21    24    1
    24    12    13   ar
    25    13    14   ar
    26     3     4   ar
    27     4     5   ar
    28     5     6   ar
    29     6     7   ar
    30     7     8   ar
    31     8     9   ar
    32    31    32   ar
    33    32    33   ar
    34    33    36    1
    35    36    37    1
    36    33    28   ar
    37     9     1   ar
    38    14    10   ar
    39     9     4   ar
    40    16    19    1
@<TRIPOS>MOLECULE
*****
 37 40 0 0 0
SMALL
GASTEIGER

@<TRIPOS>ATOM
      1 N           5.4264   -1.5463   31.2145 N.ar    1  UNL1       -0.1273
      2 N           5.2024   -0.9666   29.8493 N.ar    1  UNL1       -0.1435
      3 C           5.7058   -1.9538   28.8383 C.ar    1  UNL1        0.1599
      4 C           6.2408   -3.1436   29.5787 C.ar    1  UNL1        0.0433
      5 C           6.8629   -4.4238   29.1053 C.ar    1  UNL1        0.0033
      6 C           7.3124   -5.4521   30.1005 C.ar    1  UNL1        0.0002
      7 C           7.1397   -5.2002   31.5691 C.ar    1  UNL1        0.0016
      8 C           6.5176   -3.9201   32.0425 C.ar    1  UNL1        0.0208
      9 C           6.0682   -2.8917   31.0473 C.ar    1  UNL1        0.1041
     10 C           5.6788   -1.7815   27.3485 C.ar    1  UNL1        0.2793
     11 N           4.4573   -1.5487   26.5098 N.ar    1  UNL1       -0.1880
     12 C           4.8921   -1.4351   25.0787 C.ar    1  UNL1        0.2007
     13 N           6.3826   -1.5976   25.0330 N.ar    1  UNL1       -0.0584
     14 O           6.8688   -1.8117   26.4358 O.2     1  UNL1       -0.3310
     15 C           3.9943   -1.2001   23.9004 C.3     1  UNL1        0.1621
     16 N           4.5466   -1.2836   22.5081 N.am    1  UNL1       -0.2634
     17 C           4.7113   -2.6191   21.8455 C.2     1  UNL1        0.4017
     18 O           4.3238   -3.8712   22.5749 O.2     1  UNL1       -0.2264
     19 H           4.8009   -0.4618   22.0294 H       1  UNL1        0.1532
     20 O           5.2636   -2.7025   20.4533 O.3     1  UNL1       -0.4419
     21 C           4.5646   -2.0023   19.3258 C.3     1  UNL1        0.1378
     22 C           5.7375   -1.0802   19.1714 C.3     1  UNL1        0.0437
     23 C           3.3917   -2.9245   19.4803 C.3     1  UNL1        0.0437
     24 C           3.8656   -1.3021   18.1984 C.3     1  UNL1        0.0437
     25 S           5.0710   -0.8949   32.5181 S.O2    1  UNL1        0.1007
     26 O           3.6908   -1.4758   32.4321 O.2     1  UNL1       -0.1463
     27 O           6.4513   -0.3140   32.6041 O.2     1  UNL1       -0.1463
     28 C           4.0053    1.0592   36.4291 C.ar    1  UNL1        0.1725
     29 C           5.0596   -0.0069   36.3861 C.ar    1  UNL1        0.0414
     30 C           5.4148   -0.6583   35.0824 C.ar    1  UNL1        0.0238
     31 C           4.7157   -0.2435   33.8218 C.ar    1  UNL1        0.1324
     32 C           3.6615    0.8226   33.8648 C.ar    1  UNL1        0.0605
     33 C           3.3063    1.4740   35.1683 C.ar    1  UNL1        0.1737
     34 C           2.6525    1.0634   38.6472 C.3     1  UNL1        0.2526
     35 O           3.6500    1.7106   37.7327 O.3     1  UNL1       -0.4684
     36 O           2.2520    2.5401   35.2113 O.3     1  UNL1       -0.4683
     37 C           1.8663    3.2645   33.9558 C.3     1  UNL1        0.2526
@<TRIPOS>BOND
     1    34    35    1
     2    35    28    1
     3    28    29   ar
     4    29    30   ar
     5    30    31   ar
     6    31    25    1
     7    25    26    2
     8    25    27    2
     9    25     1    1
    10     1     2   ar
    11     2     3   ar
    12     3    10    1
    13    10    11   ar
    14    11    12   ar
    15    12    15    1
    16    15    16    1
    17    16    17   am
    18    17    18    2
    19    17    20    1
    20    20    21    1
    21    21    22    1
    22    21    23    1
    23    21    24    1
    24    12    13   ar
    25    13    14   ar
    26     3     4   ar
    27     4     5   ar
    28     5     6   ar
    29     6     7   ar
    30     7     8   ar
    31     8     9   ar
    32    31    32   ar
    33    32    33   ar
    34    33    36    1
    35    36    37    1
    36    33    28   ar
    37     9     1   ar
    38    14    10   ar
    39     9     4   ar
    40    16    19    1
@<TRIPOS>MOLECULE
*****
 37 40 0 0 0
SMALL
GASTEIGER

@<TRIPOS>ATOM
      1 N           5.6370   -2.4850   27.1646 N.ar    1  UNL1       -0.1273
      2 N           5.8128   -2.4116   25.6767 N.ar    1  UNL1       -0.1435
      3 C           6.5840   -3.6220   25.2408 C.ar    1  UNL1        0.1599
      4 C           6.8850   -4.4435   26.4592 C.ar    1  UNL1        0.0433
      5 C           7.6163   -5.7406   26.6397 C.ar    1  UNL1        0.0033
      6 C           7.7623   -6.3351   28.0091 C.ar    1  UNL1        0.0002
      7 C           7.1770   -5.6324   29.1980 C.ar    1  UNL1        0.0016
      8 C           6.4457   -4.3353   29.0176 C.ar    1  UNL1        0.0208
      9 C           6.2996   -3.7408   27.6482 C.ar    1  UNL1        0.1041
     10 C           6.9842   -3.9528   23.8335 C.ar    1  UNL1        0.2793
     11 N           7.0121   -2.9979   22.6772 N.ar    1  UNL1       -0.1880
     12 C           7.4719   -3.7516   21.4645 C.ar    1  UNL1        0.2007
     13 N           7.7280   -5.1724   21.8714 N.ar    1  UNL1       -0.0584
     14 O           7.4266   -5.2968   23.3356 O.2     1  UNL1       -0.3310
     15 C           7.6450   -3.1841   20.0869 C.3     1  UNL1        0.1621
     16 N           6.4737   -2.5768   19.3731 N.am    1  UNL1       -0.2634
     17 C           5.2502   -3.4014   19.1031 C.2     1  UNL1        0.4017
     18 O           5.1978   -4.8333   19.5467 O.2     1  UNL1       -0.2264
     19 H           6.5080   -1.6370   19.0820 H       1  UNL1        0.1532
     20 O           4.0789   -2.7941   18.3894 O.3     1  UNL1       -0.4419
     21 C           3.6444   -1.3960   18.7157 C.3     1  UNL1        0.1378
     22 C           4.1210   -0.9339   17.3706 C.3     1  UNL1        0.0437
     23 C           3.1677   -1.8581   20.0608 C.3     1  UNL1        0.0437
     24 C           3.2098    0.0021   19.0420 C.3     1  UNL1        0.0437
     25 S           4.9238   -1.4793   28.0189 S.O2    1  UNL1        0.1007
     26 O           6.2408   -0.9971   28.5507 O.2     1  UNL1       -0.1463
     27 O           3.6068   -1.9614   27.4870 O.2     1  UNL1       -0.1463
     28 C           2.7842    1.5381   30.5817 C.ar    1  UNL1        0.1725
     29 C           4.2708    1.6258   30.4026 C.ar    1  UNL1        0.0414
     30 C           4.9840    0.6200   29.5483 C.ar    1  UNL1        0.0238
     31 C           4.2105   -0.4735   28.8731 C.ar    1  UNL1        0.1324
     32 C           2.7239   -0.5612   29.0522 C.ar    1  UNL1        0.0605
     33 C           2.0107    0.4445   29.9064 C.ar    1  UNL1        0.1737
     34 C           1.7082    2.2031   32.8510 C.3     1  UNL1        0.2526
     35 O           2.0709    2.5437   31.4359 O.3     1  UNL1       -0.4684
     36 O           0.5240    0.3567   30.0855 O.3     1  UNL1       -0.4683
     37 C          -0.3919    0.9038   29.0311 C.3     1  UNL1        0.2526
@<TRIPOS>BOND
     1    34    35    1
     2    35    28    1
     3    28    29   ar
     4    29    30   ar
     5    30    31   ar
     6    31    25    1
     7    25    26    2
     8    25    27    2
     9    25     1    1
    10     1     2   ar
    11     2     3   ar
    12     3    10    1
    13    10    11   ar
    14    11    12   ar
    15    12    15    1
    16    15    16    1
    17    16    17   am
    18    17    18    2
    19    17    20    1
    20    20    21    1
    21    21    22    1
    22    21    23    1
    23    21    24    1
    24    12    13   ar
    25    13    14   ar
    26     3     4   ar
    27     4     5   ar
    28     5     6   ar
    29     6     7   ar
    30     7     8   ar
    31     8     9   ar
    32    31    32   ar
    33    32    33   ar
    34    33    36    1
    35    36    37    1
    36    33    28   ar
    37     9     1   ar
    38    14    10   ar
    39     9     4   ar
    40    16    19    1
