@<TRIPOS>MOLECULE
*****
 17 19 0 0 0
SMALL
GASTEIGER

@<TRIPOS>ATOM
      1 C          -5.0090  -19.4855   21.3139 C.ar    1  UNL1        0.0707
      2 C          -5.5918  -18.5857   22.3631 C.ar    1  UNL1        0.0102
      3 C          -7.0607  -18.2819   22.3588 C.ar    1  UNL1        0.0005
      4 C          -7.9468  -18.8779   21.3053 C.ar    1  UNL1        0.0258
      5 C          -7.3639  -19.7776   20.2562 C.ar    1  UNL1        0.1386
      6 F          -8.2500  -20.3736   19.2026 F       1  UNL1       -0.2044
      7 C          -5.8950  -20.0814   20.2605 C.ar    1  UNL1        0.0396
      8 C          -9.4157  -18.5741   21.3010 C.3     1  UNL1        0.1117
      9 C         -10.2406  -18.2266   20.0973 C.3     1  UNL1        0.0335
     10 C         -11.6524  -18.0022   20.5520 C.3     1  UNL1        0.0477
     11 C         -11.6999  -18.2110   22.0367 C.ar    1  UNL1        0.0579
     12 C         -12.6018  -18.2013   23.2352 C.ar    1  UNL1        0.1133
     13 N         -11.7768  -18.5488   24.4388 N.ar    1  UNL1       -0.2227
     14 C         -10.3651  -18.7732   23.9842 C.ar    1  UNL1        0.1785
     15 N         -10.3176  -18.5644   22.4995 N.ar    1  UNL1       -0.3104
     16 N          -2.0712  -20.0931   21.3225 N.1     1  UNL1       -0.1908
     17 C          -3.5401  -19.7893   21.3182 C.1     1  UNL1        0.1005
@<TRIPOS>BOND
     1    16    17    3
     2    17     1    1
     3     1     2   ar
     4     2     3   ar
     5     3     4   ar
     6     8     4    1
     7     8     9    1
     8     9    10    1
     9    10    11    1
    10    11    12   ar
    11    12    13   ar
    12    13    14   ar
    13    14    15   ar
    14     4     5   ar
    15     5     6    1
    16     5     7   ar
    17     7     1   ar
    18    15     8    1
    19    15    11   ar
@<TRIPOS>MOLECULE
*****
 17 19 0 0 0
SMALL
GASTEIGER

@<TRIPOS>ATOM
      1 C         -11.3028  -18.5045   23.2482 C.ar    1  UNL1        0.0707
      2 C         -10.6539  -17.5583   22.2818 C.ar    1  UNL1        0.0102
      3 C          -9.2515  -17.8099   21.8130 C.ar    1  UNL1        0.0005
      4 C          -8.4979  -19.0077   22.3105 C.ar    1  UNL1        0.0258
      5 C          -9.1468  -19.9538   23.2768 C.ar    1  UNL1        0.1386
      6 F          -8.3932  -21.1516   23.7743 F       1  UNL1       -0.2044
      7 C         -10.5492  -19.7022   23.7456 C.ar    1  UNL1        0.0396
      8 C          -7.0954  -19.2593   21.8417 C.3     1  UNL1        0.1117
      9 C          -6.6707  -20.3027   20.8512 C.3     1  UNL1        0.0335
     10 C          -5.1842  -20.1999   20.6784 C.3     1  UNL1        0.0477
     11 C          -4.6902  -19.0930   21.5621 C.ar    1  UNL1        0.0579
     12 C          -3.4663  -18.3454   22.0014 C.ar    1  UNL1        0.1133
     13 N          -3.8910  -17.3021   22.9918 N.ar    1  UNL1       -0.2227
     14 C          -5.3775  -17.4048   23.1647 C.ar    1  UNL1        0.1785
     15 N          -5.8714  -18.5117   22.2810 N.ar    1  UNL1       -0.3104
     16 N         -14.1077  -18.0014   24.1858 N.1     1  UNL1       -0.1908
     17 C         -12.7053  -18.2529   23.7170 C.1     1  UNL1        0.1005
@<TRIPOS>BOND
     1    16    17    3
     2    17     1    1
     3     1     2   ar
     4     2     3   ar
     5     3     4   ar
     6     8     4    1
     7     8     9    1
     8     9    10    1
     9    10    11    1
    10    11    12   ar
    11    12    13   ar
    12    13    14   ar
    13    14    15   ar
    14     4     5   ar
    15     5     6    1
    16     5     7   ar
    17     7     1   ar
    18    15     8    1
    19    15    11   ar
@<TRIPOS>MOLECULE
*****
 17 19 0 0 0
SMALL
GASTEIGER

@<TRIPOS>ATOM
      1 C          -9.9973  -18.0404   22.1700 C.ar    1  UNL1        0.0707
      2 C          -8.8658  -17.6417   23.0705 C.ar    1  UNL1        0.0102
      3 C          -7.4650  -18.0718   22.7499 C.ar    1  UNL1        0.0005
      4 C          -7.1957  -18.9005   21.5289 C.ar    1  UNL1        0.0258
      5 C          -8.3272  -19.2991   20.6285 C.ar    1  UNL1        0.1386
      6 F          -8.0579  -20.1278   19.4075 F       1  UNL1       -0.2044
      7 C          -9.7280  -18.8691   20.9491 C.ar    1  UNL1        0.0396
      8 C          -5.7948  -19.3305   21.2084 C.3     1  UNL1        0.1117
      9 C          -5.3999  -20.3658   20.1972 C.3     1  UNL1        0.0335
     10 C          -3.9040  -20.4759   20.2066 C.3     1  UNL1        0.0477
     11 C          -3.3744  -19.5088   21.2236 C.ar    1  UNL1        0.0579
     12 C          -2.1225  -18.9791   21.8578 C.ar    1  UNL1        0.1133
     13 N          -2.5174  -17.9439   22.8689 N.ar    1  UNL1       -0.2227
     14 C          -4.0134  -17.8338   22.8596 C.ar    1  UNL1        0.1785
     15 N          -4.5430  -18.8009   21.8426 N.ar    1  UNL1       -0.3104
     16 N         -12.7990  -17.1803   22.8111 N.1     1  UNL1       -0.1908
     17 C         -11.3981  -17.6104   22.4905 C.1     1  UNL1        0.1005
@<TRIPOS>BOND
     1    16    17    3
     2    17     1    1
     3     1     2   ar
     4     2     3   ar
     5     3     4   ar
     6     8     4    1
     7     8     9    1
     8     9    10    1
     9    10    11    1
    10    11    12   ar
    11    12    13   ar
    12    13    14   ar
    13    14    15   ar
    14     4     5   ar
    15     5     6    1
    16     5     7   ar
    17     7     1   ar
    18    15     8    1
    19    15    11   ar
@<TRIPOS>MOLECULE
*****
 17 19 0 0 0
SMALL
GASTEIGER

@<TRIPOS>ATOM
      1 C         -11.5980   -0.1452   17.4387 C.ar    1  UNL1        0.0707
      2 C         -12.3213   -0.9272   18.4948 C.ar    1  UNL1        0.0102
      3 C         -11.9929   -2.3744   18.7134 C.ar    1  UNL1        0.0005
      4 C         -10.9412   -3.0396   17.8758 C.ar    1  UNL1        0.0258
      5 C         -10.2179   -2.2576   16.8198 C.ar    1  UNL1        0.1386
      6 F          -9.1661   -2.9227   15.9822 F       1  UNL1       -0.2044
      7 C         -10.5463   -0.8104   16.6012 C.ar    1  UNL1        0.0396
      8 C         -10.6127   -4.4868   18.0944 C.3     1  UNL1        0.1117
      9 C          -9.7054   -5.0344   19.1560 C.3     1  UNL1        0.0335
     10 C          -9.6659   -6.5265   19.0074 C.3     1  UNL1        0.0477
     11 C         -10.5488   -6.9011   17.8541 C.ar    1  UNL1        0.0579
     12 C         -11.0700   -8.0547   17.0495 C.ar    1  UNL1        0.1133
     13 N         -11.9773   -7.5071   15.9879 N.ar    1  UNL1       -0.2227
     14 C         -12.0168   -6.0150   16.1364 C.ar    1  UNL1        0.1785
     15 N         -11.1339   -5.6404   17.2898 N.ar    1  UNL1       -0.3104
     16 N         -12.2548    2.7492   17.0016 N.1     1  UNL1       -0.1908
     17 C         -11.9264    1.3020   17.2201 C.1     1  UNL1        0.1005
@<TRIPOS>BOND
     1    16    17    3
     2    17     1    1
     3     1     2   ar
     4     2     3   ar
     5     3     4   ar
     6     8     4    1
     7     8     9    1
     8     9    10    1
     9    10    11    1
    10    11    12   ar
    11    12    13   ar
    12    13    14   ar
    13    14    15   ar
    14     4     5   ar
    15     5     6    1
    16     5     7   ar
    17     7     1   ar
    18    15     8    1
    19    15    11   ar
@<TRIPOS>MOLECULE
*****
 17 19 0 0 0
SMALL
GASTEIGER

@<TRIPOS>ATOM
      1 C         -15.5122   -8.6105   18.4283 C.ar    1  UNL1        0.0707
      2 C         -15.6419   -7.4306   19.3453 C.ar    1  UNL1        0.0102
      3 C         -14.5291   -6.4293   19.4411 C.ar    1  UNL1        0.0005
      4 C         -13.2866   -6.6080   18.6197 C.ar    1  UNL1        0.0258
      5 C         -13.1570   -7.7879   17.7028 C.ar    1  UNL1        0.1386
      6 F         -11.9146   -7.9666   16.8814 F       1  UNL1       -0.2044
      7 C         -14.2698   -8.7892   17.6070 C.ar    1  UNL1        0.0396
      8 C         -12.1739   -5.6067   18.7155 C.3     1  UNL1        0.1117
      9 C         -10.7276   -5.9170   18.9648 C.3     1  UNL1        0.0335
     10 C          -9.9719   -4.6214   18.9821 C.3     1  UNL1        0.0477
     11 C         -10.9510   -3.5104   18.7435 C.ar    1  UNL1        0.0579
     12 C         -11.0891   -2.0230   18.6067 C.ar    1  UNL1        0.1133
     13 N         -12.5353   -1.7128   18.3575 N.ar    1  UNL1       -0.2227
     14 C         -13.2911   -3.0084   18.3401 C.ar    1  UNL1        0.1785
     15 N         -12.3119   -4.1194   18.5787 N.ar    1  UNL1       -0.3104
     16 N         -17.7378  -10.6131   18.2368 N.1     1  UNL1       -0.1908
     17 C         -16.6250   -9.6118   18.3326 C.1     1  UNL1        0.1005
@<TRIPOS>BOND
     1    16    17    3
     2    17     1    1
     3     1     2   ar
     4     2     3   ar
     5     3     4   ar
     6     8     4    1
     7     8     9    1
     8     9    10    1
     9    10    11    1
    10    11    12   ar
    11    12    13   ar
    12    13    14   ar
    13    14    15   ar
    14     4     5   ar
    15     5     6    1
    16     5     7   ar
    17     7     1   ar
    18    15     8    1
    19    15    11   ar
@<TRIPOS>MOLECULE
*****
 17 19 0 0 0
SMALL
GASTEIGER

@<TRIPOS>ATOM
      1 C         -11.2439   -5.3674   17.5444 C.ar    1  UNL1        0.0707
      2 C         -12.0317   -6.2246   16.5985 C.ar    1  UNL1        0.0102
      3 C         -13.3426   -6.8107   17.0322 C.ar    1  UNL1        0.0005
      4 C         -13.8657   -6.5396   18.4117 C.ar    1  UNL1        0.0258
      5 C         -13.0778   -5.6824   19.3575 C.ar    1  UNL1        0.1386
      6 F         -13.6008   -5.4113   20.7370 F       1  UNL1       -0.2044
      7 C         -11.7669   -5.0963   18.9238 C.ar    1  UNL1        0.0396
      8 C         -15.1766   -7.1256   18.8454 C.3     1  UNL1        0.1117
      9 C         -16.2978   -6.3828   19.5096 C.3     1  UNL1        0.0335
     10 C         -17.4106   -7.3555   19.7657 C.3     1  UNL1        0.0477
     11 C         -16.9771   -8.6995   19.2598 C.ar    1  UNL1        0.0579
     12 C         -17.3970  -10.1312   19.1054 C.ar    1  UNL1        0.1133
     13 N         -16.2757  -10.8740   18.4413 N.ar    1  UNL1       -0.2227
     14 C         -15.1629   -9.9013   18.1852 C.ar    1  UNL1        0.1785
     15 N         -15.5964   -8.5574   18.6910 N.ar    1  UNL1       -0.3104
     16 N          -8.6221   -4.1953   16.6771 N.1     1  UNL1       -0.1908
     17 C          -9.9330   -4.7813   17.1107 C.1     1  UNL1        0.1005
@<TRIPOS>BOND
     1    16    17    3
     2    17     1    1
     3     1     2   ar
     4     2     3   ar
     5     3     4   ar
     6     8     4    1
     7     8     9    1
     8     9    10    1
     9    10    11    1
    10    11    12   ar
    11    12    13   ar
    12    13    14   ar
    13    14    15   ar
    14     4     5   ar
    15     5     6    1
    16     5     7   ar
    17     7     1   ar
    18    15     8    1
    19    15    11   ar
@<TRIPOS>MOLECULE
*****
 17 19 0 0 0
SMALL
GASTEIGER

@<TRIPOS>ATOM
      1 C          -7.9227  -15.9090   25.6011 C.ar    1  UNL1        0.0707
      2 C          -7.5178  -15.4806   24.2217 C.ar    1  UNL1        0.0102
      3 C          -8.1425  -16.1282   23.0216 C.ar    1  UNL1        0.0005
      4 C          -9.1723  -17.2042   23.2008 C.ar    1  UNL1        0.0258
      5 C          -9.5772  -17.6325   24.5802 C.ar    1  UNL1        0.1386
      6 F         -10.6069  -18.7084   24.7594 F       1  UNL1       -0.2044
      7 C          -8.9524  -16.9849   25.7803 C.ar    1  UNL1        0.0396
      8 C          -9.7970  -17.8517   22.0007 C.3     1  UNL1        0.1117
      9 C         -11.2460  -17.7869   21.6181 C.3     1  UNL1        0.0335
     10 C         -11.4270  -18.5730   20.3533 C.3     1  UNL1        0.0477
     11 C         -10.0899  -19.1236   19.9544 C.ar    1  UNL1        0.0579
     12 C          -9.3755  -19.9496   18.9262 C.ar    1  UNL1        0.1133
     13 N          -7.9266  -20.0144   19.3089 N.ar    1  UNL1       -0.2227
     14 C          -7.7455  -19.2284   20.5736 C.ar    1  UNL1        0.1785
     15 N          -9.0826  -18.6778   20.9725 N.ar    1  UNL1       -0.3104
     16 N          -6.6732  -14.6138   28.0014 N.1     1  UNL1       -0.1908
     17 C          -7.2980  -15.2614   26.8012 C.1     1  UNL1        0.1005
@<TRIPOS>BOND
     1    16    17    3
     2    17     1    1
     3     1     2   ar
     4     2     3   ar
     5     3     4   ar
     6     8     4    1
     7     8     9    1
     8     9    10    1
     9    10    11    1
    10    11    12   ar
    11    12    13   ar
    12    13    14   ar
    13    14    15   ar
    14     4     5   ar
    15     5     6    1
    16     5     7   ar
    17     7     1   ar
    18    15     8    1
    19    15    11   ar
@<TRIPOS>MOLECULE
*****
 17 19 0 0 0
SMALL
GASTEIGER

@<TRIPOS>ATOM
      1 C         -14.8611   -1.5784   19.7178 C.ar    1  UNL1        0.0707
      2 C         -13.8250   -1.2508   18.6838 C.ar    1  UNL1        0.0102
      3 C         -12.7596   -2.2514   18.3464 C.ar    1  UNL1        0.0005
      4 C         -12.7304   -3.5795   19.0430 C.ar    1  UNL1        0.0258
      5 C         -13.7665   -3.9071   20.0770 C.ar    1  UNL1        0.1386
      6 F         -13.7373   -5.2353   20.7736 F       1  UNL1       -0.2044
      7 C         -14.8319   -2.9065   20.4144 C.ar    1  UNL1        0.0396
      8 C         -11.6650   -4.5801   18.7056 C.3     1  UNL1        0.1117
      9 C         -10.1979   -4.4329   18.9819 C.3     1  UNL1        0.0335
     10 C          -9.5059   -5.6654   18.4797 C.3     1  UNL1        0.0477
     11 C         -10.5451   -6.5742   17.8932 C.ar    1  UNL1        0.0579
     12 C         -10.7596   -7.8976   17.2204 C.ar    1  UNL1        0.1133
     13 N         -12.2266   -8.0447   16.9442 N.ar    1  UNL1       -0.2227
     14 C         -12.9188   -6.8123   17.4463 C.ar    1  UNL1        0.1785
     15 N         -11.8795   -5.9035   18.0328 N.ar    1  UNL1       -0.3104
     16 N         -16.9919    0.4227   20.3926 N.1     1  UNL1       -0.1908
     17 C         -15.9265   -0.5779   20.0552 C.1     1  UNL1        0.1005
@<TRIPOS>BOND
     1    16    17    3
     2    17     1    1
     3     1     2   ar
     4     2     3   ar
     5     3     4   ar
     6     8     4    1
     7     8     9    1
     8     9    10    1
     9    10    11    1
    10    11    12   ar
    11    12    13   ar
    12    13    14   ar
    13    14    15   ar
    14     4     5   ar
    15     5     6    1
    16     5     7   ar
    17     7     1   ar
    18    15     8    1
    19    15    11   ar
@<TRIPOS>MOLECULE
*****
 17 19 0 0 0
SMALL
GASTEIGER

@<TRIPOS>ATOM
      1 C         -12.2361   -5.8462   19.1500 C.ar    1  UNL1        0.0707
      2 C         -13.3548   -5.0858   19.7986 C.ar    1  UNL1        0.0102
      3 C         -14.7404   -5.6601   19.8165 C.ar    1  UNL1        0.0005
      4 C         -15.0074   -6.9947   19.1858 C.ar    1  UNL1        0.0258
      5 C         -13.8888   -7.7550   18.5373 C.ar    1  UNL1        0.1386
      6 F         -14.1557   -9.0896   17.9066 F       1  UNL1       -0.2044
      7 C         -12.5031   -7.1807   18.5194 C.ar    1  UNL1        0.0396
      8 C         -16.3930   -7.5689   19.2038 C.3     1  UNL1        0.1117
      9 C         -16.8729   -8.6866   20.0816 C.3     1  UNL1        0.0335
     10 C         -18.3185   -8.9347   19.7673 C.3     1  UNL1        0.0477
     11 C         -18.7320   -7.9704   18.6954 C.ar    1  UNL1        0.0579
     12 C         -19.8810   -7.5278   17.8387 C.ar    1  UNL1        0.1133
     13 N         -19.4011   -6.4101   16.9610 N.ar    1  UNL1       -0.2227
     14 C         -17.9555   -6.1620   17.2751 C.ar    1  UNL1        0.1785
     15 N         -17.5420   -7.1263   18.3471 N.ar    1  UNL1       -0.3104
     16 N          -9.4649   -4.6978   19.1141 N.1     1  UNL1       -0.1908
     17 C         -10.8505   -5.2720   19.1320 C.1     1  UNL1        0.1005
@<TRIPOS>BOND
     1    16    17    3
     2    17     1    1
     3     1     2   ar
     4     2     3   ar
     5     3     4   ar
     6     8     4    1
     7     8     9    1
     8     9    10    1
     9    10    11    1
    10    11    12   ar
    11    12    13   ar
    12    13    14   ar
    13    14    15   ar
    14     4     5   ar
    15     5     6    1
    16     5     7   ar
    17     7     1   ar
    18    15     8    1
    19    15    11   ar
