@<TRIPOS>MOLECULE
*****
 21 23 0 0 0
SMALL
GASTEIGER

@<TRIPOS>ATOM
      1 C         -10.0207  -17.9970   21.7104 C.ar    1  UNL1        0.0252
      2 C         -11.1497  -18.4615   20.8390 C.ar    1  UNL1        0.0993
      3 N         -12.4548  -17.7222   20.8449 N.ar    1  UNL1       -0.2423
      4 C         -12.6308  -16.5182   21.7221 C.ar    1  UNL1        0.0989
      5 C         -11.5017  -16.0537   22.5935 C.ar    1  UNL1        0.0207
      6 C         -10.1966  -16.7931   22.5876 C.ar    1  UNL1        0.0036
      7 C          -9.0675  -16.3285   23.4590 C.ar    1  UNL1        0.0032
      8 C          -7.9004  -15.6069   22.8530 C.ar    1  UNL1        0.0207
      9 C          -6.7713  -15.1424   23.7243 C.ar    1  UNL1        0.0989
     10 N          -6.8092  -15.3995   25.2017 N.ar    1  UNL1       -0.2423
     11 C          -7.9763  -16.1211   25.8077 C.ar    1  UNL1        0.0989
     12 C          -9.1054  -16.5856   24.9363 C.ar    1  UNL1        0.0207
     13 C          -6.4957  -19.4960   21.0834 C.ar    1  UNL1        0.0230
     14 C          -6.9187  -20.2524   22.3077 C.ar    1  UNL1        0.0040
     15 C          -8.2906  -19.7829   22.6916 C.ar    1  UNL1        0.0067
     16 C          -8.7155  -18.7364   21.7045 C.ar    1  UNL1        0.0307
     17 S          -7.6062  -18.5591   20.7106 S.2     1  UNL1       -0.0899
     18 N          -4.6906  -18.5471   19.4736 N.3     1  UNL1       -0.3170
     19 C          -5.1912  -19.6496   20.3590 C.3     1  UNL1        0.0987
     20 H          -3.7967  -18.8190   19.0644 H       1  UNL1        0.1192
     21 H          -4.5679  -17.6976   20.0247 H       1  UNL1        0.1192
@<TRIPOS>BOND
     1    18    19    1
     2    19    13    1
     3    13    14   ar
     4    14    15   ar
     5    15    16   ar
     6    16     1    1
     7     1     2   ar
     8     2     3   ar
     9     3     4   ar
    10     4     5   ar
    11     5     6   ar
    12     6     7    1
    13     7     8   ar
    14     8     9   ar
    15     9    10   ar
    16    10    11   ar
    17    11    12   ar
    18    16    17   ar
    19    17    13   ar
    20     6     1   ar
    21    12     7   ar
    22    18    20    1
    23    18    21    1
@<TRIPOS>MOLECULE
*****
 21 23 0 0 0
SMALL
GASTEIGER

@<TRIPOS>ATOM
      1 C          -8.2103  -18.9285   21.4753 C.ar    1  UNL1        0.0252
      2 C          -6.9586  -19.7422   21.3301 C.ar    1  UNL1        0.0993
      3 N          -6.7604  -20.6034   20.1181 N.ar    1  UNL1       -0.2423
      4 C          -7.8139  -20.6510   19.0514 C.ar    1  UNL1        0.0989
      5 C          -9.0656  -19.8373   19.1966 C.ar    1  UNL1        0.0207
      6 C          -9.2638  -18.9761   20.4086 C.ar    1  UNL1        0.0036
      7 C         -10.5155  -18.1624   20.5539 C.ar    1  UNL1        0.0032
      8 C         -11.6534  -18.6785   21.3838 C.ar    1  UNL1        0.0207
      9 C         -12.9052  -17.8648   21.5292 C.ar    1  UNL1        0.0989
     10 N         -13.0190  -16.5350   20.8445 N.ar    1  UNL1       -0.2423
     11 C         -11.8811  -16.0189   20.0146 C.ar    1  UNL1        0.0989
     12 C         -10.6294  -16.8326   19.8693 C.ar    1  UNL1        0.0207
     13 C          -8.2296  -16.2406   24.2754 C.ar    1  UNL1        0.0230
     14 C          -9.1979  -17.2433   24.8295 C.ar    1  UNL1        0.0040
     15 C          -9.3085  -18.3722   23.8480 C.ar    1  UNL1        0.0067
     16 C          -8.4086  -18.0672   22.6873 C.ar    1  UNL1        0.0307
     17 S          -7.7418  -16.7498   22.9515 S.2     1  UNL1       -0.0899
     18 N          -7.1100  -14.9780   26.2508 N.3     1  UNL1       -0.3170
     19 C          -7.8208  -14.9544   24.9302 C.3     1  UNL1        0.0987
     20 H          -6.9094  -14.0225   26.5461 H       1  UNL1        0.1192
     21 H          -6.2360  -15.4955   26.1574 H       1  UNL1        0.1192
@<TRIPOS>BOND
     1    18    19    1
     2    19    13    1
     3    13    14   ar
     4    14    15   ar
     5    15    16   ar
     6    16     1    1
     7     1     2   ar
     8     2     3   ar
     9     3     4   ar
    10     4     5   ar
    11     5     6   ar
    12     6     7    1
    13     7     8   ar
    14     8     9   ar
    15     9    10   ar
    16    10    11   ar
    17    11    12   ar
    18    16    17   ar
    19    17    13   ar
    20     6     1   ar
    21    12     7   ar
    22    18    20    1
    23    18    21    1
@<TRIPOS>MOLECULE
*****
 21 23 0 0 0
SMALL
GASTEIGER

@<TRIPOS>ATOM
      1 C          -7.1314  -16.8198   23.4834 C.ar    1  UNL1        0.0252
      2 C          -5.8316  -16.1163   23.7392 C.ar    1  UNL1        0.0993
      3 N          -5.7409  -15.0766   24.8166 N.ar    1  UNL1       -0.2423
      4 C          -6.9501  -14.7403   25.6380 C.ar    1  UNL1        0.0989
      5 C          -8.2500  -15.4437   25.3821 C.ar    1  UNL1        0.0207
      6 C          -8.3406  -16.4835   24.3048 C.ar    1  UNL1        0.0036
      7 C          -9.6405  -17.1870   24.0489 C.ar    1  UNL1        0.0032
      8 C          -9.9130  -18.5157   24.6894 C.ar    1  UNL1        0.0207
      9 C         -11.2128  -19.2192   24.4335 C.ar    1  UNL1        0.0989
     10 N         -12.2402  -18.5940   23.5371 N.ar    1  UNL1       -0.2423
     11 C         -11.9678  -17.2653   22.8965 C.ar    1  UNL1        0.0989
     12 C         -10.6679  -16.5618   23.1524 C.ar    1  UNL1        0.0207
     13 C          -6.6903  -19.7265   20.9492 C.ar    1  UNL1        0.0230
     14 C          -8.0332  -19.1927   20.5470 C.ar    1  UNL1        0.0040
     15 C          -8.3619  -18.0388   21.4474 C.ar    1  UNL1        0.0067
     16 C          -7.2221  -17.8596   22.4060 C.ar    1  UNL1        0.0307
     17 S          -6.1891  -18.9026   22.0981 S.2     1  UNL1       -0.0899
     18 N          -4.4974  -20.8028   20.0645 N.3     1  UNL1       -0.3170
     19 C          -5.9744  -20.8815   20.3140 C.3     1  UNL1        0.0987
     20 H          -4.1794  -21.6692   19.6300 H       1  UNL1        0.1192
     21 H          -4.0097  -20.6676   20.9500 H       1  UNL1        0.1192
@<TRIPOS>BOND
     1    18    19    1
     2    19    13    1
     3    13    14   ar
     4    14    15   ar
     5    15    16   ar
     6    16     1    1
     7     1     2   ar
     8     2     3   ar
     9     3     4   ar
    10     4     5   ar
    11     5     6   ar
    12     6     7    1
    13     7     8   ar
    14     8     9   ar
    15     9    10   ar
    16    10    11   ar
    17    11    12   ar
    18    16    17   ar
    19    17    13   ar
    20     6     1   ar
    21    12     7   ar
    22    18    20    1
    23    18    21    1
@<TRIPOS>MOLECULE
*****
 21 23 0 0 0
SMALL
GASTEIGER

@<TRIPOS>ATOM
      1 C          -7.1162  -16.8969   23.4315 C.ar    1  UNL1        0.0252
      2 C          -5.7939  -16.2226   23.6474 C.ar    1  UNL1        0.0993
      3 N          -5.6578  -15.1564   24.6936 N.ar    1  UNL1       -0.2423
      4 C          -6.8440  -14.7644   25.5238 C.ar    1  UNL1        0.0989
      5 C          -8.1663  -15.4387   25.3079 C.ar    1  UNL1        0.0207
      6 C          -8.3024  -16.5050   24.2617 C.ar    1  UNL1        0.0036
      7 C          -9.6248  -17.1794   24.0457 C.ar    1  UNL1        0.0032
      8 C         -10.6605  -16.5367   23.1714 C.ar    1  UNL1        0.0207
      9 C         -11.9828  -17.2110   22.9554 C.ar    1  UNL1        0.0989
     10 N         -12.2696  -18.5280   23.6138 N.ar    1  UNL1       -0.2423
     11 C         -11.2339  -19.1707   24.4881 C.ar    1  UNL1        0.0989
     12 C          -9.9115  -18.4963   24.7041 C.ar    1  UNL1        0.0207
     13 C          -8.0340  -19.2291   20.4676 C.ar    1  UNL1        0.0230
     14 C          -6.8899  -19.9790   21.0830 C.ar    1  UNL1        0.0040
     15 C          -6.4069  -19.1966   22.2681 C.ar    1  UNL1        0.0067
     16 C          -7.2524  -17.9632   22.3852 C.ar    1  UNL1        0.0307
     17 S          -8.2581  -17.9833   21.2725 S.2     1  UNL1       -0.0899
     18 N         -10.3159  -19.6107   19.2855 N.3     1  UNL1       -0.3170
     19 C          -8.8167  -19.6510   19.2595 C.3     1  UNL1        0.0987
     20 H         -10.6802  -19.9287   18.3874 H       1  UNL1        0.1192
     21 H         -10.6274  -18.6551   19.4595 H       1  UNL1        0.1192
@<TRIPOS>BOND
     1    18    19    1
     2    19    13    1
     3    13    14   ar
     4    14    15   ar
     5    15    16   ar
     6    16     1    1
     7     1     2   ar
     8     2     3   ar
     9     3     4   ar
    10     4     5   ar
    11     5     6   ar
    12     6     7    1
    13     7     8   ar
    14     8     9   ar
    15     9    10   ar
    16    10    11   ar
    17    11    12   ar
    18    16    17   ar
    19    17    13   ar
    20     6     1   ar
    21    12     7   ar
    22    18    20    1
    23    18    21    1
@<TRIPOS>MOLECULE
*****
 21 23 0 0 0
SMALL
GASTEIGER

@<TRIPOS>ATOM
      1 C         -14.3343   -7.4852   18.5563 C.ar    1  UNL1        0.0252
      2 C         -14.4938   -8.9686   18.4014 C.ar    1  UNL1        0.0993
      3 N         -15.7305   -9.6472   18.9113 N.ar    1  UNL1       -0.2423
      4 C         -16.8078   -8.8423   19.5760 C.ar    1  UNL1        0.0989
      5 C         -16.6482   -7.3589   19.7309 C.ar    1  UNL1        0.0207
      6 C         -15.4115   -6.6804   19.2210 C.ar    1  UNL1        0.0036
      7 C         -15.2519   -5.1969   19.3759 C.ar    1  UNL1        0.0032
      8 C         -15.8463   -4.2684   18.3587 C.ar    1  UNL1        0.0207
      9 C         -15.6868   -2.7850   18.5135 C.ar    1  UNL1        0.0989
     10 N         -14.9328   -2.2300   19.6855 N.ar    1  UNL1       -0.2423
     11 C         -14.3385   -3.1585   20.7027 C.ar    1  UNL1        0.0989
     12 C         -14.4981   -4.6419   20.5479 C.ar    1  UNL1        0.0207
     13 C         -10.9090   -5.7613   17.9554 C.ar    1  UNL1        0.0230
     14 C         -11.4798   -5.7632   16.5682 C.ar    1  UNL1        0.0040
     15 C         -12.8324   -6.4092   16.6245 C.ar    1  UNL1        0.0067
     16 C         -13.0975   -6.8065   18.0464 C.ar    1  UNL1        0.0307
     17 S         -11.9088   -6.4061   18.8689 S.2     1  UNL1       -0.0899
     18 N          -9.4952   -4.0197   19.2661 N.3     1  UNL1       -0.3170
     19 C          -9.5729   -5.2112   18.3582 C.3     1  UNL1        0.0987
     20 H          -8.5172   -3.7834   19.4340 H       1  UNL1        0.1192
     21 H          -9.9494   -4.2378   20.1529 H       1  UNL1        0.1192
@<TRIPOS>BOND
     1    18    19    1
     2    19    13    1
     3    13    14   ar
     4    14    15   ar
     5    15    16   ar
     6    16     1    1
     7     1     2   ar
     8     2     3   ar
     9     3     4   ar
    10     4     5   ar
    11     5     6   ar
    12     6     7    1
    13     7     8   ar
    14     8     9   ar
    15     9    10   ar
    16    10    11   ar
    17    11    12   ar
    18    16    17   ar
    19    17    13   ar
    20     6     1   ar
    21    12     7   ar
    22    18    20    1
    23    18    21    1
@<TRIPOS>MOLECULE
*****
 21 23 0 0 0
SMALL
GASTEIGER

@<TRIPOS>ATOM
      1 C         -14.6307   -6.4076   19.0982 C.ar    1  UNL1        0.0252
      2 C         -15.8686   -7.2153   19.3534 C.ar    1  UNL1        0.0993
      3 N         -15.9765   -8.6120   18.8174 N.ar    1  UNL1       -0.2423
      4 C         -14.8464   -9.2011   18.0262 C.ar    1  UNL1        0.0989
      5 C         -13.6085   -8.3934   17.7710 C.ar    1  UNL1        0.0207
      6 C         -13.5007   -6.9967   18.3070 C.ar    1  UNL1        0.0036
      7 C         -12.2627   -6.1889   18.0518 C.ar    1  UNL1        0.0032
      8 C         -12.1964   -5.2722   16.8664 C.ar    1  UNL1        0.0207
      9 C         -10.9586   -4.4645   16.6112 C.ar    1  UNL1        0.0989
     10 N          -9.7869   -4.5734   17.5415 N.ar    1  UNL1       -0.2423
     11 C          -9.8531   -5.4901   18.7269 C.ar    1  UNL1        0.0989
     12 C         -11.0911   -6.2979   18.9821 C.ar    1  UNL1        0.0207
     13 C         -14.7907   -2.6133   19.9001 C.ar    1  UNL1        0.0230
     14 C         -13.9225   -3.1094   21.0182 C.ar    1  UNL1        0.0040
     15 C         -13.7569   -4.5911   20.8539 C.ar    1  UNL1        0.0067
     16 C         -14.5227   -5.0108   19.6343 C.ar    1  UNL1        0.0307
     17 S         -15.1617   -3.7884   19.0448 S.2     1  UNL1       -0.0899
     18 N         -16.3367   -0.6078   20.4816 N.3     1  UNL1       -0.3170
     19 C         -15.2137   -1.1916   19.6766 C.3     1  UNL1        0.0987
     20 H         -16.4887    0.3609   20.2007 H       1  UNL1        0.1192
     21 H         -16.0976   -0.6408   21.4727 H       1  UNL1        0.1192
@<TRIPOS>BOND
     1    18    19    1
     2    19    13    1
     3    13    14   ar
     4    14    15   ar
     5    15    16   ar
     6    16     1    1
     7     1     2   ar
     8     2     3   ar
     9     3     4   ar
    10     4     5   ar
    11     5     6   ar
    12     6     7    1
    13     7     8   ar
    14     8     9   ar
    15     9    10   ar
    16    10    11   ar
    17    11    12   ar
    18    16    17   ar
    19    17    13   ar
    20     6     1   ar
    21    12     7   ar
    22    18    20    1
    23    18    21    1
@<TRIPOS>MOLECULE
*****
 21 23 0 0 0
SMALL
GASTEIGER

@<TRIPOS>ATOM
      1 C           3.0850    0.3507   19.0715 C.ar    1  UNL1        0.0252
      2 C           2.2874    1.5579   18.6760 C.ar    1  UNL1        0.0993
      3 N           0.8628    1.6956   19.1250 N.ar    1  UNL1       -0.2423
      4 C           0.2359    0.6261   19.9695 C.ar    1  UNL1        0.0989
      5 C           1.0335   -0.5810   20.3651 C.ar    1  UNL1        0.0207
      6 C           2.4581   -0.7187   19.9161 C.ar    1  UNL1        0.0036
      7 C           3.2558   -1.9260   20.3116 C.ar    1  UNL1        0.0032
      8 C           3.3927   -3.0786   19.3616 C.ar    1  UNL1        0.0207
      9 C           4.1904   -4.2858   19.7570 C.ar    1  UNL1        0.0989
     10 N           4.8512   -4.3403   21.1026 N.ar    1  UNL1       -0.2423
     11 C           4.7142   -3.1877   22.0526 C.ar    1  UNL1        0.0989
     12 C           3.9165   -1.9804   21.6571 C.ar    1  UNL1        0.0207
     13 C           6.9329    0.3334   18.5629 C.ar    1  UNL1        0.0230
     14 C           6.4707   -0.3316   17.3002 C.ar    1  UNL1        0.0040
     15 C           4.9730   -0.4060   17.3371 C.ar    1  UNL1        0.0067
     16 C           4.5096    0.2130   18.6225 C.ar    1  UNL1        0.0307
     17 S           5.7209    0.6699   19.3800 S.2     1  UNL1       -0.0899
     18 N           9.2328    1.4166   18.0268 N.3     1  UNL1       -0.3170
     19 C           8.3572    0.6128   18.9417 C.3     1  UNL1        0.0987
     20 H          10.1615    1.5081   18.4386 H       1  UNL1        0.1192
     21 H           8.8268    2.3430   17.8946 H       1  UNL1        0.1192
@<TRIPOS>BOND
     1    18    19    1
     2    19    13    1
     3    13    14   ar
     4    14    15   ar
     5    15    16   ar
     6    16     1    1
     7     1     2   ar
     8     2     3   ar
     9     3     4   ar
    10     4     5   ar
    11     5     6   ar
    12     6     7    1
    13     7     8   ar
    14     8     9   ar
    15     9    10   ar
    16    10    11   ar
    17    11    12   ar
    18    16    17   ar
    19    17    13   ar
    20     6     1   ar
    21    12     7   ar
    22    18    20    1
    23    18    21    1
@<TRIPOS>MOLECULE
*****
 21 23 0 0 0
SMALL
GASTEIGER

@<TRIPOS>ATOM
      1 C           4.0449   -2.1214   21.4433 C.ar    1  UNL1        0.0252
      2 C           4.7935   -3.3515   21.8633 C.ar    1  UNL1        0.0993
      3 N           4.8027   -4.5626   20.9783 N.ar    1  UNL1       -0.2423
      4 C           4.0632   -4.5435   19.6734 C.ar    1  UNL1        0.0989
      5 C           3.3146   -3.3134   19.2534 C.ar    1  UNL1        0.0207
      6 C           3.3055   -2.1024   20.1383 C.ar    1  UNL1        0.0036
      7 C           2.5569   -0.8722   19.7184 C.ar    1  UNL1        0.0032
      8 C           3.2052    0.1246   18.8040 C.ar    1  UNL1        0.0207
      9 C           2.4566    1.3548   18.3840 C.ar    1  UNL1        0.0989
     10 N           1.0597    1.5881   18.8785 N.ar    1  UNL1       -0.2423
     11 C           0.4115    0.5913   19.7928 C.ar    1  UNL1        0.0989
     12 C           1.1601   -0.6389   20.2128 C.ar    1  UNL1        0.0207
     13 C           3.4765    0.6469   24.1039 C.ar    1  UNL1        0.0230
     14 C           4.5669    1.2600   23.2761 C.ar    1  UNL1        0.0040
     15 C           4.9125    0.2976   22.1787 C.ar    1  UNL1        0.0067
     16 C           4.0358   -0.9103   22.3283 C.ar    1  UNL1        0.0307
     17 S           3.1483   -0.6944   23.5181 S.2     1  UNL1       -0.0899
     18 N           1.6205    0.6239   25.9219 N.3     1  UNL1       -0.3170
     19 C           2.8282    1.2664   25.3064 C.3     1  UNL1        0.0987
     20 H           1.3139    1.1747   26.7237 H       1  UNL1        0.1192
     21 H           1.8564   -0.3201   26.2279 H       1  UNL1        0.1192
@<TRIPOS>BOND
     1    18    19    1
     2    19    13    1
     3    13    14   ar
     4    14    15   ar
     5    15    16   ar
     6    16     1    1
     7     1     2   ar
     8     2     3   ar
     9     3     4   ar
    10     4     5   ar
    11     5     6   ar
    12     6     7    1
    13     7     8   ar
    14     8     9   ar
    15     9    10   ar
    16    10    11   ar
    17    11    12   ar
    18    16    17   ar
    19    17    13   ar
    20     6     1   ar
    21    12     7   ar
    22    18    20    1
    23    18    21    1
@<TRIPOS>MOLECULE
*****
 21 23 0 0 0
SMALL
GASTEIGER

@<TRIPOS>ATOM
      1 C         -15.4654   -5.8417   18.8610 C.ar    1  UNL1        0.0252
      2 C         -16.8265   -5.6611   19.4648 C.ar    1  UNL1        0.0993
      3 N         -17.6249   -6.8589   19.8863 N.ar    1  UNL1       -0.2423
      4 C         -17.0622   -8.2373   19.7040 C.ar    1  UNL1        0.0989
      5 C         -15.7011   -8.4180   19.1001 C.ar    1  UNL1        0.0207
      6 C         -14.9027   -7.2201   18.6786 C.ar    1  UNL1        0.0036
      7 C         -13.5415   -7.4007   18.0747 C.ar    1  UNL1        0.0032
      8 C         -13.4067   -7.8030   16.6360 C.ar    1  UNL1        0.0207
      9 C         -12.0456   -7.9836   16.0321 C.ar    1  UNL1        0.0989
     10 N         -10.8192   -7.7619   16.8669 N.ar    1  UNL1       -0.2423
     11 C         -10.9540   -7.3595   18.3057 C.ar    1  UNL1        0.0989
     12 C         -12.3152   -7.1789   18.9096 C.ar    1  UNL1        0.0207
     13 C         -13.1816   -2.7251   18.4914 C.ar    1  UNL1        0.0230
     14 C         -13.6949   -2.8761   17.0900 C.ar    1  UNL1        0.0040
     15 C         -14.6129   -4.0619   17.0579 C.ar    1  UNL1        0.0067
     16 C         -14.6669   -4.6438   18.4394 C.ar    1  UNL1        0.0307
     17 S         -13.7824   -3.8176   19.3253 S.2     1  UNL1       -0.0899
     18 N         -10.7639   -1.9555   19.0502 N.3     1  UNL1       -0.3170
     19 C         -12.2339   -1.6672   18.9740 C.3     1  UNL1        0.0987
     20 H         -10.2733   -1.1310   19.3966 H       1  UNL1        0.1192
     21 H         -10.4154   -2.1933   18.1216 H       1  UNL1        0.1192
@<TRIPOS>BOND
     1    18    19    1
     2    19    13    1
     3    13    14   ar
     4    14    15   ar
     5    15    16   ar
     6    16     1    1
     7     1     2   ar
     8     2     3   ar
     9     3     4   ar
    10     4     5   ar
    11     5     6   ar
    12     6     7    1
    13     7     8   ar
    14     8     9   ar
    15     9    10   ar
    16    10    11   ar
    17    11    12   ar
    18    16    17   ar
    19    17    13   ar
    20     6     1   ar
    21    12     7   ar
    22    18    20    1
    23    18    21    1
