@<TRIPOS>MOLECULE
*****
 24 25 0 0 0
SMALL
GASTEIGER

@<TRIPOS>ATOM
      1 C          -5.3205  -16.7526   23.8121 C.ar    1  UNL1        0.1215
      2 C          -4.0967  -17.5694   23.5207 C.ar    1  UNL1        0.0165
      3 C          -4.1682  -18.7054   22.5439 C.ar    1  UNL1        0.0240
      4 C          -5.4636  -19.0246   21.8583 C.ar    1  UNL1        0.1557
      5 N          -6.6874  -18.2078   22.1496 N.ar    1  UNL1       -0.2071
      6 C          -6.6159  -17.0718   23.1265 C.ar    1  UNL1        0.2349
      7 C          -5.5351  -20.1607   20.8814 C.3     1  UNL1        0.4349
      8 F          -5.6066  -21.2967   19.9045 F       1  UNL1       -0.1644
      9 F          -4.6888  -19.3843   19.9165 F       1  UNL1       -0.1644
     10 F          -6.3814  -20.9371   21.8463 F       1  UNL1       -0.1644
     11 N          -5.1775  -14.4805   25.7658 N.1     1  UNL1       -0.1907
     12 C          -5.2490  -15.6165   24.7889 C.1     1  UNL1        0.1051
     13 O          -7.8399  -16.2549   23.4178 O.3     1  UNL1       -0.4556
     14 C          -9.1938  -16.9003   23.4007 C.3     1  UNL1        0.2279
     15 C         -10.1367  -16.6353   22.2646 C.ar    1  UNL1        0.1942
     16 C         -11.6303  -16.5376   22.3629 C.ar    1  UNL1        0.0634
     17 C         -12.1682  -16.2634   20.9897 C.ar    1  UNL1        0.1436
     18 N         -11.0071  -16.1917   20.0428 N.ar    1  UNL1       -0.0756
     19 O          -9.7516  -16.4216   20.8307 O.2     1  UNL1       -0.3541
     20 C          -9.6049  -17.8107   24.5198 C.3     1  UNL1        0.0685
     21 C          -9.7703  -19.2802   24.2689 C.3     1  UNL1        0.0694
     22 N         -10.1951  -20.1884   25.3845 N.3     1  UNL1       -0.3210
     23 H          -9.4645  -20.2178   26.0958 H       1  UNL1        0.1189
     24 H         -10.3508  -21.1274   25.0180 H       1  UNL1        0.1189
@<TRIPOS>BOND
     1    11    12    3
     2    12     1    1
     3     1     2   ar
     4     2     3   ar
     5     3     4   ar
     6     4     7    1
     7     7     8    1
     8     7     9    1
     9     7    10    1
    10     4     5   ar
    11     5     6   ar
    12     6    13    1
    13    13    14    1
    14    14    20    1
    15    20    21    1
    16    21    22    1
    17    14    15    1
    18    15    16   ar
    19    16    17   ar
    20    17    18   ar
    21    18    19   ar
    22     6     1   ar
    23    19    15   ar
    24    22    23    1
    25    22    24    1
@<TRIPOS>MOLECULE
*****
 24 25 0 0 0
SMALL
GASTEIGER

@<TRIPOS>ATOM
      1 C          -7.7612  -18.9785   21.6660 C.ar    1  UNL1        0.1215
      2 C          -6.6961  -20.0150   21.4632 C.ar    1  UNL1        0.0165
      3 C          -5.2860  -19.7352   21.8913 C.ar    1  UNL1        0.0240
      4 C          -4.9409  -18.4189   22.5222 C.ar    1  UNL1        0.1557
      5 N          -6.0060  -17.3823   22.7250 N.ar    1  UNL1       -0.2071
      6 C          -7.4161  -17.6621   22.2969 C.ar    1  UNL1        0.2349
      7 C          -3.5308  -18.1391   22.9503 C.3     1  UNL1        0.4349
      8 F          -2.1207  -17.8593   23.3784 F       1  UNL1       -0.1644
      9 F          -3.0829  -19.4208   22.3126 F       1  UNL1       -0.1644
     10 F          -3.9787  -16.8574   23.5880 F       1  UNL1       -0.1644
     11 N         -10.5814  -19.5380   20.8097 N.1     1  UNL1       -0.1907
     12 C          -9.1713  -19.2582   21.2379 C.1     1  UNL1        0.1051
     13 O          -8.4812  -16.6255   22.4997 O.3     1  UNL1       -0.4556
     14 C          -9.3616  -16.6821   23.7127 C.3     1  UNL1        0.2279
     15 C         -10.7795  -17.1556   23.5889 C.ar    1  UNL1        0.1942
     16 C         -11.8173  -16.5983   22.6603 C.ar    1  UNL1        0.0634
     17 C         -13.0877  -17.3679   22.8694 C.ar    1  UNL1        0.1436
     18 N         -12.8352  -18.4008   23.9273 N.ar    1  UNL1       -0.0756
     19 O         -11.4086  -18.2697   24.3719 O.2     1  UNL1       -0.3541
     20 C          -8.8242  -16.2652   25.0497 C.3     1  UNL1        0.0685
     21 C          -7.7186  -15.2548   25.1317 C.3     1  UNL1        0.0694
     22 N          -7.4270  -14.3654   23.9596 N.3     1  UNL1       -0.3210
     23 H          -7.0854  -14.9295   23.1815 H       1  UNL1        0.1189
     24 H          -6.7174  -13.6808   24.2206 H       1  UNL1        0.1189
@<TRIPOS>BOND
     1    11    12    3
     2    12     1    1
     3     1     2   ar
     4     2     3   ar
     5     3     4   ar
     6     4     7    1
     7     7     8    1
     8     7     9    1
     9     7    10    1
    10     4     5   ar
    11     5     6   ar
    12     6    13    1
    13    13    14    1
    14    14    20    1
    15    20    21    1
    16    21    22    1
    17    14    15    1
    18    15    16   ar
    19    16    17   ar
    20    17    18   ar
    21    18    19   ar
    22     6     1   ar
    23    19    15   ar
    24    22    23    1
    25    22    24    1
@<TRIPOS>MOLECULE
*****
 24 25 0 0 0
SMALL
GASTEIGER

@<TRIPOS>ATOM
      1 C          -7.9189  -19.2238   20.4887 C.ar    1  UNL1        0.1215
      2 C          -7.2185  -20.4895   20.0923 C.ar    1  UNL1        0.0165
      3 C          -5.7720  -20.6859   20.4374 C.ar    1  UNL1        0.0240
      4 C          -5.0259  -19.6166   21.1789 C.ar    1  UNL1        0.1557
      5 N          -5.7264  -18.3509   21.5753 N.ar    1  UNL1       -0.2071
      6 C          -7.1729  -18.1544   21.2302 C.ar    1  UNL1        0.2349
      7 C          -3.5794  -19.8130   21.5240 C.3     1  UNL1        0.4349
      8 F          -2.1330  -20.0094   21.8691 F       1  UNL1       -0.1644
      9 F          -3.3402  -20.4222   20.1743 F       1  UNL1       -0.1644
     10 F          -3.8187  -19.2039   22.8737 F       1  UNL1       -0.1644
     11 N         -10.8119  -18.8309   19.7985 N.1     1  UNL1       -0.1907
     12 C          -9.3654  -19.0273   20.1436 C.1     1  UNL1        0.1051
     13 O          -7.8733  -16.8886   21.6267 O.3     1  UNL1       -0.4556
     14 C          -8.2158  -16.6401   23.0658 C.3     1  UNL1        0.2279
     15 C          -7.2093  -16.0025   23.9770 C.ar    1  UNL1        0.1942
     16 C          -7.3770  -15.7671   25.4489 C.ar    1  UNL1        0.0634
     17 C          -6.1297  -15.1075   25.9580 C.ar    1  UNL1        0.1436
     18 N          -5.1911  -14.9353   24.8007 N.ar    1  UNL1       -0.0756
     19 O          -5.8583  -15.4885   23.5764 O.2     1  UNL1       -0.3541
     20 C          -9.5650  -17.0292   23.5936 C.3     1  UNL1        0.0685
     21 C         -10.8072  -16.5037   22.9373 C.3     1  UNL1        0.0694
     22 N         -10.7345  -15.9079   21.5627 N.3     1  UNL1       -0.3210
     23 H         -10.1816  -15.0512   21.5923 H       1  UNL1        0.1189
     24 H         -11.6762  -15.6936   21.2348 H       1  UNL1        0.1189
@<TRIPOS>BOND
     1    11    12    3
     2    12     1    1
     3     1     2   ar
     4     2     3   ar
     5     3     4   ar
     6     4     7    1
     7     7     8    1
     8     7     9    1
     9     7    10    1
    10     4     5   ar
    11     5     6   ar
    12     6    13    1
    13    13    14    1
    14    14    20    1
    15    20    21    1
    16    21    22    1
    17    14    15    1
    18    15    16   ar
    19    16    17   ar
    20    17    18   ar
    21    18    19   ar
    22     6     1   ar
    23    19    15   ar
    24    22    23    1
    25    22    24    1
@<TRIPOS>MOLECULE
*****
 24 25 0 0 0
SMALL
GASTEIGER

@<TRIPOS>ATOM
      1 C          -9.8854  -18.2185   20.5391 C.ar    1  UNL1        0.1215
      2 C          -9.6022  -19.3227   19.5642 C.ar    1  UNL1        0.0165
      3 C          -8.2120  -19.8711   19.4353 C.ar    1  UNL1        0.0240
      4 C          -7.1050  -19.3152   20.2811 C.ar    1  UNL1        0.1557
      5 N          -7.3883  -18.2109   21.2560 N.ar    1  UNL1       -0.2071
      6 C          -8.7785  -17.6626   21.3850 C.ar    1  UNL1        0.2349
      7 C          -5.7148  -19.8635   20.1521 C.3     1  UNL1        0.4349
      8 F          -4.3246  -20.4119   20.0231 F       1  UNL1       -0.1644
      9 F          -5.2818  -18.6035   19.4630 F       1  UNL1       -0.1644
     10 F          -6.1479  -21.1235   20.8413 F       1  UNL1       -0.1644
     11 N         -12.6659  -17.1218   20.7971 N.1     1  UNL1       -0.1907
     12 C         -11.2756  -17.6701   20.6681 C.1     1  UNL1        0.1051
     13 O          -9.0617  -16.5583   22.3599 O.3     1  UNL1       -0.4556
     14 C          -8.8708  -16.7882   23.8298 C.3     1  UNL1        0.2279
     15 C          -7.7562  -16.0977   24.5584 C.ar    1  UNL1        0.1942
     16 C          -7.6473  -15.9264   26.0446 C.ar    1  UNL1        0.0634
     17 C          -6.3786  -15.1801   26.3335 C.ar    1  UNL1        0.1436
     18 N          -5.7034  -14.8902   25.0259 N.ar    1  UNL1       -0.0756
     19 O          -6.5548  -15.4573   23.9288 O.2     1  UNL1       -0.3541
     20 C          -9.7945  -17.7087   24.5711 C.3     1  UNL1        0.0685
     21 C          -9.6708  -19.1936   24.3991 C.3     1  UNL1        0.0694
     22 N         -10.2496  -20.1187   25.4283 N.3     1  UNL1       -0.3210
     23 H          -9.7459  -20.0062   26.3081 H       1  UNL1        0.1189
     24 H         -10.1614  -21.0827   25.1069 H       1  UNL1        0.1189
@<TRIPOS>BOND
     1    11    12    3
     2    12     1    1
     3     1     2   ar
     4     2     3   ar
     5     3     4   ar
     6     4     7    1
     7     7     8    1
     8     7     9    1
     9     7    10    1
    10     4     5   ar
    11     5     6   ar
    12     6    13    1
    13    13    14    1
    14    14    20    1
    15    20    21    1
    16    21    22    1
    17    14    15    1
    18    15    16   ar
    19    16    17   ar
    20    17    18   ar
    21    18    19   ar
    22     6     1   ar
    23    19    15   ar
    24    22    23    1
    25    22    24    1
@<TRIPOS>MOLECULE
*****
 24 25 0 0 0
SMALL
GASTEIGER

@<TRIPOS>ATOM
      1 C         -10.3479  -18.9854   20.9532 C.ar    1  UNL1        0.1215
      2 C         -11.7179  -18.4252   20.7099 C.ar    1  UNL1        0.0165
      3 C         -12.6502  -18.1964   21.8625 C.ar    1  UNL1        0.0240
      4 C         -12.2124  -18.5278   23.2584 C.ar    1  UNL1        0.1557
      5 N         -10.8424  -19.0879   23.5017 N.ar    1  UNL1       -0.2071
      6 C          -9.9101  -19.3168   22.3491 C.ar    1  UNL1        0.2349
      7 C         -13.1447  -18.2990   24.4110 C.3     1  UNL1        0.4349
      8 F         -14.0770  -18.0701   25.5636 F       1  UNL1       -0.1644
      9 F         -12.2481  -19.1114   25.2975 F       1  UNL1       -0.1644
     10 F         -14.0414  -17.4865   23.5244 F       1  UNL1       -0.1644
     11 N          -8.4833  -19.4430   18.6480 N.1     1  UNL1       -0.1907
     12 C          -9.4156  -19.2142   19.8006 C.1     1  UNL1        0.1051
     13 O          -8.5401  -19.8770   22.5925 O.3     1  UNL1       -0.4556
     14 C          -7.3294  -19.0182   22.3764 C.3     1  UNL1        0.2279
     15 C          -7.4389  -17.5262   22.4861 C.ar    1  UNL1        0.1942
     16 C          -7.2363  -16.7165   23.7324 C.ar    1  UNL1        0.0634
     17 C          -7.4424  -15.2719   23.3853 C.ar    1  UNL1        0.1436
     18 N          -7.7724  -15.1887   21.9244 N.ar    1  UNL1       -0.0756
     19 O          -7.7703  -16.5819   21.3687 O.2     1  UNL1       -0.3541
     20 C          -6.0091  -19.6514   22.0506 C.3     1  UNL1        0.0685
     21 C          -5.1537  -19.0823   20.9577 C.3     1  UNL1        0.0694
     22 N          -5.7897  -18.5499   19.7079 N.3     1  UNL1       -0.3210
     23 H          -6.2308  -19.3154   19.1983 H       1  UNL1        0.1189
     24 H          -5.0763  -18.1174   19.1211 H       1  UNL1        0.1189
@<TRIPOS>BOND
     1    11    12    3
     2    12     1    1
     3     1     2   ar
     4     2     3   ar
     5     3     4   ar
     6     4     7    1
     7     7     8    1
     8     7     9    1
     9     7    10    1
    10     4     5   ar
    11     5     6   ar
    12     6    13    1
    13    13    14    1
    14    14    20    1
    15    20    21    1
    16    21    22    1
    17    14    15    1
    18    15    16   ar
    19    16    17   ar
    20    17    18   ar
    21    18    19   ar
    22     6     1   ar
    23    19    15   ar
    24    22    23    1
    25    22    24    1
@<TRIPOS>MOLECULE
*****
 24 25 0 0 0
SMALL
GASTEIGER

@<TRIPOS>ATOM
      1 C          -5.2262  -16.8322   23.6971 C.ar    1  UNL1        0.1215
      2 C          -4.0111  -17.6838   23.4776 C.ar    1  UNL1        0.0165
      3 C          -4.0631  -18.8302   22.5117 C.ar    1  UNL1        0.0240
      4 C          -5.3303  -19.1251   21.7652 C.ar    1  UNL1        0.1557
      5 N          -6.5454  -18.2735   21.9847 N.ar    1  UNL1       -0.2071
      6 C          -6.4934  -17.1271   22.9506 C.ar    1  UNL1        0.2349
      7 C          -5.3823  -20.2715   20.7993 C.3     1  UNL1        0.4349
      8 F          -5.4343  -21.4179   19.8334 F       1  UNL1       -0.1644
      9 F          -3.8874  -20.2386   20.6798 F       1  UNL1       -0.1644
     10 F          -6.8771  -20.3044   20.9189 F       1  UNL1       -0.1644
     11 N          -5.1222  -14.5393   25.6289 N.1     1  UNL1       -0.1907
     12 C          -5.1742  -15.6858   24.6630 C.1     1  UNL1        0.1051
     13 O          -7.7086  -16.2755   23.1700 O.3     1  UNL1       -0.4556
     14 C          -8.6735  -16.6141   24.2674 C.3     1  UNL1        0.2279
     15 C          -9.4099  -17.9206   24.2419 C.ar    1  UNL1        0.1942
     16 C         -10.0751  -18.5346   23.0459 C.ar    1  UNL1        0.0634
     17 C         -10.6868  -19.8360   23.4728 C.ar    1  UNL1        0.1436
     18 N         -10.3997  -20.0263   24.9327 N.ar    1  UNL1       -0.0756
     19 O          -9.6105  -18.8425   25.4081 O.2     1  UNL1       -0.3541
     20 C          -8.9020  -15.6461   25.3903 C.3     1  UNL1        0.0685
     21 C          -8.2688  -15.8869   26.7286 C.3     1  UNL1        0.0694
     22 N          -7.5697  -14.7666   27.4400 N.3     1  UNL1       -0.3210
     23 H          -6.7448  -14.4885   26.9083 H       1  UNL1        0.1189
     24 H          -7.2864  -15.0780   28.3690 H       1  UNL1        0.1189
@<TRIPOS>BOND
     1    11    12    3
     2    12     1    1
     3     1     2   ar
     4     2     3   ar
     5     3     4   ar
     6     4     7    1
     7     7     8    1
     8     7     9    1
     9     7    10    1
    10     4     5   ar
    11     5     6   ar
    12     6    13    1
    13    13    14    1
    14    14    20    1
    15    20    21    1
    16    21    22    1
    17    14    15    1
    18    15    16   ar
    19    16    17   ar
    20    17    18   ar
    21    18    19   ar
    22     6     1   ar
    23    19    15   ar
    24    22    23    1
    25    22    24    1
@<TRIPOS>MOLECULE
*****
 24 25 0 0 0
SMALL
GASTEIGER

@<TRIPOS>ATOM
      1 C          -6.9517  -19.6632   20.1804 C.ar    1  UNL1        0.1215
      2 C          -5.8726  -20.6708   19.9157 C.ar    1  UNL1        0.0165
      3 C          -4.5091  -20.4837   20.5122 C.ar    1  UNL1        0.0240
      4 C          -4.2247  -19.2890   21.3734 C.ar    1  UNL1        0.1557
      5 N          -5.3039  -18.2814   21.6381 N.ar    1  UNL1       -0.2071
      6 C          -6.6674  -18.4685   21.0416 C.ar    1  UNL1        0.2349
      7 C          -2.8612  -19.1018   21.9700 C.3     1  UNL1        0.4349
      8 F          -1.4977  -18.9147   22.5665 F       1  UNL1       -0.1644
      9 F          -2.2831  -20.0239   20.9377 F       1  UNL1       -0.1644
     10 F          -3.4394  -18.1798   23.0022 F       1  UNL1       -0.1644
     11 N          -9.6787  -20.0374   18.9873 N.1     1  UNL1       -0.1907
     12 C          -8.3152  -19.8503   19.5839 C.1     1  UNL1        0.1051
     13 O          -7.7466  -17.4608   21.3064 O.3     1  UNL1       -0.4556
     14 C          -8.3010  -17.3019   22.6910 C.3     1  UNL1        0.2279
     15 C          -8.8532  -18.4915   23.4189 C.ar    1  UNL1        0.1942
     16 C          -9.8913  -18.4592   24.5012 C.ar    1  UNL1        0.0634
     17 C         -10.1440  -19.8700   24.9435 C.ar    1  UNL1        0.1436
     18 N          -9.2621  -20.7744   24.1346 N.ar    1  UNL1       -0.0756
     19 O          -8.4644  -19.9224   23.1923 O.2     1  UNL1       -0.3541
     20 C          -8.3032  -15.9533   23.3479 C.3     1  UNL1        0.0685
     21 C          -7.0142  -15.3438   23.8137 C.3     1  UNL1        0.0694
     22 N          -5.7102  -16.0143   23.4975 N.3     1  UNL1       -0.3210
     23 H          -5.6614  -16.9095   23.9840 H       1  UNL1        0.1189
     24 H          -4.9395  -15.4195   23.8018 H       1  UNL1        0.1189
@<TRIPOS>BOND
     1    11    12    3
     2    12     1    1
     3     1     2   ar
     4     2     3   ar
     5     3     4   ar
     6     4     7    1
     7     7     8    1
     8     7     9    1
     9     7    10    1
    10     4     5   ar
    11     5     6   ar
    12     6    13    1
    13    13    14    1
    14    14    20    1
    15    20    21    1
    16    21    22    1
    17    14    15    1
    18    15    16   ar
    19    16    17   ar
    20    17    18   ar
    21    18    19   ar
    22     6     1   ar
    23    19    15   ar
    24    22    23    1
    25    22    24    1
@<TRIPOS>MOLECULE
*****
 24 25 0 0 0
SMALL
GASTEIGER

@<TRIPOS>ATOM
      1 C         -10.2093  -18.9842   20.8626 C.ar    1  UNL1        0.1215
      2 C         -11.6414  -18.6149   20.6127 C.ar    1  UNL1        0.0165
      3 C         -12.5780  -18.4188   21.7679 C.ar    1  UNL1        0.0240
      4 C         -12.0824  -18.5920   23.1730 C.ar    1  UNL1        0.1557
      5 N         -10.6502  -18.9613   23.4229 N.ar    1  UNL1       -0.2071
      6 C          -9.7137  -19.1574   22.2677 C.ar    1  UNL1        0.2349
      7 C         -13.0189  -18.3959   24.3281 C.3     1  UNL1        0.4349
      8 F         -13.9555  -18.1999   25.4833 F       1  UNL1       -0.1644
      9 F         -11.9868  -18.9578   25.2603 F       1  UNL1       -0.1644
     10 F         -14.0511  -17.8341   23.3960 F       1  UNL1       -0.1644
     11 N          -8.3362  -19.3764   18.5523 N.1     1  UNL1       -0.1907
     12 C          -9.2727  -19.1803   19.7075 C.1     1  UNL1        0.1051
     13 O          -8.2814  -19.5267   22.5177 O.3     1  UNL1       -0.4556
     14 C          -7.2111  -18.4794   22.4328 C.3     1  UNL1        0.2279
     15 C          -5.9286  -18.7742   21.7129 C.ar    1  UNL1        0.1942
     16 C          -4.7240  -19.4497   22.2983 C.ar    1  UNL1        0.0634
     17 C          -3.6765  -19.5384   21.2284 C.ar    1  UNL1        0.1436
     18 N          -4.2336  -18.9177   19.9816 N.ar    1  UNL1       -0.0756
     19 O          -5.6255  -18.4455   20.2811 O.2     1  UNL1       -0.3541
     20 C          -7.4231  -17.1370   23.0679 C.3     1  UNL1        0.0685
     21 C          -8.2326  -16.0916   22.3595 C.3     1  UNL1        0.0694
     22 N          -7.6613  -14.7223   22.1396 N.3     1  UNL1       -0.3210
     23 H          -7.5335  -14.2587   23.0391 H       1  UNL1        0.1189
     24 H          -8.3010  -14.1755   21.5632 H       1  UNL1        0.1189
@<TRIPOS>BOND
     1    11    12    3
     2    12     1    1
     3     1     2   ar
     4     2     3   ar
     5     3     4   ar
     6     4     7    1
     7     7     8    1
     8     7     9    1
     9     7    10    1
    10     4     5   ar
    11     5     6   ar
    12     6    13    1
    13    13    14    1
    14    14    20    1
    15    20    21    1
    16    21    22    1
    17    14    15    1
    18    15    16   ar
    19    16    17   ar
    20    17    18   ar
    21    18    19   ar
    22     6     1   ar
    23    19    15   ar
    24    22    23    1
    25    22    24    1
@<TRIPOS>MOLECULE
*****
 24 25 0 0 0
SMALL
GASTEIGER

@<TRIPOS>ATOM
      1 C          -5.1170  -16.8628   23.6984 C.ar    1  UNL1        0.1215
      2 C          -3.7957  -17.5619   23.5743 C.ar    1  UNL1        0.0165
      3 C          -3.6134  -18.6453   22.5530 C.ar    1  UNL1        0.0240
      4 C          -4.7524  -19.0296   21.6558 C.ar    1  UNL1        0.1557
      5 N          -6.0737  -18.3305   21.7799 N.ar    1  UNL1       -0.2071
      6 C          -6.2560  -17.2471   22.8012 C.ar    1  UNL1        0.2349
      7 C          -4.5701  -20.1129   20.6345 C.3     1  UNL1        0.4349
      8 F          -4.3878  -21.1963   19.6132 F       1  UNL1       -0.1644
      9 F          -3.1306  -20.2474   21.0341 F       1  UNL1       -0.1644
     10 F          -6.0096  -19.9785   20.2349 F       1  UNL1       -0.1644
     11 N          -5.4816  -14.6960   25.7410 N.1     1  UNL1       -0.1907
     12 C          -5.2993  -15.7794   24.7197 C.1     1  UNL1        0.1051
     13 O          -7.5773  -16.5480   22.9253 O.3     1  UNL1       -0.4556
     14 C          -8.8486  -17.2908   22.6390 C.3     1  UNL1        0.2279
     15 C          -9.2228  -18.4842   23.4671 C.ar    1  UNL1        0.1942
     16 C         -10.1539  -18.4843   24.6432 C.ar    1  UNL1        0.0634
     17 C         -10.2382  -19.8871   25.1676 C.ar    1  UNL1        0.1436
     18 N          -9.3593  -20.7540   24.3156 N.ar    1  UNL1       -0.0756
     19 O          -8.7318  -19.8869   23.2646 O.2     1  UNL1       -0.3541
     20 C          -9.7458  -16.8402   21.5244 C.3     1  UNL1        0.0685
     21 C         -10.8121  -17.7571   21.0027 C.3     1  UNL1        0.0694
     22 N         -12.0721  -17.1877   20.4212 N.3     1  UNL1       -0.3210
     23 H         -12.5994  -16.7115   21.1530 H       1  UNL1        0.1189
     24 H         -12.6373  -17.9416   20.0306 H       1  UNL1        0.1189
@<TRIPOS>BOND
     1    11    12    3
     2    12     1    1
     3     1     2   ar
     4     2     3   ar
     5     3     4   ar
     6     4     7    1
     7     7     8    1
     8     7     9    1
     9     7    10    1
    10     4     5   ar
    11     5     6   ar
    12     6    13    1
    13    13    14    1
    14    14    20    1
    15    20    21    1
    16    21    22    1
    17    14    15    1
    18    15    16   ar
    19    16    17   ar
    20    17    18   ar
    21    18    19   ar
    22     6     1   ar
    23    19    15   ar
    24    22    23    1
    25    22    24    1
