@<TRIPOS>MOLECULE
*****
 24 27 0 0 0
SMALL
GASTEIGER

@<TRIPOS>ATOM
      1 C          -7.3891  -19.0701   20.8568 C.ar    1  UNL1        0.0206
      2 C          -8.2104  -19.6224   19.7298 C.ar    1  UNL1        0.0989
      3 N          -9.6835  -19.3462   19.6698 N.ar    1  UNL1       -0.2423
      4 C         -10.3353  -18.5176   20.7368 C.ar    1  UNL1        0.0985
      5 C         -11.7559  -18.0816   20.9414 C.ar    1  UNL1        0.0392
      6 C         -11.8126  -17.2597   22.1950 C.ar    1  UNL1        0.0779
      7 N         -10.4270  -17.1878   22.7651 N.ar    1  UNL1       -0.3165
      8 C          -9.5140  -17.9652   21.8639 C.ar    1  UNL1        0.0782
      9 C          -8.0409  -18.2414   21.9239 C.ar    1  UNL1        0.0203
     10 C          -2.7065  -18.0934   22.8866 C.3     1  UNL1        0.0334
     11 C          -3.5747  -18.8580   21.9318 C.ar    1  UNL1        0.0056
     12 C          -5.0478  -18.5817   21.8717 C.ar    1  UNL1       -0.0020
     13 C          -5.9160  -19.3463   20.9169 C.ar    1  UNL1        0.0014
     14 C          -5.3110  -20.3871   20.0221 C.ar    1  UNL1        0.0023
     15 C          -3.8379  -20.6634   20.0821 C.ar    1  UNL1        0.0293
     16 C          -2.9697  -19.8988   21.0369 C.ar    1  UNL1        0.1361
     17 F          -1.4966  -20.1751   21.0970 F       1  UNL1       -0.2045
     18 C         -10.0249  -16.4654   24.0166 C.3     1  UNL1        0.1920
     19 C          -8.6648  -15.8410   24.1182 C.2     1  UNL1        0.2487
     20 O          -8.0307  -15.2235   22.9071 O.2     1  UNL1       -0.2728
     21 N          -7.9388  -15.8341   25.4307 N.am    1  UNL1       -0.2778
     22 C          -6.6113  -15.3223   25.9059 C.3     1  UNL1        0.0952
     23 C          -6.9120  -15.8244   27.2870 C.3     1  UNL1        0.0430
     24 C          -8.2395  -16.3362   26.8118 C.3     1  UNL1        0.0952
@<TRIPOS>BOND
     1    10    11    1
     2    11    12   ar
     3    12    13   ar
     4    13     1    1
     5     1     2   ar
     6     2     3   ar
     7     3     4   ar
     8     4     5   ar
     9     5     6   ar
    10     6     7   ar
    11     7    18    1
    12    18    19    1
    13    19    20    2
    14    19    21   am
    15    21    22    1
    16    22    23    1
    17    23    24    1
    18     7     8   ar
    19     8     9   ar
    20    13    14   ar
    21    14    15   ar
    22    15    16   ar
    23    16    17    1
    24    16    11   ar
    25     9     1   ar
    26     8     4   ar
    27    24    21    1
@<TRIPOS>MOLECULE
*****
 24 27 0 0 0
SMALL
GASTEIGER

@<TRIPOS>ATOM
      1 C          -7.6534  -19.0985   21.2970 C.ar    1  UNL1        0.0206
      2 C          -7.0914  -20.1349   20.3698 C.ar    1  UNL1        0.0989
      3 N          -5.6150  -20.3987   20.3463 N.ar    1  UNL1       -0.2423
      4 C          -4.7006  -19.6260   21.2501 C.ar    1  UNL1        0.0985
      5 C          -3.2140  -19.6669   21.4469 C.ar    1  UNL1        0.0392
      6 C          -2.8574  -18.6557   22.4958 C.ar    1  UNL1        0.0779
      7 N          -4.1235  -17.9899   22.9473 N.ar    1  UNL1       -0.3165
      8 C          -5.2626  -18.5896   22.1774 C.ar    1  UNL1        0.0782
      9 C          -6.7390  -18.3258   22.2008 C.ar    1  UNL1        0.0203
     10 C         -12.0582  -18.4010   23.9637 C.3     1  UNL1        0.0334
     11 C         -11.3323  -18.4859   22.6539 C.ar    1  UNL1        0.0056
     12 C          -9.8558  -18.7497   22.6304 C.ar    1  UNL1       -0.0020
     13 C          -9.1299  -18.8347   21.3205 C.ar    1  UNL1        0.0014
     14 C          -9.8803  -18.6558   20.0342 C.ar    1  UNL1        0.0023
     15 C         -11.3567  -18.3920   20.0576 C.ar    1  UNL1        0.0293
     16 C         -12.0828  -18.3070   21.3675 C.ar    1  UNL1        0.1361
     17 F         -13.5592  -18.0432   21.3910 F       1  UNL1       -0.2045
     18 C          -4.2315  -16.9134   23.9862 C.3     1  UNL1        0.1920
     19 C          -5.0745  -15.7005   23.7247 C.2     1  UNL1        0.2487
     20 O          -4.5596  -14.6064   22.8371 O.2     1  UNL1       -0.2728
     21 N          -6.4324  -15.5818   24.3508 N.am    1  UNL1       -0.2778
     22 C          -7.5265  -14.5560   24.3244 C.3     1  UNL1        0.0952
     23 C          -8.3528  -15.4138   25.2362 C.3     1  UNL1        0.0430
     24 C          -7.2586  -16.4396   25.2626 C.3     1  UNL1        0.0952
@<TRIPOS>BOND
     1    10    11    1
     2    11    12   ar
     3    12    13   ar
     4    13     1    1
     5     1     2   ar
     6     2     3   ar
     7     3     4   ar
     8     4     5   ar
     9     5     6   ar
    10     6     7   ar
    11     7    18    1
    12    18    19    1
    13    19    20    2
    14    19    21   am
    15    21    22    1
    16    22    23    1
    17    23    24    1
    18     7     8   ar
    19     8     9   ar
    20    13    14   ar
    21    14    15   ar
    22    15    16   ar
    23    16    17    1
    24    16    11   ar
    25     9     1   ar
    26     8     4   ar
    27    24    21    1
@<TRIPOS>MOLECULE
*****
 24 27 0 0 0
SMALL
GASTEIGER

@<TRIPOS>ATOM
      1 C          -6.6435  -19.1009   20.6254 C.ar    1  UNL1        0.0206
      2 C          -7.2313  -19.9449   19.5336 C.ar    1  UNL1        0.0989
      3 N          -8.7201  -20.0718   19.4028 N.ar    1  UNL1       -0.2423
      4 C          -9.6213  -19.3547   20.3639 C.ar    1  UNL1        0.0985
      5 C         -11.1153  -19.2915   20.4824 C.ar    1  UNL1        0.0392
      6 C         -11.4509  -18.4084   21.6475 C.ar    1  UNL1        0.0779
      7 N         -10.1643  -17.9259   22.2491 N.ar    1  UNL1       -0.3165
      8 C          -9.0335  -18.5107   21.4558 C.ar    1  UNL1        0.0782
      9 C          -7.5447  -18.3838   21.5865 C.ar    1  UNL1        0.0203
     10 C          -2.0109  -18.0780   18.5059 C.3     1  UNL1        0.0334
     11 C          -2.8383  -18.4625   19.6965 C.ar    1  UNL1        0.0056
     12 C          -4.3272  -18.5895   19.5657 C.ar    1  UNL1       -0.0020
     13 C          -5.1546  -18.9740   20.7563 C.ar    1  UNL1        0.0014
     14 C          -4.4932  -19.2316   22.0777 C.ar    1  UNL1        0.0023
     15 C          -3.0043  -19.1047   22.2085 C.ar    1  UNL1        0.0293
     16 C          -2.1768  -18.7201   21.0179 C.ar    1  UNL1        0.1361
     17 F          -0.6880  -18.5932   21.1488 F       1  UNL1       -0.2045
     18 C         -10.0317  -17.0179   23.4356 C.3     1  UNL1        0.1920
     19 C          -9.6420  -17.5802   24.7705 C.2     1  UNL1        0.2487
     20 O          -9.9751  -19.0024   25.1114 O.2     1  UNL1       -0.2728
     21 N          -8.9192  -16.7202   25.7646 N.am    1  UNL1       -0.2778
     22 C          -8.3850  -16.9224   27.1516 C.3     1  UNL1        0.0952
     23 C          -7.8971  -15.5041   27.1704 C.3     1  UNL1        0.0430
     24 C          -8.4313  -15.3020   25.7833 C.3     1  UNL1        0.0952
@<TRIPOS>BOND
     1    10    11    1
     2    11    12   ar
     3    12    13   ar
     4    13     1    1
     5     1     2   ar
     6     2     3   ar
     7     3     4   ar
     8     4     5   ar
     9     5     6   ar
    10     6     7   ar
    11     7    18    1
    12    18    19    1
    13    19    20    2
    14    19    21   am
    15    21    22    1
    16    22    23    1
    17    23    24    1
    18     7     8   ar
    19     8     9   ar
    20    13    14   ar
    21    14    15   ar
    22    15    16   ar
    23    16    17    1
    24    16    11   ar
    25     9     1   ar
    26     8     4   ar
    27    24    21    1
@<TRIPOS>MOLECULE
*****
 24 27 0 0 0
SMALL
GASTEIGER

@<TRIPOS>ATOM
      1 C          -9.0760  -17.4773   23.6691 C.ar    1  UNL1        0.0206
      2 C         -10.5625  -17.6778   23.6605 C.ar    1  UNL1        0.0989
      3 N         -11.2183  -18.3763   22.5064 N.ar    1  UNL1       -0.2423
      4 C         -10.3877  -18.8742   21.3609 C.ar    1  UNL1        0.0985
      5 C         -10.7512  -19.5932   20.0956 C.ar    1  UNL1        0.0392
      6 C          -9.4893  -19.8370   19.3222 C.ar    1  UNL1        0.0779
      7 N          -8.3459  -19.2687   20.1095 N.ar    1  UNL1       -0.3165
      8 C          -8.9012  -18.6737   21.3695 C.ar    1  UNL1        0.0782
      9 C          -8.2454  -17.9752   22.5236 C.ar    1  UNL1        0.0203
     10 C          -5.1347  -14.6888   25.5903 C.3     1  UNL1        0.0334
     11 C          -6.4494  -15.3845   25.7838 C.ar    1  UNL1        0.0056
     12 C          -7.1054  -16.0830   24.6297 C.ar    1  UNL1       -0.0020
     13 C          -8.4201  -16.7787   24.8232 C.ar    1  UNL1        0.0014
     14 C          -9.0789  -16.7760   26.1707 C.ar    1  UNL1        0.0023
     15 C          -8.4231  -16.0775   27.3248 C.ar    1  UNL1        0.0293
     16 C          -7.1083  -15.3817   27.1314 C.ar    1  UNL1        0.1361
     17 F          -6.4524  -14.6833   28.2855 F       1  UNL1       -0.2045
     18 C          -6.9010  -19.2914   19.7075 C.3     1  UNL1        0.1920
     19 C          -5.8739  -19.8727   20.6333 C.2     1  UNL1        0.2487
     20 O          -6.2960  -20.7989   21.7351 O.2     1  UNL1       -0.2728
     21 N          -4.4248  -19.5279   20.4574 N.am    1  UNL1       -0.2778
     22 C          -3.1530  -19.8995   21.1608 C.3     1  UNL1        0.0952
     23 C          -2.3753  -19.0402   20.2086 C.3     1  UNL1        0.0430
     24 C          -3.6470  -18.6686   19.5052 C.3     1  UNL1        0.0952
@<TRIPOS>BOND
     1    10    11    1
     2    11    12   ar
     3    12    13   ar
     4    13     1    1
     5     1     2   ar
     6     2     3   ar
     7     3     4   ar
     8     4     5   ar
     9     5     6   ar
    10     6     7   ar
    11     7    18    1
    12    18    19    1
    13    19    20    2
    14    19    21   am
    15    21    22    1
    16    22    23    1
    17    23    24    1
    18     7     8   ar
    19     8     9   ar
    20    13    14   ar
    21    14    15   ar
    22    15    16   ar
    23    16    17    1
    24    16    11   ar
    25     9     1   ar
    26     8     4   ar
    27    24    21    1
@<TRIPOS>MOLECULE
*****
 24 27 0 0 0
SMALL
GASTEIGER

@<TRIPOS>ATOM
      1 C          -8.8770  -16.7222   23.2091 C.ar    1  UNL1        0.0206
      2 C          -8.6816  -15.5441   24.1168 C.ar    1  UNL1        0.0989
      3 N          -7.3048  -15.1807   24.5882 N.ar    1  UNL1       -0.2423
      4 C          -6.1233  -15.9954   24.1520 C.ar    1  UNL1        0.0985
      5 C          -4.6581  -15.8792   24.4519 C.ar    1  UNL1        0.0392
      6 C          -3.9480  -16.9854   23.7295 C.ar    1  UNL1        0.0779
      7 N          -4.9743  -17.7854   22.9832 N.ar    1  UNL1       -0.3165
      8 C          -6.3186  -17.1735   23.2443 C.ar    1  UNL1        0.0782
      9 C          -7.6955  -17.5369   22.7729 C.ar    1  UNL1        0.0203
     10 C         -13.7609  -18.1533   24.2576 C.3     1  UNL1        0.0334
     11 C         -12.6958  -17.8012   23.2619 C.ar    1  UNL1        0.0056
     12 C         -11.3189  -17.4377   23.7334 C.ar    1  UNL1       -0.0020
     13 C         -10.2538  -17.0856   22.7376 C.ar    1  UNL1        0.0014
     14 C         -10.5655  -17.0968   21.2704 C.ar    1  UNL1        0.0023
     15 C         -11.9423  -17.4602   20.7989 C.ar    1  UNL1        0.0293
     16 C         -13.0075  -17.8124   21.7946 C.ar    1  UNL1        0.1361
     17 F         -14.3843  -18.1758   21.3231 F       1  UNL1       -0.2045
     18 C          -4.7036  -18.9864   22.1262 C.3     1  UNL1        0.1920
     19 C          -4.3273  -18.8099   20.6850 C.2     1  UNL1        0.2487
     20 O          -5.3826  -18.8749   19.6209 O.2     1  UNL1       -0.2728
     21 N          -2.8958  -18.5684   20.3077 N.am    1  UNL1       -0.2778
     22 C          -2.1607  -18.3522   19.0181 C.3     1  UNL1        0.0952
     23 C          -0.8712  -18.2269   19.7741 C.3     1  UNL1        0.0430
     24 C          -1.6063  -18.4432   21.0637 C.3     1  UNL1        0.0952
@<TRIPOS>BOND
     1    10    11    1
     2    11    12   ar
     3    12    13   ar
     4    13     1    1
     5     1     2   ar
     6     2     3   ar
     7     3     4   ar
     8     4     5   ar
     9     5     6   ar
    10     6     7   ar
    11     7    18    1
    12    18    19    1
    13    19    20    2
    14    19    21   am
    15    21    22    1
    16    22    23    1
    17    23    24    1
    18     7     8   ar
    19     8     9   ar
    20    13    14   ar
    21    14    15   ar
    22    15    16   ar
    23    16    17    1
    24    16    11   ar
    25     9     1   ar
    26     8     4   ar
    27    24    21    1
@<TRIPOS>MOLECULE
*****
 24 27 0 0 0
SMALL
GASTEIGER

@<TRIPOS>ATOM
      1 C          -8.6204  -17.0894   22.8478 C.ar    1  UNL1        0.0206
      2 C         -10.0748  -16.7931   22.6312 C.ar    1  UNL1        0.0989
      3 N         -10.8181  -17.4623   21.5134 N.ar    1  UNL1       -0.2423
      4 C         -10.1071  -18.4277   20.6121 C.ar    1  UNL1        0.0985
      5 C         -10.5743  -19.2337   19.4364 C.ar    1  UNL1        0.0392
      6 C          -9.4086  -20.0281   18.9264 C.ar    1  UNL1        0.0779
      7 N          -8.2210  -19.7131   19.7868 N.ar    1  UNL1       -0.3165
      8 C          -8.6527  -18.7240   20.8286 C.ar    1  UNL1        0.0782
      9 C          -7.9094  -18.0549   21.9465 C.ar    1  UNL1        0.0203
     10 C          -8.5328  -15.1535   27.6691 C.3     1  UNL1        0.0334
     11 C          -7.8332  -15.4523   26.3764 C.ar    1  UNL1        0.0056
     12 C          -8.5766  -16.1215   25.2584 C.ar    1  UNL1       -0.0020
     13 C          -7.8770  -16.4203   23.9657 C.ar    1  UNL1        0.0014
     14 C          -6.4340  -16.0500   23.7908 C.ar    1  UNL1        0.0023
     15 C          -5.6906  -15.3809   24.9087 C.ar    1  UNL1        0.0293
     16 C          -6.3902  -15.0820   26.2015 C.ar    1  UNL1        0.1361
     17 F          -5.6468  -14.4129   27.3193 F       1  UNL1       -0.2045
     18 C          -6.8436  -20.2865   19.6326 C.3     1  UNL1        0.1920
     19 C          -5.9132  -20.3298   20.8084 C.2     1  UNL1        0.2487
     20 O          -6.3757  -20.9152   22.1097 O.2     1  UNL1       -0.2728
     21 N          -4.5202  -19.7876   20.6829 N.am    1  UNL1       -0.2778
     22 C          -3.3443  -19.6609   21.6055 C.3     1  UNL1        0.0952
     23 C          -2.5503  -19.0209   20.5056 C.3     1  UNL1        0.0430
     24 C          -3.7263  -19.1476   19.5830 C.3     1  UNL1        0.0952
@<TRIPOS>BOND
     1    10    11    1
     2    11    12   ar
     3    12    13   ar
     4    13     1    1
     5     1     2   ar
     6     2     3   ar
     7     3     4   ar
     8     4     5   ar
     9     5     6   ar
    10     6     7   ar
    11     7    18    1
    12    18    19    1
    13    19    20    2
    14    19    21   am
    15    21    22    1
    16    22    23    1
    17    23    24    1
    18     7     8   ar
    19     8     9   ar
    20    13    14   ar
    21    14    15   ar
    22    15    16   ar
    23    16    17    1
    24    16    11   ar
    25     9     1   ar
    26     8     4   ar
    27    24    21    1
@<TRIPOS>MOLECULE
*****
 24 27 0 0 0
SMALL
GASTEIGER

@<TRIPOS>ATOM
      1 C          -4.7758  -16.7179   23.7974 C.ar    1  UNL1        0.0206
      2 C          -4.2244  -16.3592   25.1455 C.ar    1  UNL1        0.0989
      3 N          -5.1411  -15.8577   26.2215 N.ar    1  UNL1       -0.2423
      4 C          -6.6094  -15.7149   25.9496 C.ar    1  UNL1        0.0985
      5 C          -7.7486  -15.2503   26.8078 C.ar    1  UNL1        0.0392
      6 C          -9.0040  -15.3218   25.9901 C.ar    1  UNL1        0.0779
      7 N          -8.6408  -15.8306   24.6266 N.ar    1  UNL1       -0.3165
      8 C          -7.1608  -16.0736   24.6016 C.ar    1  UNL1        0.0782
      9 C          -6.2440  -16.5751   23.5255 C.ar    1  UNL1        0.0203
     10 C          -3.4717  -20.3681   20.3368 C.3     1  UNL1        0.0334
     11 C          -3.2070  -19.0445   20.9909 C.ar    1  UNL1        0.0056
     12 C          -4.1238  -18.5430   22.0671 C.ar    1  UNL1       -0.0020
     13 C          -3.8590  -17.2194   22.7212 C.ar    1  UNL1        0.0014
     14 C          -2.6775  -16.3972   22.2993 C.ar    1  UNL1        0.0023
     15 C          -1.7607  -16.8987   21.2232 C.ar    1  UNL1        0.0293
     16 C          -2.0255  -18.2223   20.5690 C.ar    1  UNL1        0.1361
     17 F          -1.1087  -18.7238   19.4929 F       1  UNL1       -0.2045
     18 C          -9.5907  -16.0568   23.4880 C.3     1  UNL1        0.1920
     19 C          -9.5671  -17.3558   22.7382 C.2     1  UNL1        0.2487
     20 O          -9.3654  -17.3603   21.2519 O.2     1  UNL1       -0.2728
     21 N          -9.7451  -18.6502   23.4748 N.am    1  UNL1       -0.2778
     22 C          -9.7791  -20.0978   23.0828 C.3     1  UNL1        0.0952
     23 C          -9.9970  -20.4810   24.5165 C.3     1  UNL1        0.0430
     24 C          -9.9631  -19.0335   24.9085 C.3     1  UNL1        0.0952
@<TRIPOS>BOND
     1    10    11    1
     2    11    12   ar
     3    12    13   ar
     4    13     1    1
     5     1     2   ar
     6     2     3   ar
     7     3     4   ar
     8     4     5   ar
     9     5     6   ar
    10     6     7   ar
    11     7    18    1
    12    18    19    1
    13    19    20    2
    14    19    21   am
    15    21    22    1
    16    22    23    1
    17    23    24    1
    18     7     8   ar
    19     8     9   ar
    20    13    14   ar
    21    14    15   ar
    22    15    16   ar
    23    16    17    1
    24    16    11   ar
    25     9     1   ar
    26     8     4   ar
    27    24    21    1
@<TRIPOS>MOLECULE
*****
 24 27 0 0 0
SMALL
GASTEIGER

@<TRIPOS>ATOM
      1 C          -4.8276  -16.7277   23.7494 C.ar    1  UNL1        0.0206
      2 C          -4.2925  -16.2267   25.0580 C.ar    1  UNL1        0.0989
      3 N          -5.2345  -15.7129   26.1062 N.ar    1  UNL1       -0.2423
      4 C          -6.7116  -15.7002   25.8457 C.ar    1  UNL1        0.0985
      5 C          -7.8746  -15.2562   26.6827 C.ar    1  UNL1        0.0392
      6 C          -9.1285  -15.4829   25.8912 C.ar    1  UNL1        0.0779
      7 N          -8.7405  -16.0669   24.5652 N.ar    1  UNL1       -0.3165
      8 C          -7.2468  -16.2012   24.5370 C.ar    1  UNL1        0.0782
      9 C          -6.3048  -16.7149   23.4889 C.ar    1  UNL1        0.0203
     10 C          -3.4708  -20.3934   20.3257 C.3     1  UNL1        0.0334
     11 C          -3.2072  -19.0743   20.9893 C.ar    1  UNL1        0.0056
     12 C          -4.1492  -18.5606   22.0376 C.ar    1  UNL1       -0.0020
     13 C          -3.8856  -17.2415   22.7012 C.ar    1  UNL1        0.0014
     14 C          -2.6800  -16.4361   22.3166 C.ar    1  UNL1        0.0023
     15 C          -1.7380  -16.9498   21.2685 C.ar    1  UNL1        0.0293
     16 C          -2.0016  -18.2689   20.6048 C.ar    1  UNL1        0.1361
     17 F          -1.0596  -18.7827   19.5566 F       1  UNL1       -0.2045
     18 C          -9.6810  -16.4494   23.4611 C.3     1  UNL1        0.1920
     19 C          -9.8199  -17.8878   23.0588 C.2     1  UNL1        0.2487
     20 O          -9.5025  -18.9755   24.0418 O.2     1  UNL1       -0.2728
     21 N         -10.2760  -18.2385   21.6736 N.am    1  UNL1       -0.2778
     22 C         -10.5257  -19.5178   20.9311 C.3     1  UNL1        0.0952
     23 C         -10.9212  -18.7345   19.7145 C.3     1  UNL1        0.0430
     24 C         -10.6715  -17.4553   20.4570 C.3     1  UNL1        0.0952
@<TRIPOS>BOND
     1    10    11    1
     2    11    12   ar
     3    12    13   ar
     4    13     1    1
     5     1     2   ar
     6     2     3   ar
     7     3     4   ar
     8     4     5   ar
     9     5     6   ar
    10     6     7   ar
    11     7    18    1
    12    18    19    1
    13    19    20    2
    14    19    21   am
    15    21    22    1
    16    22    23    1
    17    23    24    1
    18     7     8   ar
    19     8     9   ar
    20    13    14   ar
    21    14    15   ar
    22    15    16   ar
    23    16    17    1
    24    16    11   ar
    25     9     1   ar
    26     8     4   ar
    27    24    21    1
@<TRIPOS>MOLECULE
*****
 24 27 0 0 0
SMALL
GASTEIGER

@<TRIPOS>ATOM
      1 C         -14.7920   -4.9754   19.0912 C.ar    1  UNL1        0.0206
      2 C         -15.6502   -3.8139   19.4967 C.ar    1  UNL1        0.0989
      3 N         -15.0997   -2.4197   19.4420 N.ar    1  UNL1       -0.2423
      4 C         -13.6911   -2.1869   18.9819 C.ar    1  UNL1        0.0985
      5 C         -12.8807   -0.9345   18.8245 C.ar    1  UNL1        0.0392
      6 C         -11.5216   -1.3221   18.3218 C.ar    1  UNL1        0.0779
      7 N         -11.4922   -2.8139   18.1685 N.ar    1  UNL1       -0.3165
      8 C         -12.8330   -3.3484   18.5764 C.ar    1  UNL1        0.0782
      9 C         -13.3834   -4.7427   18.6311 C.ar    1  UNL1        0.0203
     10 C         -18.6594   -8.2443   20.2565 C.3     1  UNL1        0.0334
     11 C         -17.2761   -8.0042   19.7285 C.ar    1  UNL1        0.0056
     12 C         -16.7257   -6.6099   19.6739 C.ar    1  UNL1       -0.0020
     13 C         -15.3424   -6.3698   19.1459 C.ar    1  UNL1        0.0014
     14 C         -14.5095   -7.5240   18.6725 C.ar    1  UNL1        0.0023
     15 C         -15.0599   -8.9183   18.7271 C.ar    1  UNL1        0.0293
     16 C         -16.4432   -9.1584   19.2551 C.ar    1  UNL1        0.1361
     17 F         -16.9936  -10.5527   19.3098 F       1  UNL1       -0.2045
     18 C         -10.3265   -3.6284   17.6910 C.3     1  UNL1        0.1920
     19 C         -10.0881   -4.9983   18.2536 C.2     1  UNL1        0.2487
     20 O          -9.3206   -5.1609   19.5321 O.2     1  UNL1       -0.2728
     21 N         -10.6171   -6.2056   17.5377 N.am    1  UNL1       -0.2778
     22 C         -10.5804   -7.6850   17.7831 C.3     1  UNL1        0.0952
     23 C         -11.3651   -7.9130   16.5252 C.3     1  UNL1        0.0430
     24 C         -11.4017   -6.4336   16.2798 C.3     1  UNL1        0.0952
@<TRIPOS>BOND
     1    10    11    1
     2    11    12   ar
     3    12    13   ar
     4    13     1    1
     5     1     2   ar
     6     2     3   ar
     7     3     4   ar
     8     4     5   ar
     9     5     6   ar
    10     6     7   ar
    11     7    18    1
    12    18    19    1
    13    19    20    2
    14    19    21   am
    15    21    22    1
    16    22    23    1
    17    23    24    1
    18     7     8   ar
    19     8     9   ar
    20    13    14   ar
    21    14    15   ar
    22    15    16   ar
    23    16    17    1
    24    16    11   ar
    25     9     1   ar
    26     8     4   ar
    27    24    21    1
