@<TRIPOS>MOLECULE
*****
 27 30 0 0 0
SMALL
GASTEIGER

@<TRIPOS>ATOM
      1 N1         -7.5236  -18.4784   22.2991 N.ar    1  <1>        -0.2067
      2 N2         -8.9633  -18.8573   22.1151 N.ar    1  <1>        -0.1634
      3 C1         -9.7844  -18.0309   23.0600 C.ar    1  <1>         0.1027
      4 C2         -8.8522  -17.1414   23.8280 C.ar    1  <1>         0.0371
      5 C3         -9.0951  -16.1153   24.8948 C.ar    1  <1>         0.0030
      6 C4         -7.9409  -15.3658   25.4913 C.ar    1  <1>         0.0040
      7 C5         -6.5436  -15.6424   25.0210 C.ar    1  <1>         0.0729
      8 C6         -6.3007  -16.6685   23.9542 C.ar    1  <1>         0.0231
      9 C7         -7.4550  -17.4180   23.3577 C.ar    1  <1>         0.0863
     10 C8        -11.2758  -18.0846   23.2106 C.ar    1  <1>         0.0194
     11 C9        -12.1600  -17.7056   22.0595 C.ar    1  <1>         0.0016
     12 C10       -13.6515  -17.7593   22.2101 C.ar    1  <1>         0.0000
     13 C11       -14.2588  -18.1919   23.5116 C.ar    1  <1>         0.0000
     14 C12       -13.3747  -18.5708   24.6626 C.ar    1  <1>         0.0000
     15 C13       -11.8832  -18.5172   24.5120 C.ar    1  <1>         0.0016
     16 C14        -4.1002  -19.4826   20.7702 C.ar    1  <1>         0.1039
     17 C15        -5.0251  -20.4187   20.0501 C.ar    1  <1>         0.0587
     18 S1         -6.4201  -20.1564   20.5352 S.2     1  <1>        -0.0466
     19 C16        -6.3574  -19.0583   21.5551 C.ar    1  <1>         0.1954
     20 N3         -4.9237  -18.6419   21.7003 N.ar    1  <1>        -0.2192
     21 O1         -1.7037  -20.1391   21.5292 O.co2   1  <1>        -0.5430
     22 C17        -2.6132  -19.4016   20.5915 C.2     1  <1>         0.0911
     23 O2         -2.0354  -18.5830   19.4752 O.co2   1  <1>        -0.5430
     24 C18        -5.3893  -14.8928   25.6175 C.3     1  <1>         0.4186
     25 F1         -4.2350  -14.1433   26.2139 F       1  <1>        -0.1659
     26 F2         -6.0973  -14.8542   26.9393 F       1  <1>        -0.1659
     27 F3         -4.6812  -14.9315   24.2957 F       1  <1>        -0.1659
@<TRIPOS>UNITY_ATOM_ATTR
21 1
charge -1
@<TRIPOS>BOND
     1    21    22   ar
     2    22    23   ar
     3    22    16    1
     4    16    17   ar
     5    17    18   ar
     6    18    19   ar
     7    19     1    1
     8     1     2   ar
     9     2     3   ar
    10     3    10    1
    11    10    11   ar
    12    11    12   ar
    13    12    13   ar
    14    13    14   ar
    15    14    15   ar
    16     3     4   ar
    17     4     5   ar
    18     5     6   ar
    19     6     7   ar
    20     7    24    1
    21    24    25    1
    22    24    26    1
    23    24    27    1
    24     7     8   ar
    25     8     9   ar
    26    19    20   ar
    27    20    16   ar
    28     9     1   ar
    29    15    10   ar
    30     9     4   ar
@<TRIPOS>MOLECULE
*****
 27 30 0 0 0
SMALL
GASTEIGER

@<TRIPOS>ATOM
      1 N1         -7.4553  -17.8126   22.3946 N.ar    1  <1>        -0.2067
      2 N2         -6.2425  -18.1714   21.5882 N.ar    1  <1>        -0.1634
      3 C1         -5.0403  -17.6010   22.2805 C.ar    1  <1>         0.1027
      4 C2         -5.5101  -16.8898   23.5148 C.ar    1  <1>         0.0371
      5 C3         -4.7716  -16.1401   24.5836 C.ar    1  <1>         0.0030
      6 C4         -5.5257  -15.5211   25.7229 C.ar    1  <1>         0.0040
      7 C5         -7.0183  -15.6518   25.7934 C.ar    1  <1>         0.0729
      8 C6         -7.7568  -16.4016   24.7246 C.ar    1  <1>         0.0231
      9 C7         -7.0027  -17.0206   23.5853 C.ar    1  <1>         0.0863
     10 C8         -3.6179  -17.7209   21.8195 C.ar    1  <1>         0.0194
     11 C9         -3.0656  -19.0605   21.4313 C.ar    1  <1>         0.0016
     12 C10        -1.6432  -19.1803   20.9703 C.ar    1  <1>         0.0000
     13 C11        -0.7731  -17.9606   20.8975 C.ar    1  <1>         0.0000
     14 C12        -1.3254  -16.6211   21.2858 C.ar    1  <1>         0.0000
     15 C13        -2.7478  -16.5013   21.7468 C.ar    1  <1>         0.0016
     16 C14       -11.2618  -18.0358   21.6685 C.ar    1  <1>         0.1039
     17 C15       -10.8429  -19.4611   21.4607 C.ar    1  <1>         0.0587
     18 S1         -9.3661  -19.5510   21.7074 S.2     1  <1>        -0.0466
     19 C16        -8.8721  -18.1812   22.0677 C.ar    1  <1>         0.1954
     20 N3        -10.0437  -17.2449   22.0437 N.ar    1  <1>        -0.2192
     21 O1        -13.7161  -17.8927   22.5086 O.co2   1  <1>        -0.5430
     22 C17       -12.6540  -17.4963   21.5263 C.2     1  <1>         0.0911
     23 O2        -12.9844  -16.5603   20.4016 O.co2   1  <1>        -0.5430
     24 C18        -7.7725  -15.0328   26.9328 C.3     1  <1>         0.4186
     25 F1         -8.5265  -14.4138   28.0722 F       1  <1>        -0.1659
     26 F2         -9.0491  -15.1563   26.1551 F       1  <1>        -0.1659
     27 F3         -6.4959  -14.9092   27.7106 F       1  <1>        -0.1659
@<TRIPOS>UNITY_ATOM_ATTR
21 1
charge -1
@<TRIPOS>BOND
     1    21    22   ar
     2    22    23   ar
     3    22    16    1
     4    16    17   ar
     5    17    18   ar
     6    18    19   ar
     7    19     1    1
     8     1     2   ar
     9     2     3   ar
    10     3    10    1
    11    10    11   ar
    12    11    12   ar
    13    12    13   ar
    14    13    14   ar
    15    14    15   ar
    16     3     4   ar
    17     4     5   ar
    18     5     6   ar
    19     6     7   ar
    20     7    24    1
    21    24    25    1
    22    24    26    1
    23    24    27    1
    24     7     8   ar
    25     8     9   ar
    26    19    20   ar
    27    20    16   ar
    28     9     1   ar
    29    15    10   ar
    30     9     4   ar
@<TRIPOS>MOLECULE
*****
 27 30 0 0 0
SMALL
GASTEIGER

@<TRIPOS>ATOM
      1 N1        -15.1299   -5.2339   19.0503 N.ar    1  <1>        -0.2067
      2 N2        -15.7092   -3.8503   19.0595 N.ar    1  <1>        -0.1634
      3 C1        -14.5727   -2.8718   19.0317 C.ar    1  <1>         0.1027
      4 C2        -13.2910   -3.6507   19.0052 C.ar    1  <1>         0.0371
      5 C3        -11.8548   -3.2191   18.9721 C.ar    1  <1>         0.0030
      6 C4        -10.7631   -4.2475   18.9506 C.ar    1  <1>         0.0040
      7 C5        -11.1075   -5.7074   18.9621 C.ar    1  <1>         0.0729
      8 C6        -12.5436   -6.1389   18.9952 C.ar    1  <1>         0.0231
      9 C7        -13.6354   -5.1105   19.0167 C.ar    1  <1>         0.0863
     10 C8        -14.6961   -1.3769   19.0305 C.ar    1  <1>         0.0194
     11 C9        -15.8134   -0.7160   19.7822 C.ar    1  <1>         0.0016
     12 C10       -15.9368    0.7789   19.7810 C.ar    1  <1>         0.0000
     13 C11       -14.9431    1.6129   19.0281 C.ar    1  <1>         0.0000
     14 C12       -13.8259    0.9520   18.2764 C.ar    1  <1>         0.0000
     15 C13       -13.7024   -0.5429   18.2776 C.ar    1  <1>         0.0016
     16 C14       -16.5397   -8.8386   18.7585 C.ar    1  <1>         0.1039
     17 C15       -17.6736   -8.1387   19.4473 C.ar    1  <1>         0.0587
     18 S1        -17.2835   -6.7032   19.6404 S.2     1  <1>        -0.0466
     19 C16       -15.9085   -6.5159   19.0710 C.ar    1  <1>         0.1954
     20 N3        -15.4488   -7.8355   18.5260 N.ar    1  <1>        -0.2192
     21 O1        -17.7833  -11.0450   18.1799 O.co2   1  <1>        -0.5430
     22 C17       -16.5030  -10.2869   18.3704 C.2     1  <1>         0.0911
     23 O2        -15.1862  -10.9774   18.1728 O.co2   1  <1>        -0.5430
     24 C18       -10.0156   -6.7357   18.9405 C.3     1  <1>         0.4186
     25 F1         -8.9239   -7.7641   18.9190 F       1  <1>        -0.1659
     26 F2         -9.1226   -5.8037   19.7046 F       1  <1>        -0.1659
     27 F3        -10.9086   -7.6678   18.1765 F       1  <1>        -0.1659
@<TRIPOS>UNITY_ATOM_ATTR
21 1
charge -1
@<TRIPOS>BOND
     1    21    22   ar
     2    22    23   ar
     3    22    16    1
     4    16    17   ar
     5    17    18   ar
     6    18    19   ar
     7    19     1    1
     8     1     2   ar
     9     2     3   ar
    10     3    10    1
    11    10    11   ar
    12    11    12   ar
    13    12    13   ar
    14    13    14   ar
    15    14    15   ar
    16     3     4   ar
    17     4     5   ar
    18     5     6   ar
    19     6     7   ar
    20     7    24    1
    21    24    25    1
    22    24    26    1
    23    24    27    1
    24     7     8   ar
    25     8     9   ar
    26    19    20   ar
    27    20    16   ar
    28     9     1   ar
    29    15    10   ar
    30     9     4   ar
@<TRIPOS>MOLECULE
*****
 27 30 0 0 0
SMALL
GASTEIGER

@<TRIPOS>ATOM
      1 N1         -5.5375  -18.0756   22.1155 N.ar    1  <1>        -0.2067
      2 N2         -5.3602  -17.3140   23.3956 N.ar    1  <1>        -0.1634
      3 C1         -6.7218  -16.9657   23.9199 C.ar    1  <1>         0.1027
      4 C2         -7.7404  -17.5119   22.9639 C.ar    1  <1>         0.0371
      5 C3         -9.2399  -17.4733   22.9648 C.ar    1  <1>         0.0030
      6 C4        -10.0074  -18.1208   21.8505 C.ar    1  <1>         0.0040
      7 C5         -9.2755  -18.8068   20.7353 C.ar    1  <1>         0.0729
      8 C6         -7.7760  -18.8454   20.7344 C.ar    1  <1>         0.0231
      9 C7         -7.0085  -18.1980   21.8487 C.ar    1  <1>         0.0863
     10 C8         -7.0134  -16.2046   25.1791 C.ar    1  <1>         0.0194
     11 C9         -8.4192  -16.1201   25.6959 C.ar    1  <1>         0.0016
     12 C10        -8.7109  -15.3590   26.9551 C.ar    1  <1>         0.0000
     13 C11        -7.5969  -14.6824   27.6976 C.ar    1  <1>         0.0000
     14 C12        -6.1913  -14.7669   27.1809 C.ar    1  <1>         0.0000
     15 C13        -5.8996  -15.5280   25.9217 C.ar    1  <1>         0.0016
     16 C14        -2.4237  -18.7782   19.9072 C.ar    1  <1>         0.1039
     17 C15        -3.0629  -20.1346   19.9470 C.ar    1  <1>         0.0587
     18 S1         -4.3071  -20.0366   20.7791 S.2     1  <1>        -0.0466
     19 C16        -4.4369  -18.6195   21.2535 C.ar    1  <1>         0.1954
     20 N3         -3.2730  -17.8418   20.7147 N.ar    1  <1>        -0.2192
     21 O1          0.1708  -18.6573   19.8418 O.co2   1  <1>        -0.5430
     22 C17        -1.1577  -18.4209   19.1865 C.2     1  <1>         0.0911
     23 O2         -1.2201  -17.8272   17.8104 O.co2   1  <1>        -0.5430
     24 C18       -10.0431  -19.4543   19.6210 C.3     1  <1>         0.4186
     25 F1        -10.8107  -20.1017   18.5067 F       1  <1>        -0.1659
     26 F2         -8.8565  -19.3033   18.7158 F       1  <1>        -0.1659
     27 F3        -11.2296  -19.6052   20.5261 F       1  <1>        -0.1659
@<TRIPOS>UNITY_ATOM_ATTR
21 1
charge -1
@<TRIPOS>BOND
     1    21    22   ar
     2    22    23   ar
     3    22    16    1
     4    16    17   ar
     5    17    18   ar
     6    18    19   ar
     7    19     1    1
     8     1     2   ar
     9     2     3   ar
    10     3    10    1
    11    10    11   ar
    12    11    12   ar
    13    12    13   ar
    14    13    14   ar
    15    14    15   ar
    16     3     4   ar
    17     4     5   ar
    18     5     6   ar
    19     6     7   ar
    20     7    24    1
    21    24    25    1
    22    24    26    1
    23    24    27    1
    24     7     8   ar
    25     8     9   ar
    26    19    20   ar
    27    20    16   ar
    28     9     1   ar
    29    15    10   ar
    30     9     4   ar
@<TRIPOS>MOLECULE
*****
 27 30 0 0 0
SMALL
GASTEIGER

@<TRIPOS>ATOM
      1 N1        -15.6747   -4.4939   18.7441 N.ar    1  <1>        -0.2067
      2 N2        -16.3411   -3.1586   18.8952 N.ar    1  <1>        -0.1634
      3 C1        -15.2741   -2.1332   19.1397 C.ar    1  <1>         0.1027
      4 C2        -13.9482   -2.8346   19.1397 C.ar    1  <1>         0.0371
      5 C3        -12.5475   -2.3333   19.3307 C.ar    1  <1>         0.0030
      6 C4        -11.3943   -3.2911   19.2773 C.ar    1  <1>         0.0040
      7 C5        -11.6419   -4.7502   19.0328 C.ar    1  <1>         0.0729
      8 C6        -13.0427   -5.2515   18.8417 C.ar    1  <1>         0.0231
      9 C7        -14.1958   -4.2937   18.8952 C.ar    1  <1>         0.0863
     10 C8        -15.4942   -0.6640   19.3476 C.ar    1  <1>         0.0194
     11 C9        -14.6748    0.3328   18.5828 C.ar    1  <1>         0.0016
     12 C10       -14.8949    1.8020   18.7908 C.ar    1  <1>         0.0000
     13 C11       -15.9345    2.2742   19.7635 C.ar    1  <1>         0.0000
     14 C12       -16.7539    1.2774   20.5283 C.ar    1  <1>         0.0000
     15 C13       -16.5337   -0.1917   20.3203 C.ar    1  <1>         0.0016
     16 C14       -16.9931   -8.1419   18.6034 C.ar    1  <1>         0.1039
     17 C15       -17.8656   -7.4786   17.5793 C.ar    1  <1>         0.0587
     18 S1        -17.4780   -6.0314   17.5074 S.2     1  <1>        -0.0466
     19 C16       -16.3658   -5.8002   18.4870 C.ar    1  <1>         0.1954
     20 N3        -16.0662   -7.1045   19.1643 N.ar    1  <1>        -0.2192
     21 O1        -17.8275  -10.5649   18.1753 O.co2   1  <1>        -0.5430
     22 C17       -17.0393   -9.5885   18.9973 C.2     1  <1>         0.0911
     23 O2        -16.2975  -10.0588   20.2132 O.co2   1  <1>        -0.5430
     24 C18       -10.4887   -5.7079   18.9793 C.3     1  <1>         0.4186
     25 F1         -9.3356   -6.6657   18.9259 F       1  <1>        -0.1659
     26 F2         -9.5417   -4.5846   19.2815 F       1  <1>        -0.1659
     27 F3        -11.4357   -6.8312   18.6771 F       1  <1>        -0.1659
@<TRIPOS>UNITY_ATOM_ATTR
21 1
charge -1
@<TRIPOS>BOND
     1    21    22   ar
     2    22    23   ar
     3    22    16    1
     4    16    17   ar
     5    17    18   ar
     6    18    19   ar
     7    19     1    1
     8     1     2   ar
     9     2     3   ar
    10     3    10    1
    11    10    11   ar
    12    11    12   ar
    13    12    13   ar
    14    13    14   ar
    15    14    15   ar
    16     3     4   ar
    17     4     5   ar
    18     5     6   ar
    19     6     7   ar
    20     7    24    1
    21    24    25    1
    22    24    26    1
    23    24    27    1
    24     7     8   ar
    25     8     9   ar
    26    19    20   ar
    27    20    16   ar
    28     9     1   ar
    29    15    10   ar
    30     9     4   ar
@<TRIPOS>MOLECULE
*****
 27 30 0 0 0
SMALL
GASTEIGER

@<TRIPOS>ATOM
      1 N1         -5.6274  -17.7278   22.3586 N.ar    1  <1>        -0.2067
      2 N2         -6.6477  -18.3322   21.4401 N.ar    1  <1>        -0.1634
      3 C1         -8.0087  -17.9838   21.9658 C.ar    1  <1>         0.1027
      4 C2         -7.8296  -17.1642   23.2092 C.ar    1  <1>         0.0371
      5 C3         -8.8164  -16.5415   24.1517 C.ar    1  <1>         0.0030
      6 C4         -8.3315  -15.7606   25.3370 C.ar    1  <1>         0.0040
      7 C5         -6.8597  -15.6023   25.5798 C.ar    1  <1>         0.0729
      8 C6         -5.8729  -16.2250   24.6373 C.ar    1  <1>         0.0231
      9 C7         -6.3578  -17.0059   23.4520 C.ar    1  <1>         0.0863
     10 C8         -9.3189  -18.3847   21.3553 C.ar    1  <1>         0.0194
     11 C9         -9.3416  -19.2321   20.1177 C.ar    1  <1>         0.0016
     12 C10       -10.6518  -19.6330   19.5071 C.ar    1  <1>         0.0000
     13 C11       -11.9392  -19.1866   20.1341 C.ar    1  <1>         0.0000
     14 C12       -11.9165  -18.3392   21.3717 C.ar    1  <1>         0.0000
     15 C13       -10.6063  -17.9383   21.9822 C.ar    1  <1>         0.0016
     16 C14        -1.9233  -18.0187   21.2359 C.ar    1  <1>         0.1039
     17 C15        -1.7696  -17.9443   22.7262 C.ar    1  <1>         0.0587
     18 S1         -3.1384  -17.8263   23.3281 S.2     1  <1>        -0.0466
     19 C16        -4.1382  -17.8277   22.2099 C.ar    1  <1>         0.1954
     20 N3         -3.3872  -17.9467   20.9169 N.ar    1  <1>        -0.2192
     21 O1         -1.1208  -18.2885   18.7797 O.co2   1  <1>        -0.5430
     22 C17        -0.8089  -18.1433   20.2398 C.2     1  <1>         0.0911
     23 O2          0.6175  -18.1226   20.7035 O.co2   1  <1>        -0.5430
     24 C18        -6.3748  -14.8214   26.7652 C.3     1  <1>         0.4186
     25 F1         -5.8899  -14.0404   27.9505 F       1  <1>        -0.1659
     26 F2         -7.7176  -14.9751   27.4158 F       1  <1>        -0.1659
     27 F3         -5.0321  -14.6677   26.1146 F       1  <1>        -0.1659
@<TRIPOS>UNITY_ATOM_ATTR
21 1
charge -1
@<TRIPOS>BOND
     1    21    22   ar
     2    22    23   ar
     3    22    16    1
     4    16    17   ar
     5    17    18   ar
     6    18    19   ar
     7    19     1    1
     8     1     2   ar
     9     2     3   ar
    10     3    10    1
    11    10    11   ar
    12    11    12   ar
    13    12    13   ar
    14    13    14   ar
    15    14    15   ar
    16     3     4   ar
    17     4     5   ar
    18     5     6   ar
    19     6     7   ar
    20     7    24    1
    21    24    25    1
    22    24    26    1
    23    24    27    1
    24     7     8   ar
    25     8     9   ar
    26    19    20   ar
    27    20    16   ar
    28     9     1   ar
    29    15    10   ar
    30     9     4   ar
@<TRIPOS>MOLECULE
*****
 27 30 0 0 0
SMALL
GASTEIGER

@<TRIPOS>ATOM
      1 N1        -15.8731   -3.7347   19.1374 N.ar    1  <1>        -0.2067
      2 N2        -17.0639   -4.6435   19.0592 N.ar    1  <1>        -0.1634
      3 C1        -16.5645   -6.0551   18.9702 C.ar    1  <1>         0.1027
      4 C2        -15.0651   -6.0188   18.9934 C.ar    1  <1>         0.0371
      5 C3        -14.0337   -7.1062   18.9338 C.ar    1  <1>         0.0030
      6 C4        -12.5750   -6.7596   18.9776 C.ar    1  <1>         0.0040
      7 C5        -12.1477   -5.3254   19.0809 C.ar    1  <1>         0.0729
      8 C6        -13.1791   -4.2380   19.1405 C.ar    1  <1>         0.0231
      9 C7        -14.6378   -4.5846   19.0968 C.ar    1  <1>         0.0863
     10 C8        -17.4151   -7.2869   18.8748 C.ar    1  <1>         0.0194
     11 C9        -18.3069   -7.6730   20.0176 C.ar    1  <1>         0.0016
     12 C10       -19.1576   -8.9048   19.9221 C.ar    1  <1>         0.0000
     13 C11       -19.1165   -9.7505   18.6840 C.ar    1  <1>         0.0000
     14 C12       -18.2247   -9.3645   17.5413 C.ar    1  <1>         0.0000
     15 C13       -17.3741   -8.1327   17.6367 C.ar    1  <1>         0.0016
     16 C14       -15.2661    0.0990   19.1356 C.ar    1  <1>         0.1039
     17 C15       -16.6724    0.0284   19.6527 C.ar    1  <1>         0.0587
     18 S1        -17.0709   -1.4163   19.7164 S.2     1  <1>        -0.0466
     19 C16       -15.9110   -2.2386   19.2385 C.ar    1  <1>         0.1954
     20 N3        -14.7956   -1.3021   18.8796 N.ar    1  <1>        -0.2192
     21 O1        -14.9924    2.6686   19.4041 O.co2   1  <1>        -0.5430
     22 C17       -14.4702    1.3508   18.9134 C.2     1  <1>         0.0911
     23 O2        -13.1521    1.2849   18.2006 O.co2   1  <1>        -0.5430
     24 C18       -10.6889   -4.9788   19.1246 C.3     1  <1>         0.4186
     25 F1         -9.2302   -4.6321   19.1683 F       1  <1>        -0.1659
     26 F2        -10.3458   -6.4354   19.2273 F       1  <1>        -0.1659
     27 F3        -11.0320   -3.5222   19.0220 F       1  <1>        -0.1659
@<TRIPOS>UNITY_ATOM_ATTR
21 1
charge -1
@<TRIPOS>BOND
     1    21    22   ar
     2    22    23   ar
     3    22    16    1
     4    16    17   ar
     5    17    18   ar
     6    18    19   ar
     7    19     1    1
     8     1     2   ar
     9     2     3   ar
    10     3    10    1
    11    10    11   ar
    12    11    12   ar
    13    12    13   ar
    14    13    14   ar
    15    14    15   ar
    16     3     4   ar
    17     4     5   ar
    18     5     6   ar
    19     6     7   ar
    20     7    24    1
    21    24    25    1
    22    24    26    1
    23    24    27    1
    24     7     8   ar
    25     8     9   ar
    26    19    20   ar
    27    20    16   ar
    28     9     1   ar
    29    15    10   ar
    30     9     4   ar
@<TRIPOS>MOLECULE
*****
 27 30 0 0 0
SMALL
GASTEIGER

@<TRIPOS>ATOM
      1 N1        -15.9334   -4.2129   19.2669 N.ar    1  <1>        -0.2067
      2 N2        -16.9805   -5.2720   19.0885 N.ar    1  <1>        -0.1634
      3 C1        -16.2826   -6.5782   18.8502 C.ar    1  <1>         0.1027
      4 C2        -14.8042   -6.3264   18.8814 C.ar    1  <1>         0.0371
      5 C3        -13.6267   -7.2393   18.7086 C.ar    1  <1>         0.0030
      6 C4        -12.2334   -6.6904   18.7933 C.ar    1  <1>         0.0040
      7 C5        -12.0176   -5.2285   19.0509 C.ar    1  <1>         0.0729
      8 C6        -13.1951   -4.3156   19.2237 C.ar    1  <1>         0.0231
      9 C7        -14.5884   -4.8645   19.1390 C.ar    1  <1>         0.0863
     10 C8        -16.9465   -7.9036   18.6210 C.ar    1  <1>         0.0194
     11 C9        -17.9142   -8.0717   17.4871 C.ar    1  <1>         0.0016
     12 C10       -18.5781   -9.3971   17.2579 C.ar    1  <1>         0.0000
     13 C11       -18.2744  -10.5545   18.1625 C.ar    1  <1>         0.0000
     14 C12       -17.3068  -10.3864   19.2963 C.ar    1  <1>         0.0000
     15 C13       -16.6429   -9.0610   19.5255 C.ar    1  <1>         0.0016
     16 C14       -17.2910   -0.6727   20.0973 C.ar    1  <1>         0.1039
     17 C15       -15.8625   -0.3636   19.7600 C.ar    1  <1>         0.0587
     18 S1        -15.1800   -1.6522   19.4079 S.2     1  <1>        -0.0466
     19 C16       -16.1868   -2.7576   19.5276 C.ar    1  <1>         0.1954
     20 N3        -17.4914   -2.1523   19.9536 N.ar    1  <1>        -0.2192
     21 O1        -19.5640   -0.1354   21.2353 O.co2   1  <1>        -0.5430
     22 C17       -18.3356    0.3229   20.5064 C.2     1  <1>         0.0911
     23 O2        -18.1521    1.7769   20.1866 O.co2   1  <1>        -0.5430
     24 C18       -10.6241   -4.6796   19.1356 C.3     1  <1>         0.4186
     25 F1         -9.2307   -4.1308   19.2203 F       1  <1>        -0.1659
     26 F2        -11.1638   -3.2874   18.9924 F       1  <1>        -0.1659
     27 F3        -10.0845   -6.0718   19.2788 F       1  <1>        -0.1659
@<TRIPOS>UNITY_ATOM_ATTR
21 1
charge -1
@<TRIPOS>BOND
     1    21    22   ar
     2    22    23   ar
     3    22    16    1
     4    16    17   ar
     5    17    18   ar
     6    18    19   ar
     7    19     1    1
     8     1     2   ar
     9     2     3   ar
    10     3    10    1
    11    10    11   ar
    12    11    12   ar
    13    12    13   ar
    14    13    14   ar
    15    14    15   ar
    16     3     4   ar
    17     4     5   ar
    18     5     6   ar
    19     6     7   ar
    20     7    24    1
    21    24    25    1
    22    24    26    1
    23    24    27    1
    24     7     8   ar
    25     8     9   ar
    26    19    20   ar
    27    20    16   ar
    28     9     1   ar
    29    15    10   ar
    30     9     4   ar
@<TRIPOS>MOLECULE
*****
 27 30 0 0 0
SMALL
GASTEIGER

@<TRIPOS>ATOM
      1 N1          0.7090    1.2888   20.3837 N.ar    1  <1>        -0.2067
      2 N2          1.4825    0.4989   19.3699 N.ar    1  <1>        -0.1634
      3 C1          2.4666   -0.3616   20.1055 C.ar    1  <1>         0.1027
      4 C2          2.3013   -0.1035   21.5739 C.ar    1  <1>         0.0371
      5 C3          2.9996   -0.6655   22.7765 C.ar    1  <1>         0.0030
      6 C4          2.6116   -0.2075   24.1512 C.ar    1  <1>         0.0040
      7 C5          1.5253    0.8125   24.3231 C.ar    1  <1>         0.0729
      8 C6          0.8271    1.3745   23.1204 C.ar    1  <1>         0.0231
      9 C7          1.2150    0.9165   21.7458 C.ar    1  <1>         0.0863
     10 C8          3.4444   -1.3132   19.4822 C.ar    1  <1>         0.0194
     11 C9          4.6028   -0.7853   18.6886 C.ar    1  <1>         0.0016
     12 C10         5.5806   -1.7369   18.0653 C.ar    1  <1>         0.0000
     13 C11         5.4000   -3.2162   18.2355 C.ar    1  <1>         0.0000
     14 C12         4.2416   -3.7440   19.0289 C.ar    1  <1>         0.0000
     15 C13         3.2638   -2.7924   19.6523 C.ar    1  <1>         0.0016
     16 C14        -2.4845    3.4835   20.1588 C.ar    1  <1>         0.1039
     17 C15        -1.6244    4.1142   19.1040 C.ar    1  <1>         0.0587
     18 S1         -0.3234    3.3688   19.0599 S.2     1  <1>        -0.0466
     19 C16        -0.3795    2.2774   20.0874 C.ar    1  <1>         0.1954
     20 N3         -1.7150    2.3483   20.7665 N.ar    1  <1>        -0.2192
     21 O1         -4.3333    5.3071   20.2371 O.co2   1  <1>        -0.5430
     22 C17        -3.8705    3.9126   20.5390 C.2     1  <1>         0.0911
     23 O2         -4.7939    2.9471   21.2212 O.co2   1  <1>        -0.5430
     24 C18         1.1374    1.2705   25.6978 C.3     1  <1>         0.4186
     25 F1          0.7494    1.7285   27.0725 F       1  <1>        -0.1659
     26 F2          2.5632    1.6443   25.9757 F       1  <1>        -0.1659
     27 F3         -0.2884    0.8968   25.4199 F       1  <1>        -0.1659
@<TRIPOS>UNITY_ATOM_ATTR
21 1
charge -1
@<TRIPOS>BOND
     1    21    22   ar
     2    22    23   ar
     3    22    16    1
     4    16    17   ar
     5    17    18   ar
     6    18    19   ar
     7    19     1    1
     8     1     2   ar
     9     2     3   ar
    10     3    10    1
    11    10    11   ar
    12    11    12   ar
    13    12    13   ar
    14    13    14   ar
    15    14    15   ar
    16     3     4   ar
    17     4     5   ar
    18     5     6   ar
    19     6     7   ar
    20     7    24    1
    21    24    25    1
    22    24    26    1
    23    24    27    1
    24     7     8   ar
    25     8     9   ar
    26    19    20   ar
    27    20    16   ar
    28     9     1   ar
    29    15    10   ar
    30     9     4   ar
