@<TRIPOS>MOLECULE
*****
 36 39 0 0 0
SMALL
GASTEIGER

@<TRIPOS>ATOM
      1 N           0.4304    3.5766   23.1574 N.am    1  UNL1       -0.2533
      2 C           0.7702    2.7652   24.3723 C.2     1  UNL1        0.3092
      3 O          -0.2145    1.7685   24.9080 O.2     1  UNL1       -0.2521
      4 N           2.0947    2.9504   25.0516 N.am    1  UNL1       -0.2680
      5 H           1.0767    4.2308   22.8058 H       1  UNL1        0.1578
      6 H           2.7410    3.6045   24.7000 H       1  UNL1        0.1564
      7 C           2.4344    2.1389   26.2665 C.ar    1  UNL1        0.0516
      8 C           2.3367    2.7543   27.6309 C.ar    1  UNL1        0.0148
      9 C           2.6764    1.9429   28.8459 C.ar    1  UNL1        0.0043
     10 C           3.1139    0.5159   28.6965 C.ar    1  UNL1        0.0360
     11 C           3.2116   -0.0996   27.3320 C.ar    1  UNL1        0.0043
     12 C           2.8719    0.7119   26.1171 C.ar    1  UNL1        0.0148
     13 C           3.4536   -0.2956   29.9114 C.ar    1  UNL1        0.1668
     14 N           2.4792   -0.8080   30.9302 N.ar    1  UNL1       -0.1282
     15 N           3.2508   -1.5662   31.9693 N.ar    1  UNL1       -0.1224
     16 C           4.7021   -1.5225   31.5927 C.ar    1  UNL1        0.1896
     17 S           5.8300   -2.1533   32.3542 S.3     1  UNL1       -0.1034
     18 N           4.8275   -0.7371   30.3208 N.ar    1  UNL1       -0.2886
     19 C           6.1027   -0.4448   29.5872 C.3     1  UNL1        0.1340
     20 H           5.3379   -2.7819   33.4552 H       1  UNL1        0.1101
     21 N          -1.1300    2.6581   21.1911 N.ar    1  UNL1       -0.2162
     22 N          -2.5969    2.7206   20.8842 N.ar    1  UNL1       -0.1683
     23 C          -3.2676    3.4926   21.9815 C.ar    1  UNL1        0.0810
     24 C          -2.2152    3.9072   22.9667 C.ar    1  UNL1        0.0509
     25 C          -0.8941    3.3915   22.4781 C.ar    1  UNL1        0.1380
     26 C           3.0586   -0.0500   17.8562 C.3     1  UNL1        0.0310
     27 C           2.0115    0.6270   18.6899 C.ar    1  UNL1       -0.0218
     28 C           1.2107   -0.1674   19.6786 C.ar    1  UNL1       -0.0027
     29 C           0.1636    0.5096   20.5123 C.ar    1  UNL1        0.0189
     30 C          -0.0828    1.9810   20.3574 C.ar    1  UNL1        0.0842
     31 C           0.7180    2.7755   19.3687 C.ar    1  UNL1        0.0189
     32 C           1.7651    2.0985   18.5349 C.ar    1  UNL1       -0.0027
     33 C          -4.7334    3.7966   22.0770 C.3     1  UNL1        0.0372
     34 C          -4.7870    3.1183   23.4138 C.3     1  UNL1        0.0060
     35 C          -4.6797    4.4749   20.7402 C.3     1  UNL1        0.0060
     36 C          -6.1991    4.1006   22.1724 C.3     1  UNL1        0.0060
@<TRIPOS>BOND
     1    26    27    1
     2    27    28   ar
     3    28    29   ar
     4    29    30   ar
     5    30    21    1
     6    21    22   ar
     7    22    23   ar
     8    23    33    1
     9    33    34    1
    10    33    35    1
    11    33    36    1
    12    23    24   ar
    13    24    25   ar
    14    25     1    1
    15     1     2   am
    16     2     3    2
    17     2     4   am
    18     4     7    1
    19     7     8   ar
    20     8     9   ar
    21     9    10   ar
    22    10    13    1
    23    13    14   ar
    24    14    15   ar
    25    15    16   ar
    26    16    17    1
    27    16    18   ar
    28    18    19    1
    29    10    11   ar
    30    11    12   ar
    31    30    31   ar
    32    31    32   ar
    33    32    27   ar
    34    25    21   ar
    35    12     7   ar
    36    18    13   ar
    37     1     5    1
    38     4     6    1
    39    17    20    1
@<TRIPOS>MOLECULE
*****
 36 39 0 0 0
SMALL
GASTEIGER

@<TRIPOS>ATOM
      1 N           3.4177    0.3807   22.0806 N.am    1  UNL1       -0.2533
      2 C           2.0651    0.8863   22.4864 C.2     1  UNL1        0.3092
      3 O           0.8465    0.4682   21.7180 O.2     1  UNL1       -0.2521
      4 N           1.9309    1.8101   23.6606 N.am    1  UNL1       -0.2680
      5 H           4.2174    0.6552   22.5849 H       1  UNL1        0.1578
      6 H           2.7306    2.0846   24.1649 H       1  UNL1        0.1564
      7 C           0.5782    2.3156   24.0663 C.ar    1  UNL1        0.0516
      8 C          -0.1850    3.2304   23.1548 C.ar    1  UNL1        0.0148
      9 C          -1.5377    3.7359   23.5606 C.ar    1  UNL1        0.0043
     10 C          -2.1273    3.3268   24.8778 C.ar    1  UNL1        0.0360
     11 C          -1.3640    2.4121   25.7893 C.ar    1  UNL1        0.0043
     12 C          -0.0114    1.9065   25.3835 C.ar    1  UNL1        0.0148
     13 C          -3.4799    3.8324   25.2835 C.ar    1  UNL1        0.1668
     14 N          -4.7955    3.3758   24.7261 N.ar    1  UNL1       -0.1282
     15 N          -5.8832    4.1445   25.4160 N.ar    1  UNL1       -0.1224
     16 C          -5.2398    5.0762   26.3998 C.ar    1  UNL1        0.1896
     17 S          -5.9560    6.0329   27.3064 S.3     1  UNL1       -0.1034
     18 N          -3.7545    4.8833   26.3180 N.ar    1  UNL1       -0.2886
     19 C          -2.7246    5.6132   27.1283 C.3     1  UNL1        0.1340
     20 H          -7.2971    5.9317   27.1039 H       1  UNL1        0.1101
     21 N           3.2441   -0.2039   19.4781 N.ar    1  UNL1       -0.2162
     22 N           3.5195   -1.4194   18.6434 N.ar    1  UNL1       -0.1683
     23 C           3.9975   -2.5097   19.5559 C.ar    1  UNL1        0.0810
     24 C           4.0176   -1.9681   20.9546 C.ar    1  UNL1        0.0509
     25 C           3.5519   -0.5430   20.9064 C.ar    1  UNL1        0.1380
     26 C           1.2595    5.0858   17.4581 C.3     1  UNL1        0.0310
     27 C           1.7557    3.7634   17.9631 C.ar    1  UNL1       -0.0218
     28 C           0.7919    2.6355   18.1840 C.ar    1  UNL1       -0.0027
     29 C           1.2880    1.3131   18.6890 C.ar    1  UNL1        0.0189
     30 C           2.7479    1.1186   18.9731 C.ar    1  UNL1        0.0842
     31 C           3.7117    2.2465   18.7522 C.ar    1  UNL1        0.0189
     32 C           3.2156    3.5689   18.2472 C.ar    1  UNL1       -0.0027
     33 C           4.3871   -3.8979   19.1423 C.3     1  UNL1        0.0372
     34 C           5.8345   -3.5082   19.1976 C.3     1  UNL1        0.0060
     35 C           2.9397   -4.2877   19.0870 C.3     1  UNL1        0.0060
     36 C           4.7767   -5.2862   18.7287 C.3     1  UNL1        0.0060
@<TRIPOS>BOND
     1    26    27    1
     2    27    28   ar
     3    28    29   ar
     4    29    30   ar
     5    30    21    1
     6    21    22   ar
     7    22    23   ar
     8    23    33    1
     9    33    34    1
    10    33    35    1
    11    33    36    1
    12    23    24   ar
    13    24    25   ar
    14    25     1    1
    15     1     2   am
    16     2     3    2
    17     2     4   am
    18     4     7    1
    19     7     8   ar
    20     8     9   ar
    21     9    10   ar
    22    10    13    1
    23    13    14   ar
    24    14    15   ar
    25    15    16   ar
    26    16    17    1
    27    16    18   ar
    28    18    19    1
    29    10    11   ar
    30    11    12   ar
    31    30    31   ar
    32    31    32   ar
    33    32    27   ar
    34    25    21   ar
    35    12     7   ar
    36    18    13   ar
    37     1     5    1
    38     4     6    1
    39    17    20    1
@<TRIPOS>MOLECULE
*****
 36 39 0 0 0
SMALL
GASTEIGER

@<TRIPOS>ATOM
      1 N           1.6339    0.4565   20.7990 N.am    1  UNL1       -0.2533
      2 C           1.7653    0.4920   22.2927 C.2     1  UNL1        0.3092
      3 O           2.8591   -0.2811   22.9681 O.2     1  UNL1       -0.2521
      4 N           0.8031    1.3007   23.1113 N.am    1  UNL1       -0.2680
      5 H           0.9160    0.9639   20.3558 H       1  UNL1        0.1578
      6 H           0.0852    1.8081   22.6682 H       1  UNL1        0.1564
      7 C           0.9345    1.3362   24.6051 C.ar    1  UNL1        0.0516
      8 C           2.2913    1.4401   25.2364 C.ar    1  UNL1        0.0148
      9 C           2.4228    1.4757   26.7302 C.ar    1  UNL1        0.0043
     10 C           1.1976    1.4072   27.5928 C.ar    1  UNL1        0.0360
     11 C          -0.1591    1.3033   26.9616 C.ar    1  UNL1        0.0043
     12 C          -0.2906    1.2677   25.4678 C.ar    1  UNL1        0.0148
     13 C           1.3291    1.4427   29.0866 C.ar    1  UNL1        0.1668
     14 N           1.6361    0.2720   29.9727 N.ar    1  UNL1       -0.1282
     15 N           1.6734    0.7609   31.3903 N.ar    1  UNL1       -0.1224
     16 C           1.3895    2.2338   31.3803 C.ar    1  UNL1        0.1896
     17 S           1.3289    3.1282   32.5829 S.3     1  UNL1       -0.1034
     18 N           1.1767    2.6552   29.9565 N.ar    1  UNL1       -0.2886
     19 C           0.8660    4.0449   29.4853 C.3     1  UNL1        0.1340
     20 H           1.5731    2.3979   33.7039 H       1  UNL1        0.1101
     21 N           3.5193    0.1797   18.9245 N.ar    1  UNL1       -0.2162
     22 N           4.2979   -0.9741   18.3655 N.ar    1  UNL1       -0.1683
     23 C           3.8560   -2.2191   19.0760 C.ar    1  UNL1        0.0810
     24 C           2.8042   -1.8348   20.0740 C.ar    1  UNL1        0.0509
     25 C           2.5962   -0.3522   19.9804 C.ar    1  UNL1        0.1380
     26 C           4.0110    5.9155   17.2336 C.3     1  UNL1        0.0310
     27 C           3.8881    4.4815   17.6563 C.ar    1  UNL1       -0.0218
     28 C           2.5590    3.9392   18.0916 C.ar    1  UNL1       -0.0027
     29 C           2.4361    2.5053   18.5144 C.ar    1  UNL1        0.0189
     30 C           3.6422    1.6136   18.5018 C.ar    1  UNL1        0.0842
     31 C           4.9712    2.1559   18.0664 C.ar    1  UNL1        0.0189
     32 C           5.0942    3.5899   17.6437 C.ar    1  UNL1       -0.0027
     33 C           4.3747   -3.6052   18.8313 C.3     1  UNL1        0.0372
     34 C           3.0874   -4.1778   19.3460 C.3     1  UNL1        0.0060
     35 C           5.6620   -3.0325   18.3166 C.3     1  UNL1        0.0060
     36 C           4.8935   -4.9912   18.5866 C.3     1  UNL1        0.0060
@<TRIPOS>BOND
     1    26    27    1
     2    27    28   ar
     3    28    29   ar
     4    29    30   ar
     5    30    21    1
     6    21    22   ar
     7    22    23   ar
     8    23    33    1
     9    33    34    1
    10    33    35    1
    11    33    36    1
    12    23    24   ar
    13    24    25   ar
    14    25     1    1
    15     1     2   am
    16     2     3    2
    17     2     4   am
    18     4     7    1
    19     7     8   ar
    20     8     9   ar
    21     9    10   ar
    22    10    13    1
    23    13    14   ar
    24    14    15   ar
    25    15    16   ar
    26    16    17    1
    27    16    18   ar
    28    18    19    1
    29    10    11   ar
    30    11    12   ar
    31    30    31   ar
    32    31    32   ar
    33    32    27   ar
    34    25    21   ar
    35    12     7   ar
    36    18    13   ar
    37     1     5    1
    38     4     6    1
    39    17    20    1
@<TRIPOS>MOLECULE
*****
 36 39 0 0 0
SMALL
GASTEIGER

@<TRIPOS>ATOM
      1 N           6.5113   -1.2062   23.4907 N.am    1  UNL1       -0.2533
      2 C           5.6256   -0.8706   24.6537 C.2     1  UNL1        0.3092
      3 O           5.0548   -1.9675   25.5029 O.2     1  UNL1       -0.2521
      4 N           5.3106    0.5619   24.9678 N.am    1  UNL1       -0.2680
      5 H           6.8859   -0.4863   22.9333 H       1  UNL1        0.1578
      6 H           5.6852    1.2819   24.4105 H       1  UNL1        0.1564
      7 C           4.4249    0.8975   26.1309 C.ar    1  UNL1        0.0516
      8 C           4.9960    0.9538   27.5168 C.ar    1  UNL1        0.0148
      9 C           4.1103    1.2894   28.6799 C.ar    1  UNL1        0.0043
     10 C           2.6535    1.5687   28.4572 C.ar    1  UNL1        0.0360
     11 C           2.0824    1.5125   27.0714 C.ar    1  UNL1        0.0043
     12 C           2.9681    1.1769   25.9082 C.ar    1  UNL1        0.0148
     13 C           1.7678    1.9043   29.6204 C.ar    1  UNL1        0.1668
     14 N           0.8876    0.9441   30.3642 N.ar    1  UNL1       -0.1282
     15 N           0.1826    1.7054   31.4474 N.ar    1  UNL1       -0.1224
     16 C           0.6270    3.1361   31.3731 C.ar    1  UNL1        0.1896
     17 S           0.1717    4.2485   32.2703 S.3     1  UNL1       -0.1034
     18 N           1.6068    3.2590   30.2438 N.ar    1  UNL1       -0.2886
     19 C           2.3031    4.5160   29.8137 C.3     1  UNL1        0.1340
     20 H          -0.7183    3.7639   33.1774 H       1  UNL1        0.1101
     21 N           6.5372   -3.3421   21.8836 N.ar    1  UNL1       -0.2162
     22 N           7.0180   -4.7575   22.0084 N.ar    1  UNL1       -0.1683
     23 C           7.6042   -4.9289   23.3784 C.ar    1  UNL1        0.0810
     24 C           7.4857   -3.6195   24.1004 C.ar    1  UNL1        0.0509
     25 C           6.8263   -2.6388   23.1766 C.ar    1  UNL1        0.1380
     26 C           3.9179   -0.9193   17.0598 C.3     1  UNL1        0.0310
     27 C           4.5727   -1.5250   18.2658 C.ar    1  UNL1       -0.0218
     28 C           3.7643   -1.8020   19.4985 C.ar    1  UNL1       -0.0027
     29 C           4.4191   -2.4077   20.7045 C.ar    1  UNL1        0.0189
     30 C           5.8824   -2.7364   20.6777 C.ar    1  UNL1        0.0842
     31 C           6.6908   -2.4594   19.4450 C.ar    1  UNL1        0.0189
     32 C           6.0360   -1.8537   18.2390 C.ar    1  UNL1       -0.0027
     33 C           8.2035   -6.1886   23.9297 C.3     1  UNL1        0.0372
     34 C           7.6002   -5.8892   25.2699 C.3     1  UNL1        0.0060
     35 C           8.8068   -6.4880   22.5894 C.3     1  UNL1        0.0060
     36 C           8.8029   -7.4483   24.4809 C.3     1  UNL1        0.0060
@<TRIPOS>BOND
     1    26    27    1
     2    27    28   ar
     3    28    29   ar
     4    29    30   ar
     5    30    21    1
     6    21    22   ar
     7    22    23   ar
     8    23    33    1
     9    33    34    1
    10    33    35    1
    11    33    36    1
    12    23    24   ar
    13    24    25   ar
    14    25     1    1
    15     1     2   am
    16     2     3    2
    17     2     4   am
    18     4     7    1
    19     7     8   ar
    20     8     9   ar
    21     9    10   ar
    22    10    13    1
    23    13    14   ar
    24    14    15   ar
    25    15    16   ar
    26    16    17    1
    27    16    18   ar
    28    18    19    1
    29    10    11   ar
    30    11    12   ar
    31    30    31   ar
    32    31    32   ar
    33    32    27   ar
    34    25    21   ar
    35    12     7   ar
    36    18    13   ar
    37     1     5    1
    38     4     6    1
    39    17    20    1
@<TRIPOS>MOLECULE
*****
 36 39 0 0 0
SMALL
GASTEIGER

@<TRIPOS>ATOM
      1 N          -2.7056    2.7422   20.8369 N.am    1  UNL1       -0.2533
      2 C          -1.3887    2.5774   20.1380 C.2     1  UNL1        0.3092
      3 O          -1.1182    3.3200   18.8630 O.2     1  UNL1       -0.2521
      4 N          -0.3423    1.6700   20.7138 N.am    1  UNL1       -0.2680
      5 H          -2.8831    2.2548   21.6737 H       1  UNL1        0.1578
      6 H          -0.5197    1.1826   21.5506 H       1  UNL1        0.1564
      7 C           0.9746    1.5053   20.0148 C.ar    1  UNL1        0.0516
      8 C           1.0766    0.6240   18.8052 C.ar    1  UNL1        0.0148
      9 C           2.3935    0.4593   18.1062 C.ar    1  UNL1        0.0043
     10 C           3.6084    1.1757   18.6166 C.ar    1  UNL1        0.0360
     11 C           3.5064    2.0570   19.8261 C.ar    1  UNL1        0.0043
     12 C           2.1895    2.2217   20.5252 C.ar    1  UNL1        0.0148
     13 C           4.9253    1.0110   17.9175 C.ar    1  UNL1        0.1668
     14 N           5.6308   -0.2876   17.6608 N.ar    1  UNL1       -0.1282
     15 N           6.9094    0.0148   16.9371 N.ar    1  UNL1       -0.1224
     16 C           6.9941    1.5002   16.7466 C.ar    1  UNL1        0.1896
     17 S           8.1093    2.2400   16.0690 S.3     1  UNL1       -0.1034
     18 N           5.7678    2.1159   17.3525 N.ar    1  UNL1       -0.2886
     19 C           5.4414    3.5796   17.3874 C.3     1  UNL1        0.1340
     20 H           9.0494    1.3536   15.6448 H       1  UNL1        0.1101
     21 N          -4.6839    4.5279   21.0421 N.ar    1  UNL1       -0.2162
     22 N          -5.5582    5.2590   20.0668 N.ar    1  UNL1       -0.1683
     23 C          -5.1666    4.8325   18.6830 C.ar    1  UNL1        0.0810
     24 C          -4.0503    3.8377   18.8031 C.ar    1  UNL1        0.0509
     25 C          -3.7520    3.6495   20.2611 C.ar    1  UNL1        0.1380
     26 C          -4.8802    5.0291   27.0179 C.3     1  UNL1        0.0310
     27 C          -4.8311    4.9038   25.5239 C.ar    1  UNL1       -0.0218
     28 C          -4.5434    6.1095   24.6792 C.ar    1  UNL1       -0.0027
     29 C          -4.4943    5.9842   23.1853 C.ar    1  UNL1        0.0189
     30 C          -4.7330    4.6532   22.5360 C.ar    1  UNL1        0.0842
     31 C          -5.0207    3.4476   23.3807 C.ar    1  UNL1        0.0189
     32 C          -5.0698    3.5729   24.8747 C.ar    1  UNL1       -0.0027
     33 C          -5.7830    5.3158   17.4038 C.3     1  UNL1        0.0372
     34 C          -4.4795    5.0993   16.6938 C.3     1  UNL1        0.0060
     35 C          -7.0865    5.5324   18.1138 C.3     1  UNL1        0.0060
     36 C          -6.3994    5.7992   16.1246 C.3     1  UNL1        0.0060
@<TRIPOS>BOND
     1    26    27    1
     2    27    28   ar
     3    28    29   ar
     4    29    30   ar
     5    30    21    1
     6    21    22   ar
     7    22    23   ar
     8    23    33    1
     9    33    34    1
    10    33    35    1
    11    33    36    1
    12    23    24   ar
    13    24    25   ar
    14    25     1    1
    15     1     2   am
    16     2     3    2
    17     2     4   am
    18     4     7    1
    19     7     8   ar
    20     8     9   ar
    21     9    10   ar
    22    10    13    1
    23    13    14   ar
    24    14    15   ar
    25    15    16   ar
    26    16    17    1
    27    16    18   ar
    28    18    19    1
    29    10    11   ar
    30    11    12   ar
    31    30    31   ar
    32    31    32   ar
    33    32    27   ar
    34    25    21   ar
    35    12     7   ar
    36    18    13   ar
    37     1     5    1
    38     4     6    1
    39    17    20    1
@<TRIPOS>MOLECULE
*****
 36 39 0 0 0
SMALL
GASTEIGER

@<TRIPOS>ATOM
      1 N          -1.8579    2.7567   21.3397 N.am    1  UNL1       -0.2533
      2 C          -0.6148    2.1835   20.7266 C.2     1  UNL1        0.3092
      3 O          -0.2065    2.5881   19.3411 O.2     1  UNL1       -0.2521
      4 N           0.2203    1.2056   21.4990 N.am    1  UNL1       -0.2680
      5 H          -2.1258    2.4911   22.2491 H       1  UNL1        0.1578
      6 H          -0.0476    0.9400   22.4083 H       1  UNL1        0.1564
      7 C           1.4634    0.6324   20.8858 C.ar    1  UNL1        0.0516
      8 C           1.4757   -0.7879   20.4036 C.ar    1  UNL1        0.0148
      9 C           2.7188   -1.3611   19.7905 C.ar    1  UNL1        0.0043
     10 C           3.9498   -0.5141   19.6594 C.ar    1  UNL1        0.0360
     11 C           3.9375    0.9063   20.1416 C.ar    1  UNL1        0.0043
     12 C           2.6944    1.4795   20.7548 C.ar    1  UNL1        0.0148
     13 C           5.1929   -1.0873   19.0463 C.ar    1  UNL1        0.1668
     14 N           5.4103   -1.3630   17.5879 N.ar    1  UNL1       -0.1282
     15 N           6.7887   -1.9315   17.4241 N.ar    1  UNL1       -0.1224
     16 C           7.4232   -2.0071   18.7812 C.ar    1  UNL1        0.1896
     17 S           8.8019   -2.5153   19.0828 S.3     1  UNL1       -0.1034
     18 N           6.4369   -1.4853   19.7838 N.ar    1  UNL1       -0.2886
     19 C           6.6562   -1.3801   21.2639 C.3     1  UNL1        0.1340
     20 H           9.4044   -2.9046   17.9274 H       1  UNL1        0.1101
     21 N          -3.7145    4.6697   21.1435 N.ar    1  UNL1       -0.2162
     22 N          -4.3059    5.4620   20.0155 N.ar    1  UNL1       -0.1683
     23 C          -3.6498    5.0166   18.7422 C.ar    1  UNL1        0.0810
     24 C          -2.6530    3.9489   19.0833 C.ar    1  UNL1        0.0509
     25 C          -2.6929    3.7346   20.5674 C.ar    1  UNL1        0.1380
     26 C          -5.1781    5.1556   26.9419 C.3     1  UNL1        0.0310
     27 C          -4.8122    5.0341   25.4923 C.ar    1  UNL1       -0.0218
     28 C          -5.1642    3.7902   24.7317 C.ar    1  UNL1       -0.0027
     29 C          -4.7983    3.6687   23.2821 C.ar    1  UNL1        0.0189
     30 C          -4.0804    4.7912   22.5931 C.ar    1  UNL1        0.0842
     31 C          -3.7284    6.0351   23.3538 C.ar    1  UNL1        0.0189
     32 C          -4.0944    6.1566   24.8034 C.ar    1  UNL1       -0.0027
     33 C          -3.9398    5.5459   17.3690 C.3     1  UNL1        0.0372
     34 C          -5.1824    4.7079   17.3084 C.3     1  UNL1        0.0060
     35 C          -2.6972    6.3838   17.4296 C.3     1  UNL1        0.0060
     36 C          -4.2297    6.0752   15.9958 C.3     1  UNL1        0.0060
@<TRIPOS>BOND
     1    26    27    1
     2    27    28   ar
     3    28    29   ar
     4    29    30   ar
     5    30    21    1
     6    21    22   ar
     7    22    23   ar
     8    23    33    1
     9    33    34    1
    10    33    35    1
    11    33    36    1
    12    23    24   ar
    13    24    25   ar
    14    25     1    1
    15     1     2   am
    16     2     3    2
    17     2     4   am
    18     4     7    1
    19     7     8   ar
    20     8     9   ar
    21     9    10   ar
    22    10    13    1
    23    13    14   ar
    24    14    15   ar
    25    15    16   ar
    26    16    17    1
    27    16    18   ar
    28    18    19    1
    29    10    11   ar
    30    11    12   ar
    31    30    31   ar
    32    31    32   ar
    33    32    27   ar
    34    25    21   ar
    35    12     7   ar
    36    18    13   ar
    37     1     5    1
    38     4     6    1
    39    17    20    1
@<TRIPOS>MOLECULE
*****
 36 39 0 0 0
SMALL
GASTEIGER

@<TRIPOS>ATOM
      1 N           5.0403   -2.3330   27.5877 N.am    1  UNL1       -0.2533
      2 C           5.2326   -2.0133   26.1349 C.2     1  UNL1        0.3092
      3 O           6.5972   -1.6665   25.6174 O.2     1  UNL1       -0.2521
      4 N           4.0603   -2.0402   25.1994 N.am    1  UNL1       -0.2680
      5 H           4.1447   -2.5606   27.9272 H       1  UNL1        0.1578
      6 H           3.1647   -2.2678   25.5389 H       1  UNL1        0.1564
      7 C           4.2527   -1.7205   23.7465 C.ar    1  UNL1        0.0516
      8 C           4.0340   -0.3216   23.2511 C.ar    1  UNL1        0.0148
      9 C           4.2264   -0.0018   21.7983 C.ar    1  UNL1        0.0043
     10 C           4.6374   -1.0808   20.8408 C.ar    1  UNL1        0.0360
     11 C           4.8561   -2.4797   21.3362 C.ar    1  UNL1        0.0043
     12 C           4.6637   -2.7994   22.7891 C.ar    1  UNL1        0.0148
     13 C           4.8298   -0.7610   19.3880 C.ar    1  UNL1        0.1668
     14 N           4.0095   -1.2954   18.2515 N.ar    1  UNL1       -0.1282
     15 N           4.5490   -0.7153   16.9777 N.ar    1  UNL1       -0.1224
     16 C           5.7026    0.1775   17.3270 C.ar    1  UNL1        0.1896
     17 S           6.5363    0.9610   16.3569 S.3     1  UNL1       -0.1034
     18 N           5.8762    0.1493   18.8167 N.ar    1  UNL1       -0.2886
     19 C           6.9139    0.8996   19.5978 C.3     1  UNL1        0.1340
     20 H           6.0872    0.7410   15.0922 H       1  UNL1        0.1101
     21 N           7.3961   -3.2265   28.4803 N.ar    1  UNL1       -0.2162
     22 N           8.3220   -2.8431   29.5964 N.ar    1  UNL1       -0.1683
     23 C           7.7106   -1.6858   30.3291 C.ar    1  UNL1        0.0810
     24 C           6.4069   -1.3538   29.6658 C.ar    1  UNL1        0.0509
     25 C           6.2125   -2.3060   28.5232 C.ar    1  UNL1        0.1380
     26 C           8.2730   -7.6626   24.5368 C.3     1  UNL1        0.0310
     27 C           8.0538   -6.5536   25.5226 C.ar    1  UNL1       -0.0218
     28 C           6.9110   -6.6264   26.4915 C.ar    1  UNL1       -0.0027
     29 C           6.6918   -5.5173   27.4774 C.ar    1  UNL1        0.0189
     30 C           7.6153   -4.3355   27.4944 C.ar    1  UNL1        0.0842
     31 C           8.7581   -4.2628   26.5256 C.ar    1  UNL1        0.0189
     32 C           8.9774   -5.3718   25.5397 C.ar    1  UNL1       -0.0027
     33 C           8.2996   -0.9837   31.5166 C.3     1  UNL1        0.0372
     34 C           8.8690    0.0687   30.6120 C.3     1  UNL1        0.0060
     35 C           7.7303   -2.0361   32.4212 C.3     1  UNL1        0.0060
     36 C           8.8886   -0.2816   32.7041 C.3     1  UNL1        0.0060
@<TRIPOS>BOND
     1    26    27    1
     2    27    28   ar
     3    28    29   ar
     4    29    30   ar
     5    30    21    1
     6    21    22   ar
     7    22    23   ar
     8    23    33    1
     9    33    34    1
    10    33    35    1
    11    33    36    1
    12    23    24   ar
    13    24    25   ar
    14    25     1    1
    15     1     2   am
    16     2     3    2
    17     2     4   am
    18     4     7    1
    19     7     8   ar
    20     8     9   ar
    21     9    10   ar
    22    10    13    1
    23    13    14   ar
    24    14    15   ar
    25    15    16   ar
    26    16    17    1
    27    16    18   ar
    28    18    19    1
    29    10    11   ar
    30    11    12   ar
    31    30    31   ar
    32    31    32   ar
    33    32    27   ar
    34    25    21   ar
    35    12     7   ar
    36    18    13   ar
    37     1     5    1
    38     4     6    1
    39    17    20    1
@<TRIPOS>MOLECULE
*****
 36 39 0 0 0
SMALL
GASTEIGER

@<TRIPOS>ATOM
      1 N          -1.5495    5.1414   22.9119 N.am    1  UNL1       -0.2533
      2 C          -0.8034    4.0364   22.2248 C.2     1  UNL1        0.3092
      3 O          -1.3477    2.6387   22.2442 O.2     1  UNL1       -0.2521
      4 N           0.4871    4.3288   21.5183 N.am    1  UNL1       -0.2680
      5 H          -1.1922    6.0587   22.8991 H       1  UNL1        0.1578
      6 H           0.8444    5.2461   21.5056 H       1  UNL1        0.1564
      7 C           1.2332    3.2238   20.8313 C.ar    1  UNL1        0.0516
      8 C           0.7105    2.6512   19.5472 C.ar    1  UNL1        0.0148
      9 C           1.4567    1.5461   18.8601 C.ar    1  UNL1        0.0043
     10 C           2.7255    1.0135   19.4571 C.ar    1  UNL1        0.0360
     11 C           3.2482    1.5861   20.7412 C.ar    1  UNL1        0.0043
     12 C           2.5020    2.6912   21.4283 C.ar    1  UNL1        0.0148
     13 C           3.4716   -0.0916   18.7700 C.ar    1  UNL1        0.1668
     14 N           3.9588   -0.0774   17.3514 N.ar    1  UNL1       -0.1282
     15 N           4.6498   -1.3819   17.0856 N.ar    1  UNL1       -0.1224
     16 C           4.5896   -2.2024   18.3399 C.ar    1  UNL1        0.1896
     17 S           5.1579   -3.5787   18.5213 S.3     1  UNL1       -0.1034
     18 N           3.8614   -1.4049   19.3810 N.ar    1  UNL1       -0.2886
     19 C           3.5736   -1.8437   20.7862 C.3     1  UNL1        0.1340
     20 H           5.7461   -3.9825   17.3635 H       1  UNL1        0.1101
     21 N          -2.9805    4.2291   24.9771 N.ar    1  UNL1       -0.2162
     22 N          -4.4438    4.1220   25.2886 N.ar    1  UNL1       -0.1683
     23 C          -5.2078    4.6756   24.1224 C.ar    1  UNL1        0.0810
     24 C          -4.2165    5.1248   23.0901 C.ar    1  UNL1        0.0509
     25 C          -2.8400    4.8489   23.6184 C.ar    1  UNL1        0.1380
     26 C           1.5207    2.4849   28.5404 C.3     1  UNL1        0.0310
     27 C           0.3954    2.9209   27.6496 C.ar    1  UNL1       -0.0218
     28 C          -0.1627    4.3080   27.7706 C.ar    1  UNL1       -0.0027
     29 C          -1.2880    4.7440   26.8798 C.ar    1  UNL1        0.0189
     30 C          -1.8552    3.7931   25.8679 C.ar    1  UNL1        0.0842
     31 C          -1.2971    2.4061   25.7469 C.ar    1  UNL1        0.0189
     32 C          -0.1718    1.9700   26.6377 C.ar    1  UNL1       -0.0027
     33 C          -6.7008    4.7643   24.0085 C.3     1  UNL1        0.0372
     34 C          -6.6425    4.0520   22.6897 C.3     1  UNL1        0.0060
     35 C          -6.7591    5.4766   25.3273 C.3     1  UNL1        0.0060
     36 C          -8.1938    4.8530   23.8945 C.3     1  UNL1        0.0060
@<TRIPOS>BOND
     1    26    27    1
     2    27    28   ar
     3    28    29   ar
     4    29    30   ar
     5    30    21    1
     6    21    22   ar
     7    22    23   ar
     8    23    33    1
     9    33    34    1
    10    33    35    1
    11    33    36    1
    12    23    24   ar
    13    24    25   ar
    14    25     1    1
    15     1     2   am
    16     2     3    2
    17     2     4   am
    18     4     7    1
    19     7     8   ar
    20     8     9   ar
    21     9    10   ar
    22    10    13    1
    23    13    14   ar
    24    14    15   ar
    25    15    16   ar
    26    16    17    1
    27    16    18   ar
    28    18    19    1
    29    10    11   ar
    30    11    12   ar
    31    30    31   ar
    32    31    32   ar
    33    32    27   ar
    34    25    21   ar
    35    12     7   ar
    36    18    13   ar
    37     1     5    1
    38     4     6    1
    39    17    20    1
@<TRIPOS>MOLECULE
*****
 36 39 0 0 0
SMALL
GASTEIGER

@<TRIPOS>ATOM
      1 N           2.5072   -0.9676   29.5189 N.am    1  UNL1       -0.2533
      2 C           3.2046   -0.6207   28.2371 C.2     1  UNL1        0.3092
      3 O           3.8028    0.7427   28.0539 O.2     1  UNL1       -0.2521
      4 N           3.3039   -1.6370   27.1384 N.am    1  UNL1       -0.2680
      5 H           2.1146   -1.8624   29.6392 H       1  UNL1        0.1578
      6 H           2.9113   -2.5318   27.2586 H       1  UNL1        0.1564
      7 C           4.0014   -1.2900   25.8565 C.ar    1  UNL1        0.0516
      8 C           5.4436   -1.6548   25.6649 C.ar    1  UNL1        0.0148
      9 C           6.1411   -1.3078   24.3830 C.ar    1  UNL1        0.0043
     10 C           5.3963   -0.5960   23.2928 C.ar    1  UNL1        0.0360
     11 C           3.9540   -0.2312   23.4844 C.ar    1  UNL1        0.0043
     12 C           3.2566   -0.5782   24.7663 C.ar    1  UNL1        0.0148
     13 C           6.0938   -0.2490   22.0109 C.ar    1  UNL1        0.1668
     14 N           7.0580    0.8823   21.8101 N.ar    1  UNL1       -0.1282
     15 N           7.5096    0.8581   20.3799 N.ar    1  UNL1       -0.1224
     16 C           6.8244   -0.2882   19.6968 C.ar    1  UNL1        0.1896
     17 S           6.9859   -0.6812   18.2582 S.3     1  UNL1       -0.1034
     18 N           5.9494   -0.9724   20.7049 N.ar    1  UNL1       -0.2886
     19 C           5.0822   -2.1698   20.4514 C.3     1  UNL1        0.1340
     20 H           7.8590    0.1671   17.6518 H       1  UNL1        0.1101
     21 N           1.5931    1.3077   30.5832 N.ar    1  UNL1       -0.2162
     22 N           1.7876    2.0215   31.8880 N.ar    1  UNL1       -0.1683
     23 C           2.7227    1.2038   32.7289 C.ar    1  UNL1        0.0810
     24 C           3.1061   -0.0154   31.9438 C.ar    1  UNL1        0.0509
     25 C           2.4079    0.0488   30.6177 C.ar    1  UNL1        0.1380
     26 C          -1.8414    3.1622   26.0264 C.3     1  UNL1        0.0310
     27 C          -0.9828    2.6985   27.1656 C.ar    1  UNL1       -0.0218
     28 C          -1.2387    1.3653   27.8034 C.ar    1  UNL1       -0.0027
     29 C          -0.3801    0.9016   28.9426 C.ar    1  UNL1        0.0189
     30 C           0.7345    1.7713   29.4440 C.ar    1  UNL1        0.0842
     31 C           0.9904    3.1046   28.8062 C.ar    1  UNL1        0.0189
     32 C           0.1318    3.5682   27.6670 C.ar    1  UNL1       -0.0027
     33 C           3.1920    1.5454   34.1120 C.3     1  UNL1        0.0372
     34 C           4.1961    0.4330   34.0461 C.3     1  UNL1        0.0060
     35 C           2.1879    2.6579   34.1780 C.3     1  UNL1        0.0060
     36 C           3.6613    1.8870   35.4952 C.3     1  UNL1        0.0060
@<TRIPOS>BOND
     1    26    27    1
     2    27    28   ar
     3    28    29   ar
     4    29    30   ar
     5    30    21    1
     6    21    22   ar
     7    22    23   ar
     8    23    33    1
     9    33    34    1
    10    33    35    1
    11    33    36    1
    12    23    24   ar
    13    24    25   ar
    14    25     1    1
    15     1     2   am
    16     2     3    2
    17     2     4   am
    18     4     7    1
    19     7     8   ar
    20     8     9   ar
    21     9    10   ar
    22    10    13    1
    23    13    14   ar
    24    14    15   ar
    25    15    16   ar
    26    16    17    1
    27    16    18   ar
    28    18    19    1
    29    10    11   ar
    30    11    12   ar
    31    30    31   ar
    32    31    32   ar
    33    32    27   ar
    34    25    21   ar
    35    12     7   ar
    36    18    13   ar
    37     1     5    1
    38     4     6    1
    39    17    20    1
