@<TRIPOS>MOLECULE
*****
 20 22 0 0 0
SMALL
GASTEIGER

@<TRIPOS>ATOM
      1 C          -9.5923  -17.9052   21.2198 C.3     1  UNL1        0.1180
      2 C         -10.5628  -18.3312   20.1582 C.3     1  UNL1        0.0911
      3 N         -11.8609  -17.5985   19.9913 N.3     1  UNL1       -0.2946
      4 C         -12.1886  -16.4398   20.8858 C.3     1  UNL1        0.0903
      5 C         -11.2181  -16.0138   21.9472 C.3     1  UNL1        0.1076
      6 N          -9.9200  -16.7465   22.1142 N.pl3   1  UNL1       -0.3070
      7 H         -12.6048  -18.2854   20.1148 H       1  UNL1        0.1233
      8 C          -8.9495  -16.3205   23.1757 C.2     1  UNL1        0.0295
      9 C          -7.7068  -15.5702   22.7983 C.2     1  UNL1        0.0120
     10 C          -6.7363  -15.1442   23.8598 C.2     1  UNL1        0.0216
     11 C          -7.0086  -15.4686   25.2988 C.2     1  UNL1        0.1008
     12 N          -6.2413  -15.1809   26.5551 N.2     1  UNL1       -0.1482
     13 N          -7.0098  -15.7535   27.7090 N.2     1  UNL1       -0.1467
     14 C          -8.2522  -16.3950   27.1658 C.2     1  UNL1        0.1198
     15 C          -8.2514  -16.2190   25.6762 C.2     1  UNL1        0.0238
     16 C          -9.2218  -16.6449   24.6147 C.3     1  UNL1        0.0705
     17 C          -8.2941  -18.6379   21.3867 C.3     1  UNL1        0.1631
     18 O          -7.1179  -18.2860   20.5248 O.3     1  UNL1       -0.3520
     19 C          -6.1234  -20.6837   20.4174 C.3     1  UNL1        0.0346
     20 C          -5.9279  -19.1975   20.4712 C.3     1  UNL1        0.1423
@<TRIPOS>BOND
     1    19    20    1
     2    20    18    1
     3    18    17    1
     4    17     1    1
     5     1     2    1
     6     2     3    1
     7     3     4    1
     8     4     5    1
     9     5     6    1
    10     6     8    1
    11     8     9    2
    12     9    10    1
    13    10    11    2
    14    11    12    1
    15    12    13    2
    16    13    14    1
    17    14    15    2
    18    15    16    1
    19     6     1    1
    20    16     8    1
    21    15    11    1
    22     3     7    1
@<TRIPOS>MOLECULE
*****
 20 22 0 0 0
SMALL
GASTEIGER

@<TRIPOS>ATOM
      1 C          -9.7128  -18.0505   21.4498 C.3     1  UNL1        0.1180
      2 C         -10.7220  -18.4956   20.4332 C.3     1  UNL1        0.0911
      3 N         -11.9376  -17.6582   20.1666 N.3     1  UNL1       -0.2946
      4 C         -12.1439  -16.3756   20.9166 C.3     1  UNL1        0.0903
      5 C         -11.1347  -15.9306   21.9332 C.3     1  UNL1        0.1076
      6 N          -9.9192  -16.7681   22.1998 N.pl3   1  UNL1       -0.3070
      7 H         -12.7484  -18.2460   20.3600 H       1  UNL1        0.1233
      8 C          -8.9100  -16.3229   23.2165 C.2     1  UNL1        0.0295
      9 C          -7.6234  -15.6941   22.7705 C.2     1  UNL1        0.0120
     10 C          -6.6142  -15.2490   23.7872 C.2     1  UNL1        0.0216
     11 C          -6.8918  -15.4328   25.2498 C.2     1  UNL1        0.1008
     12 N          -6.0925  -15.0950   26.4733 N.2     1  UNL1       -0.1482
     13 N          -6.8852  -15.5151   27.6754 N.2     1  UNL1       -0.1467
     14 C          -8.1745  -16.1126   27.1948 C.2     1  UNL1        0.1198
     15 C          -8.1785  -16.0617   25.6957 C.2     1  UNL1        0.0238
     16 C          -9.1876  -16.5068   24.6790 C.3     1  UNL1        0.0705
     17 C          -8.4973  -18.8880   21.7164 C.3     1  UNL1        0.1631
     18 O          -8.5041  -19.8844   22.8377 O.3     1  UNL1       -0.3520
     19 C         -10.1168  -19.8714   24.8745 C.3     1  UNL1        0.0346
     20 C          -9.8014  -20.2932   23.4701 C.3     1  UNL1        0.1423
@<TRIPOS>BOND
     1    19    20    1
     2    20    18    1
     3    18    17    1
     4    17     1    1
     5     1     2    1
     6     2     3    1
     7     3     4    1
     8     4     5    1
     9     5     6    1
    10     6     8    1
    11     8     9    2
    12     9    10    1
    13    10    11    2
    14    11    12    1
    15    12    13    2
    16    13    14    1
    17    14    15    2
    18    15    16    1
    19     6     1    1
    20    16     8    1
    21    15    11    1
    22     3     7    1
@<TRIPOS>MOLECULE
*****
 20 22 0 0 0
SMALL
GASTEIGER

@<TRIPOS>ATOM
      1 C          -6.1781  -16.5051   23.6084 C.3     1  UNL1        0.1180
      2 C          -4.6846  -16.6417   23.6405 C.3     1  UNL1        0.0911
      3 N          -4.0174  -17.7583   22.8935 N.3     1  UNL1       -0.2946
      4 C          -4.8437  -18.7382   22.1143 C.3     1  UNL1        0.0903
      5 C          -6.3371  -18.6015   22.0822 C.3     1  UNL1        0.1076
      6 N          -7.0043  -17.4850   22.8292 N.pl3   1  UNL1       -0.3070
      7 H          -3.4901  -18.2980   23.5798 H       1  UNL1        0.1233
      8 C          -8.4977  -17.3483   22.7971 C.2     1  UNL1        0.0295
      9 C          -9.1427  -16.3884   21.8419 C.2     1  UNL1        0.0120
     10 C         -10.6362  -16.2518   21.8098 C.2     1  UNL1        0.0216
     11 C         -11.4846  -17.0752   22.7329 C.2     1  UNL1        0.1008
     12 N         -12.9698  -17.1557   22.9269 N.2     1  UNL1       -0.1482
     13 N         -13.2427  -18.1654   24.0021 N.2     1  UNL1       -0.1467
     14 C         -11.9262  -18.7089   24.4726 C.2     1  UNL1        0.1198
     15 C         -10.8396  -18.0352   23.6881 C.2     1  UNL1        0.0238
     16 C          -9.3462  -18.1717   23.7202 C.3     1  UNL1        0.0705
     17 C          -6.8452  -15.3885   24.3554 C.3     1  UNL1        0.1631
     18 O          -6.1924  -14.8059   25.5738 O.3     1  UNL1       -0.3520
     19 C          -7.8927  -15.8274   27.2517 C.3     1  UNL1        0.0346
     20 C          -6.5024  -15.3650   26.9308 C.3     1  UNL1        0.1423
@<TRIPOS>BOND
     1    19    20    1
     2    20    18    1
     3    18    17    1
     4    17     1    1
     5     1     2    1
     6     2     3    1
     7     3     4    1
     8     4     5    1
     9     5     6    1
    10     6     8    1
    11     8     9    2
    12     9    10    1
    13    10    11    2
    14    11    12    1
    15    12    13    2
    16    13    14    1
    17    14    15    2
    18    15    16    1
    19     6     1    1
    20    16     8    1
    21    15    11    1
    22     3     7    1
@<TRIPOS>MOLECULE
*****
 20 22 0 0 0
SMALL
GASTEIGER

@<TRIPOS>ATOM
      1 C          -6.4681  -16.5941   23.6206 C.3     1  UNL1        0.1180
      2 C          -5.0059  -16.5050   23.9435 C.3     1  UNL1        0.0911
      3 N          -4.0520  -17.5208   23.3883 N.3     1  UNL1       -0.2946
      4 C          -4.5603  -18.6257   22.5102 C.3     1  UNL1        0.0903
      5 C          -6.0224  -18.7147   22.1873 C.3     1  UNL1        0.1076
      6 N          -6.9763  -17.6989   22.7425 N.pl3   1  UNL1       -0.3070
      7 H          -3.5971  -17.9645   24.1862 H       1  UNL1        0.1233
      8 C          -8.4384  -17.7880   22.4196 C.2     1  UNL1        0.0295
      9 C          -9.2701  -18.8901   23.0056 C.2     1  UNL1        0.0120
     10 C         -10.7323  -18.9792   22.6826 C.2     1  UNL1        0.0216
     11 C         -11.3626  -17.9661   21.7736 C.2     1  UNL1        0.1008
     12 N         -12.7686  -17.7994   21.2783 N.2     1  UNL1       -0.1482
     13 N         -12.8058  -16.5942   20.3861 N.2     1  UNL1       -0.1467
     14 C         -11.4228  -16.0161   20.3300 C.2     1  UNL1        0.1198
     15 C         -10.5308  -16.8640   21.1876 C.2     1  UNL1        0.0238
     16 C          -9.0687  -16.7749   21.5106 C.3     1  UNL1        0.0705
     17 C          -7.4220  -15.5784   24.1758 C.3     1  UNL1        0.1631
     18 O          -8.3881  -15.9679   25.2551 O.3     1  UNL1       -0.3520
     19 C          -6.8192  -15.4641   27.2636 C.3     1  UNL1        0.0346
     20 C          -8.1902  -15.4677   26.6553 C.3     1  UNL1        0.1423
@<TRIPOS>BOND
     1    19    20    1
     2    20    18    1
     3    18    17    1
     4    17     1    1
     5     1     2    1
     6     2     3    1
     7     3     4    1
     8     4     5    1
     9     5     6    1
    10     6     8    1
    11     8     9    2
    12     9    10    1
    13    10    11    2
    14    11    12    1
    15    12    13    2
    16    13    14    1
    17    14    15    2
    18    15    16    1
    19     6     1    1
    20    16     8    1
    21    15    11    1
    22     3     7    1
@<TRIPOS>MOLECULE
*****
 20 22 0 0 0
SMALL
GASTEIGER

@<TRIPOS>ATOM
      1 C          -4.5097  -18.7268   22.2528 C.3     1  UNL1        0.1180
      2 C          -3.1105  -19.0109   21.7929 C.3     1  UNL1        0.0911
      3 N          -2.8731  -19.9586   20.6547 N.3     1  UNL1       -0.2946
      4 C          -4.0349  -20.6221   19.9765 C.3     1  UNL1        0.0903
      5 C          -5.4340  -20.3380   20.4364 C.3     1  UNL1        0.1076
      6 N          -5.6714  -19.3903   21.5746 N.pl3   1  UNL1       -0.3070
      7 H          -2.2757  -20.7042   21.0120 H       1  UNL1        0.1233
      8 C          -7.0707  -19.1062   22.0345 C.2     1  UNL1        0.0295
      9 C          -7.8383  -20.1500   22.7902 C.2     1  UNL1        0.0120
     10 C          -9.2375  -19.8658   23.2501 C.2     1  UNL1        0.0216
     11 C          -9.8691  -18.5378   22.9543 C.2     1  UNL1        0.1008
     12 N         -11.2214  -17.9752   23.2779 N.2     1  UNL1       -0.1482
     13 N         -11.2894  -16.5836   22.7222 N.2     1  UNL1       -0.1467
     14 C          -9.9793  -16.2862   22.0552 C.2     1  UNL1        0.1198
     15 C          -9.1014  -17.4940   22.1986 C.2     1  UNL1        0.0238
     16 C          -7.7022  -17.7782   21.7387 C.3     1  UNL1        0.0705
     17 C          -4.7471  -17.7791   23.3910 C.3     1  UNL1        0.1631
     18 O          -4.7267  -16.2985   23.1511 O.3     1  UNL1       -0.3520
     19 C          -5.4351  -15.6395   25.5622 C.3     1  UNL1        0.0346
     20 C          -5.4532  -15.3771   24.0855 C.3     1  UNL1        0.1423
@<TRIPOS>BOND
     1    19    20    1
     2    20    18    1
     3    18    17    1
     4    17     1    1
     5     1     2    1
     6     2     3    1
     7     3     4    1
     8     4     5    1
     9     5     6    1
    10     6     8    1
    11     8     9    2
    12     9    10    1
    13    10    11    2
    14    11    12    1
    15    12    13    2
    16    13    14    1
    17    14    15    2
    18    15    16    1
    19     6     1    1
    20    16     8    1
    21    15    11    1
    22     3     7    1
@<TRIPOS>MOLECULE
*****
 20 22 0 0 0
SMALL
GASTEIGER

@<TRIPOS>ATOM
      1 C         -11.5161   -6.5812   17.2077 C.3     1  UNL1        0.1180
      2 C         -11.0583   -8.0057   17.1009 C.3     1  UNL1        0.0911
      3 N          -9.9388   -8.5006   17.9679 N.3     1  UNL1       -0.2946
      4 C          -9.2770   -7.5711   18.9416 C.3     1  UNL1        0.0903
      5 C          -9.7348   -6.1466   19.0483 C.3     1  UNL1        0.1076
      6 N         -10.8544   -5.6518   18.1813 N.pl3   1  UNL1       -0.3070
      7 H          -9.2087   -8.8392   17.3413 H       1  UNL1        0.1233
      8 C         -11.3122   -4.2273   18.2881 C.2     1  UNL1        0.0295
      9 C         -12.3423   -3.8450   19.3091 C.2     1  UNL1        0.0120
     10 C         -12.8001   -2.4205   19.4159 C.2     1  UNL1        0.0216
     11 C         -12.2276   -1.3783   18.5015 C.2     1  UNL1        0.1008
     12 N         -12.4830    0.0942   18.3735 N.2     1  UNL1       -0.1482
     13 N         -11.6106    0.6220   17.2734 N.2     1  UNL1       -0.1467
     14 C         -10.8161   -0.5243   16.7214 C.2     1  UNL1        0.1198
     15 C         -11.1974   -1.7606   17.4804 C.2     1  UNL1        0.0238
     16 C         -10.7397   -3.1851   17.3737 C.3     1  UNL1        0.0705
     17 C         -12.6357   -6.0863   16.3407 C.3     1  UNL1        0.1631
     18 O         -14.0221   -5.9679   16.9009 O.3     1  UNL1       -0.3520
     19 C         -14.8333   -6.5712   19.2941 C.3     1  UNL1        0.0346
     20 C         -14.5225   -6.9827   17.8857 C.3     1  UNL1        0.1423
@<TRIPOS>BOND
     1    19    20    1
     2    20    18    1
     3    18    17    1
     4    17     1    1
     5     1     2    1
     6     2     3    1
     7     3     4    1
     8     4     5    1
     9     5     6    1
    10     6     8    1
    11     8     9    2
    12     9    10    1
    13    10    11    2
    14    11    12    1
    15    12    13    2
    16    13    14    1
    17    14    15    2
    18    15    16    1
    19     6     1    1
    20    16     8    1
    21    15    11    1
    22     3     7    1
@<TRIPOS>MOLECULE
*****
 20 22 0 0 0
SMALL
GASTEIGER

@<TRIPOS>ATOM
      1 C         -12.5886   -4.2564   18.8059 C.3     1  UNL1        0.1180
      2 C         -12.1962   -2.8099   18.8684 C.3     1  UNL1        0.0911
      3 N         -13.1695   -1.7499   18.4453 N.3     1  UNL1       -0.2946
      4 C         -14.5351   -2.1363   17.9597 C.3     1  UNL1        0.0903
      5 C         -14.9275   -3.5827   17.8973 C.3     1  UNL1        0.1076
      6 N         -13.9542   -4.6427   18.3204 N.pl3   1  UNL1       -0.3070
      7 H         -12.7256   -1.2270   17.6904 H       1  UNL1        0.1233
      8 C         -14.3466   -6.0892   18.2580 C.2     1  UNL1        0.0295
      9 C         -13.8211   -6.9620   17.1571 C.2     1  UNL1        0.0120
     10 C         -14.2136   -8.4085   17.0947 C.2     1  UNL1        0.0216
     11 C         -15.1315   -8.9820   18.1331 C.2     1  UNL1        0.1008
     12 N         -15.6886  -10.3609   18.3289 N.2     1  UNL1       -0.1482
     13 N         -16.5584  -10.3402   19.5507 N.2     1  UNL1       -0.1467
     14 C         -16.5389   -8.9485   20.1102 C.2     1  UNL1        0.1198
     15 C         -15.6570   -8.1091   19.2340 C.2     1  UNL1        0.0238
     16 C         -15.2645   -6.6627   19.2964 C.3     1  UNL1        0.0705
     17 C         -11.6153   -5.3164   19.2291 C.3     1  UNL1        0.1631
     18 O         -10.1482   -5.1310   18.9778 O.3     1  UNL1       -0.3520
     19 C          -9.1786   -4.2582   16.7311 C.3     1  UNL1        0.0346
     20 C          -9.5805   -5.4008   17.6158 C.3     1  UNL1        0.1423
@<TRIPOS>BOND
     1    19    20    1
     2    20    18    1
     3    18    17    1
     4    17     1    1
     5     1     2    1
     6     2     3    1
     7     3     4    1
     8     4     5    1
     9     5     6    1
    10     6     8    1
    11     8     9    2
    12     9    10    1
    13    10    11    2
    14    11    12    1
    15    12    13    2
    16    13    14    1
    17    14    15    2
    18    15    16    1
    19     6     1    1
    20    16     8    1
    21    15    11    1
    22     3     7    1
@<TRIPOS>MOLECULE
*****
 20 22 0 0 0
SMALL
GASTEIGER

@<TRIPOS>ATOM
      1 C           4.5576   -2.0915   18.7806 C.3     1  UNL1        0.1180
      2 C           5.7841   -2.7342   18.2036 C.3     1  UNL1        0.0911
      3 N           6.8158   -1.8939   17.5112 N.3     1  UNL1       -0.2946
      4 C           6.6211   -0.4111   17.3958 C.3     1  UNL1        0.0903
      5 C           5.3946    0.2315   17.9727 C.3     1  UNL1        0.1076
      6 N           4.3629   -0.6088   18.6651 N.pl3   1  UNL1       -0.3070
      7 H           6.8999   -2.2547   16.5609 H       1  UNL1        0.1233
      8 C           3.1364    0.0339   19.2421 C.2     1  UNL1        0.0295
      9 C           1.9854    0.3899   18.3487 C.2     1  UNL1        0.0120
     10 C           0.7589    1.0326   18.9257 C.2     1  UNL1        0.0216
     11 C           0.6836    1.3191   20.3961 C.2     1  UNL1        0.1008
     12 N          -0.3869    1.9393   21.2442 N.2     1  UNL1       -0.1482
     13 N           0.1025    1.9665   22.6619 N.2     1  UNL1       -0.1467
     14 C           1.4755    1.3631   22.6899 C.2     1  UNL1        0.1198
     15 C           1.8347    0.9630   21.2896 C.2     1  UNL1        0.0238
     16 C           3.0611    0.3203   20.7126 C.3     1  UNL1        0.0705
     17 C           3.5258   -2.9318   19.4730 C.3     1  UNL1        0.1631
     18 O           3.9506   -4.0965   20.3175 O.3     1  UNL1       -0.3520
     19 C           4.2756   -2.6885   22.4766 C.3     1  UNL1        0.0346
     20 C           4.6544   -3.8607   21.6210 C.3     1  UNL1        0.1423
@<TRIPOS>BOND
     1    19    20    1
     2    20    18    1
     3    18    17    1
     4    17     1    1
     5     1     2    1
     6     2     3    1
     7     3     4    1
     8     4     5    1
     9     5     6    1
    10     6     8    1
    11     8     9    2
    12     9    10    1
    13    10    11    2
    14    11    12    1
    15    12    13    2
    16    13    14    1
    17    14    15    2
    18    15    16    1
    19     6     1    1
    20    16     8    1
    21    15    11    1
    22     3     7    1
@<TRIPOS>MOLECULE
*****
 20 22 0 0 0
SMALL
GASTEIGER

@<TRIPOS>ATOM
      1 C           5.4422   -3.1460   22.8759 C.3     1  UNL1        0.1180
      2 C           6.0099   -3.8451   24.0755 C.3     1  UNL1        0.0911
      3 N           6.0094   -3.1627   25.4113 N.3     1  UNL1       -0.2946
      4 C           5.4412   -1.7812   25.5475 C.3     1  UNL1        0.0903
      5 C           4.8735   -1.0821   24.3479 C.3     1  UNL1        0.1076
      6 N           4.8740   -1.7645   23.0121 N.pl3   1  UNL1       -0.3070
      7 H           6.9813   -3.1128   25.7168 H       1  UNL1        0.1233
      8 C           4.3063   -1.0653   21.8125 C.2     1  UNL1        0.0295
      9 C           5.2190   -0.3592   20.8543 C.2     1  UNL1        0.0120
     10 C           4.6513    0.3400   19.6547 C.2     1  UNL1        0.0216
     11 C           3.1708    0.3329   19.4135 C.2     1  UNL1        0.1008
     12 N           2.3283    0.9312   18.3262 N.2     1  UNL1       -0.1482
     13 N           0.8948    0.5947   18.6125 N.2     1  UNL1       -0.1467
     14 C           0.8515   -0.2115   19.8767 C.2     1  UNL1        0.1198
     15 C           2.2581   -0.3733   20.3717 C.2     1  UNL1        0.0238
     16 C           2.8259   -1.0724   21.5713 C.3     1  UNL1        0.0705
     17 C           5.4428   -3.8284   21.5402 C.3     1  UNL1        0.1631
     18 O           4.2704   -4.6676   21.1261 O.3     1  UNL1       -0.3520
     19 C           3.8635   -3.4081   18.8906 C.3     1  UNL1        0.0346
     20 C           3.8199   -4.6730   19.6954 C.3     1  UNL1        0.1423
@<TRIPOS>BOND
     1    19    20    1
     2    20    18    1
     3    18    17    1
     4    17     1    1
     5     1     2    1
     6     2     3    1
     7     3     4    1
     8     4     5    1
     9     5     6    1
    10     6     8    1
    11     8     9    2
    12     9    10    1
    13    10    11    2
    14    11    12    1
    15    12    13    2
    16    13    14    1
    17    14    15    2
    18    15    16    1
    19     6     1    1
    20    16     8    1
    21    15    11    1
    22     3     7    1
