@<TRIPOS>MOLECULE
*****
 21 22 0 0 0
SMALL
GASTEIGER

@<TRIPOS>ATOM
      1 C          -6.6695  -18.7895   21.6731 C.2     1  UNL1        0.2235
      2 O          -6.8474  -18.4761   20.2171 O.2     1  UNL1       -0.2751
      3 N          -7.5955  -18.1879   22.6884 N.am    1  UNL1       -0.3004
      4 H          -7.4788  -18.3936   23.6441 H       1  UNL1        0.1497
      5 C          -5.5656  -19.7043   22.1140 C.3     1  UNL1        0.0963
      6 C          -3.6551  -20.8148   19.7127 C.3     1  UNL1        0.0495
      7 C          -3.2566  -19.8320   20.7734 C.2     1  UNL1        0.0641
      8 N          -1.9099  -19.1870   20.9167 N.2     1  UNL1       -0.1570
      9 N          -1.9558  -18.2779   22.1090 N.2     1  UNL1       -0.1570
     10 C          -3.3308  -18.3611   22.7026 C.2     1  UNL1        0.0641
     11 C          -3.8166  -17.6148   23.9097 C.3     1  UNL1        0.0495
     12 C          -4.1347  -19.3215   21.8772 C.3     1  UNL1        0.0847
     13 C          -8.6994  -17.2731   22.2476 C.3     1  UNL1        0.1172
     14 C         -10.0996  -17.4969   22.7370 C.ar    1  UNL1        0.0081
     15 C         -10.3500  -18.4067   23.9030 C.ar    1  UNL1       -0.0009
     16 C         -11.7501  -18.6305   24.3925 C.ar    1  UNL1        0.0112
     17 C         -12.8998  -17.9446   23.7159 C.ar    1  UNL1        0.0585
     18 CL        -14.2999  -18.1685   24.2054 Cl      1  UNL1       -0.0822
     19 C         -12.6494  -17.0349   22.5499 C.ar    1  UNL1        0.0225
     20 C         -11.2493  -16.8110   22.0605 C.ar    1  UNL1        0.0561
     21 CL        -10.9988  -15.9012   20.8944 Cl      1  UNL1       -0.0825
@<TRIPOS>BOND
     1     6     7    1
     2     7     8    2
     3     8     9    1
     4     9    10    2
     5    10    11    1
     6    10    12    1
     7    12     5    1
     8     5     1    1
     9     1     2    2
    10     1     3   am
    11     3    13    1
    12    13    14    1
    13    14    15   ar
    14    15    16   ar
    15    16    17   ar
    16    17    18    1
    17    17    19   ar
    18    19    20   ar
    19    20    21    1
    20    12     7    1
    21    20    14   ar
    22     3     4    1
@<TRIPOS>MOLECULE
*****
 21 22 0 0 0
SMALL
GASTEIGER

@<TRIPOS>ATOM
      1 C          -6.9215  -18.9031   21.7580 C.2     1  UNL1        0.2235
      2 O          -7.0422  -17.4211   21.9558 O.2     1  UNL1       -0.2751
      3 N          -8.0077  -19.6559   21.0482 N.am    1  UNL1       -0.3004
      4 H          -7.9285  -20.6286   20.9183 H       1  UNL1        0.1497
      5 C          -5.7149  -19.6324   22.2699 C.3     1  UNL1        0.0963
      6 C          -4.0069  -17.3252   23.8220 C.3     1  UNL1        0.0495
      7 C          -3.5550  -18.0965   22.6175 C.2     1  UNL1        0.0641
      8 N          -2.2387  -17.9426   21.9149 N.2     1  UNL1       -0.1570
      9 N          -2.2102  -18.9081   20.7672 N.2     1  UNL1       -0.1570
     10 C          -3.5090  -19.6586   20.7605 C.2     1  UNL1        0.0641
     11 C          -3.9067  -20.7237   19.7821 C.3     1  UNL1        0.0495
     12 C          -4.3401  -19.1570   21.9041 C.3     1  UNL1        0.0847
     13 C          -9.2143  -18.9267   20.5362 C.3     1  UNL1        0.1172
     14 C         -10.3785  -18.6708   21.4470 C.ar    1  UNL1        0.0081
     15 C         -10.4231  -19.3080   22.8042 C.ar    1  UNL1       -0.0009
     16 C         -11.5872  -19.0522   23.7148 C.ar    1  UNL1        0.0112
     17 C         -12.7067  -18.1591   23.2683 C.ar    1  UNL1        0.0585
     18 CL        -13.8708  -17.9033   24.1791 Cl      1  UNL1       -0.0822
     19 C         -12.6620  -17.5220   21.9111 C.ar    1  UNL1        0.0225
     20 C         -11.4979  -17.7778   21.0005 C.ar    1  UNL1        0.0561
     21 CL        -11.4532  -17.1406   19.6432 Cl      1  UNL1       -0.0825
@<TRIPOS>BOND
     1     6     7    1
     2     7     8    2
     3     8     9    1
     4     9    10    2
     5    10    11    1
     6    10    12    1
     7    12     5    1
     8     5     1    1
     9     1     2    2
    10     1     3   am
    11     3    13    1
    12    13    14    1
    13    14    15   ar
    14    15    16   ar
    15    16    17   ar
    16    17    18    1
    17    17    19   ar
    18    19    20   ar
    19    20    21    1
    20    12     7    1
    21    20    14   ar
    22     3     4    1
@<TRIPOS>MOLECULE
*****
 21 22 0 0 0
SMALL
GASTEIGER

@<TRIPOS>ATOM
      1 C          -8.2432  -18.0664   21.7356 C.2     1  UNL1        0.2235
      2 O          -8.7087  -19.2925   21.0076 O.2     1  UNL1       -0.2751
      3 N          -6.8283  -17.9769   22.2257 N.am    1  UNL1       -0.3004
      4 H          -6.5228  -17.1722   22.7035 H       1  UNL1        0.1497
      5 C          -9.1926  -16.9297   21.9735 C.3     1  UNL1        0.0963
      6 C         -11.2295  -15.9562   19.6171 C.3     1  UNL1        0.0495
      7 C         -11.6092  -16.7207   20.8505 C.2     1  UNL1        0.0641
      8 N         -12.9919  -17.1720   21.2174 N.2     1  UNL1       -0.1570
      9 N         -12.9102  -17.8984   22.5273 N.2     1  UNL1       -0.1570
     10 C         -11.4770  -17.8960   22.9699 C.2     1  UNL1        0.0641
     11 C         -10.9418  -18.5132   24.2280 C.3     1  UNL1        0.0495
     12 C         -10.6730  -17.1682   21.9336 C.3     1  UNL1        0.0847
     13 C          -5.8789  -19.1136   21.9878 C.3     1  UNL1        0.1172
     14 C          -4.5217  -18.8481   21.4068 C.ar    1  UNL1        0.0081
     15 C          -4.2461  -19.1689   19.9677 C.ar    1  UNL1       -0.0009
     16 C          -2.8889  -18.9034   19.3867 C.ar    1  UNL1        0.0112
     17 C          -1.8073  -18.3172   20.2449 C.ar    1  UNL1        0.0585
     18 CL         -0.4501  -18.0517   19.6639 Cl      1  UNL1       -0.0822
     19 C          -2.0829  -17.9964   21.6840 C.ar    1  UNL1        0.0225
     20 C          -3.4401  -18.2619   22.2650 C.ar    1  UNL1        0.0561
     21 CL         -3.7158  -17.9411   23.7042 Cl      1  UNL1       -0.0825
@<TRIPOS>BOND
     1     6     7    1
     2     7     8    2
     3     8     9    1
     4     9    10    2
     5    10    11    1
     6    10    12    1
     7    12     5    1
     8     5     1    1
     9     1     2    2
    10     1     3   am
    11     3    13    1
    12    13    14    1
    13    14    15   ar
    14    15    16   ar
    15    16    17   ar
    16    17    18    1
    17    17    19   ar
    18    19    20   ar
    19    20    21    1
    20    12     7    1
    21    20    14   ar
    22     3     4    1
@<TRIPOS>MOLECULE
*****
 21 22 0 0 0
SMALL
GASTEIGER

@<TRIPOS>ATOM
      1 C          -7.4400  -18.4070   21.3560 C.2     1  UNL1        0.2235
      2 O          -7.1487  -18.8670   19.9583 O.2     1  UNL1       -0.2751
      3 N          -6.5058  -18.7655   22.4736 N.am    1  UNL1       -0.3004
      4 H          -6.6970  -18.4636   23.3910 H       1  UNL1        0.1497
      5 C          -8.6653  -17.5885   21.6362 C.3     1  UNL1        0.0963
      6 C         -10.9870  -19.7729   20.9378 C.3     1  UNL1        0.0495
      7 C         -10.7755  -19.1044   22.2638 C.2     1  UNL1        0.0641
      8 N         -11.5941  -19.3227   23.5017 N.2     1  UNL1       -0.1570
      9 N         -11.0328  -18.4536   24.5878 N.2     1  UNL1       -0.1570
     10 C          -9.8674  -17.6982   24.0212 C.2     1  UNL1        0.0641
     11 C          -9.0113  -16.7134   24.7610 C.3     1  UNL1        0.0495
     12 C          -9.7084  -18.1004   22.5849 C.3     1  UNL1        0.0847
     13 C          -5.2804  -19.5840   22.1934 C.3     1  UNL1        0.1172
     14 C          -4.0343  -18.9197   21.6875 C.ar    1  UNL1        0.0081
     15 C          -3.4322  -17.7760   22.4486 C.ar    1  UNL1       -0.0009
     16 C          -2.1861  -17.1117   21.9427 C.ar    1  UNL1        0.0112
     17 C          -1.5421  -17.5912   20.6757 C.ar    1  UNL1        0.0585
     18 CL         -0.2959  -16.9269   20.1698 Cl      1  UNL1       -0.0822
     19 C          -2.1442  -18.7349   19.9146 C.ar    1  UNL1        0.0225
     20 C          -3.3903  -19.3991   20.4205 C.ar    1  UNL1        0.0561
     21 CL         -3.9924  -20.5429   19.6594 Cl      1  UNL1       -0.0825
@<TRIPOS>BOND
     1     6     7    1
     2     7     8    2
     3     8     9    1
     4     9    10    2
     5    10    11    1
     6    10    12    1
     7    12     5    1
     8     5     1    1
     9     1     2    2
    10     1     3   am
    11     3    13    1
    12    13    14    1
    13    14    15   ar
    14    15    16   ar
    15    16    17   ar
    16    17    18    1
    17    17    19   ar
    18    19    20   ar
    19    20    21    1
    20    12     7    1
    21    20    14   ar
    22     3     4    1
@<TRIPOS>MOLECULE
*****
 21 22 0 0 0
SMALL
GASTEIGER

@<TRIPOS>ATOM
      1 C          -7.5258  -18.5308   21.2445 C.2     1  UNL1        0.2235
      2 O          -7.2790  -18.8959   19.8108 O.2     1  UNL1       -0.2751
      3 N          -6.5558  -18.9595   22.3054 N.am    1  UNL1       -0.3004
      4 H          -6.7178  -18.7199   23.2464 H       1  UNL1        0.1497
      5 C          -8.7426  -17.7369   21.6175 C.3     1  UNL1        0.0963
      6 C          -8.6659  -16.5439   24.6540 C.3     1  UNL1        0.0495
      7 C          -9.5707  -17.6321   24.1568 C.2     1  UNL1        0.0641
      8 N         -10.5991  -18.3630   24.9680 N.2     1  UNL1       -0.1570
      9 N         -11.2700  -19.3631   24.0737 N.2     1  UNL1       -0.1570
     10 C         -10.6562  -19.2502   22.7097 C.2     1  UNL1        0.0641
     11 C         -11.0274  -20.0643   21.5058 C.3     1  UNL1        0.0495
     12 C          -9.6060  -18.1804   22.7611 C.3     1  UNL1        0.0847
     13 C          -5.3390  -19.7534   21.9324 C.3     1  UNL1        0.1172
     14 C          -4.1032  -19.0512   21.4531 C.ar    1  UNL1        0.0081
     15 C          -3.6106  -19.2713   20.0535 C.ar    1  UNL1       -0.0009
     16 C          -2.3748  -18.5691   19.5742 C.ar    1  UNL1        0.0112
     17 C          -1.6316  -17.6468   20.4945 C.ar    1  UNL1        0.0585
     18 CL         -0.3958  -16.9446   20.0152 Cl      1  UNL1       -0.0822
     19 C          -2.1242  -17.4267   21.8941 C.ar    1  UNL1        0.0225
     20 C          -3.3600  -18.1289   22.3734 C.ar    1  UNL1        0.0561
     21 CL         -3.8526  -17.9087   23.7730 Cl      1  UNL1       -0.0825
@<TRIPOS>BOND
     1     6     7    1
     2     7     8    2
     3     8     9    1
     4     9    10    2
     5    10    11    1
     6    10    12    1
     7    12     5    1
     8     5     1    1
     9     1     2    2
    10     1     3   am
    11     3    13    1
    12    13    14    1
    13    14    15   ar
    14    15    16   ar
    15    16    17   ar
    16    17    18    1
    17    17    19   ar
    18    19    20   ar
    19    20    21    1
    20    12     7    1
    21    20    14   ar
    22     3     4    1
@<TRIPOS>MOLECULE
*****
 21 22 0 0 0
SMALL
GASTEIGER

@<TRIPOS>ATOM
      1 C          -7.7781  -18.1898   21.8897 C.2     1  UNL1        0.2235
      2 O          -8.1049  -19.4558   21.1545 O.2     1  UNL1       -0.2751
      3 N          -6.4017  -17.9810   22.4485 N.am    1  UNL1       -0.3004
      4 H          -6.1872  -17.1502   22.9311 H       1  UNL1        0.1497
      5 C          -8.8275  -17.1327   22.0661 C.3     1  UNL1        0.0963
      6 C         -10.0001  -18.3092   24.8750 C.3     1  UNL1        0.0495
      7 C         -10.7895  -18.0663   23.6229 C.2     1  UNL1        0.0641
      8 N         -12.2565  -18.3216   23.4421 N.2     1  UNL1       -0.1570
      9 N         -12.6242  -17.9386   22.0392 N.2     1  UNL1       -0.1570
     10 C         -11.3844  -17.4466   21.3530 C.2     1  UNL1        0.0641
     11 C         -11.2944  -16.9609   19.9367 C.3     1  UNL1        0.0495
     12 C         -10.2505  -17.5255   22.3318 C.3     1  UNL1        0.0847
     13 C          -5.3523  -19.0382   22.2721 C.3     1  UNL1        0.1172
     14 C          -4.0095  -18.6756   21.7106 C.ar    1  UNL1        0.0081
     15 C          -3.2144  -17.5629   22.3267 C.ar    1  UNL1       -0.0009
     16 C          -1.8716  -17.2004   21.7652 C.ar    1  UNL1        0.0112
     17 C          -1.3238  -17.9507   20.5874 C.ar    1  UNL1        0.0585
     18 CL          0.0190  -17.5881   20.0258 Cl      1  UNL1       -0.0822
     19 C          -2.1189  -19.0634   19.9712 C.ar    1  UNL1        0.0225
     20 C          -3.4617  -19.4258   20.5328 C.ar    1  UNL1        0.0561
     21 CL         -4.2568  -20.5386   19.9166 Cl      1  UNL1       -0.0825
@<TRIPOS>BOND
     1     6     7    1
     2     7     8    2
     3     8     9    1
     4     9    10    2
     5    10    11    1
     6    10    12    1
     7    12     5    1
     8     5     1    1
     9     1     2    2
    10     1     3   am
    11     3    13    1
    12    13    14    1
    13    14    15   ar
    14    15    16   ar
    15    16    17   ar
    16    17    18    1
    17    17    19   ar
    18    19    20   ar
    19    20    21    1
    20    12     7    1
    21    20    14   ar
    22     3     4    1
@<TRIPOS>MOLECULE
*****
 21 22 0 0 0
SMALL
GASTEIGER

@<TRIPOS>ATOM
      1 C          -7.6872  -18.6413   21.1122 C.2     1  UNL1        0.2235
      2 O          -7.5766  -19.0284   19.6672 O.2     1  UNL1       -0.2751
      3 N          -6.6132  -19.0411   22.0801 N.am    1  UNL1       -0.3004
      4 H          -6.6858  -18.7870   23.0285 H       1  UNL1        0.1497
      5 C          -8.8719  -17.8546   21.5893 C.3     1  UNL1        0.0963
      6 C         -11.0470  -20.2675   21.8992 C.3     1  UNL1        0.0495
      7 C         -10.5750  -19.3597   22.9960 C.2     1  UNL1        0.0641
      8 N         -11.0200  -19.4015   24.4279 N.2     1  UNL1       -0.1570
      9 N         -10.2952  -18.3183   25.1704 N.2     1  UNL1       -0.1570
     10 C          -9.4023  -17.6070   24.1974 C.2     1  UNL1        0.0641
     11 C          -8.4956  -16.4544   24.5129 C.3     1  UNL1        0.0495
     12 C          -9.5752  -18.2506   22.8536 C.3     1  UNL1        0.0847
     13 C          -5.4286  -19.8278   21.6030 C.3     1  UNL1        0.1172
     14 C          -4.1687  -19.1184   21.2032 C.ar    1  UNL1        0.0081
     15 C          -3.6371  -19.2627   19.8081 C.ar    1  UNL1       -0.0009
     16 C          -2.3774  -18.5534   19.4084 C.ar    1  UNL1        0.0112
     17 C          -1.6493  -17.6996   20.4039 C.ar    1  UNL1        0.0585
     18 CL         -0.3894  -16.9902   20.0042 Cl      1  UNL1       -0.0822
     19 C          -2.1809  -17.5553   21.7991 C.ar    1  UNL1        0.0225
     20 C          -3.4406  -18.2647   22.1987 C.ar    1  UNL1        0.0561
     21 CL         -3.9723  -18.1203   23.5939 Cl      1  UNL1       -0.0825
@<TRIPOS>BOND
     1     6     7    1
     2     7     8    2
     3     8     9    1
     4     9    10    2
     5    10    11    1
     6    10    12    1
     7    12     5    1
     8     5     1    1
     9     1     2    2
    10     1     3   am
    11     3    13    1
    12    13    14    1
    13    14    15   ar
    14    15    16   ar
    15    16    17   ar
    16    17    18    1
    17    17    19   ar
    18    19    20   ar
    19    20    21    1
    20    12     7    1
    21    20    14   ar
    22     3     4    1
@<TRIPOS>MOLECULE
*****
 21 22 0 0 0
SMALL
GASTEIGER

@<TRIPOS>ATOM
      1 C          -6.2082  -19.4530   21.5796 C.2     1  UNL1        0.2235
      2 O          -6.2008  -19.6946   20.0992 O.2     1  UNL1       -0.2751
      3 N          -7.5106  -19.3011   22.3082 N.am    1  UNL1       -0.3004
      4 H          -7.5154  -19.1426   23.2799 H       1  UNL1        0.1497
      5 C          -4.9133  -19.3633   22.3313 C.3     1  UNL1        0.0963
      6 C          -2.7790  -19.2457   19.8655 C.3     1  UNL1        0.0495
      7 C          -2.9755  -18.1898   20.9126 C.2     1  UNL1        0.0641
      8 N          -2.2255  -16.8945   21.0102 N.2     1  UNL1       -0.1570
      9 N          -2.7430  -16.1479   22.2039 N.2     1  UNL1       -0.1570
     10 C          -3.8128  -16.9819   22.8441 C.2     1  UNL1        0.0641
     11 C          -4.6006  -16.6178   24.0675 C.3     1  UNL1        0.0495
     12 C          -3.9565  -18.2438   22.0460 C.3     1  UNL1        0.0847
     13 C          -8.8054  -19.3909   21.5565 C.3     1  UNL1        0.1172
     14 C         -10.0907  -19.0070   22.2280 C.ar    1  UNL1        0.0081
     15 C         -11.0522  -18.0864   21.5367 C.ar    1  UNL1       -0.0009
     16 C         -12.3374  -17.7025   22.2081 C.ar    1  UNL1        0.0112
     17 C         -12.6610  -18.2392   23.5710 C.ar    1  UNL1        0.0585
     18 CL        -13.9463  -17.8553   24.2424 Cl      1  UNL1       -0.0822
     19 C         -11.6995  -19.1598   24.2623 C.ar    1  UNL1        0.0225
     20 C         -10.4143  -19.5436   23.5908 C.ar    1  UNL1        0.0561
     21 CL         -9.4527  -20.4642   24.2821 Cl      1  UNL1       -0.0825
@<TRIPOS>BOND
     1     6     7    1
     2     7     8    2
     3     8     9    1
     4     9    10    2
     5    10    11    1
     6    10    12    1
     7    12     5    1
     8     5     1    1
     9     1     2    2
    10     1     3   am
    11     3    13    1
    12    13    14    1
    13    14    15   ar
    14    15    16   ar
    15    16    17   ar
    16    17    18    1
    17    17    19   ar
    18    19    20   ar
    19    20    21    1
    20    12     7    1
    21    20    14   ar
    22     3     4    1
@<TRIPOS>MOLECULE
*****
 21 22 0 0 0
SMALL
GASTEIGER

@<TRIPOS>ATOM
      1 C          -8.2962  -18.0740   21.8166 C.2     1  UNL1        0.2235
      2 O          -7.6899  -18.0604   20.4446 O.2     1  UNL1       -0.2751
      3 N          -7.9325  -19.1589   22.7865 N.am    1  UNL1       -0.3004
      4 H          -8.3304  -19.1678   23.6870 H       1  UNL1        0.1497
      5 C          -9.2661  -17.0027   22.2185 C.3     1  UNL1        0.0963
      6 C         -11.1739  -16.0392   19.7525 C.3     1  UNL1        0.0495
      7 C         -11.6187  -16.8010   20.9657 C.2     1  UNL1        0.0641
      8 N         -13.0184  -17.2537   21.2583 N.2     1  UNL1       -0.1570
      9 N         -13.0067  -17.9765   22.5727 N.2     1  UNL1       -0.1570
     10 C         -11.5996  -17.9704   23.0924 C.2     1  UNL1        0.0641
     11 C         -11.1324  -18.5832   24.3793 C.3     1  UNL1        0.0495
     12 C         -10.7418  -17.2439   22.0992 C.3     1  UNL1        0.0847
     13 C          -6.9626  -20.2301   22.3846 C.3     1  UNL1        0.1172
     14 C          -5.6195  -19.8565   21.8307 C.ar    1  UNL1        0.0081
     15 C          -4.7490  -18.8823   22.5676 C.ar    1  UNL1       -0.0009
     16 C          -3.4060  -18.5087   22.0137 C.ar    1  UNL1        0.0112
     17 C          -2.9336  -19.1093   20.7229 C.ar    1  UNL1        0.0585
     18 CL         -1.5906  -18.7356   20.1690 Cl      1  UNL1       -0.0822
     19 C          -3.8042  -20.0834   19.9860 C.ar    1  UNL1        0.0225
     20 C          -5.1472  -20.4570   20.5399 C.ar    1  UNL1        0.0561
     21 CL         -6.0178  -21.4312   19.8029 Cl      1  UNL1       -0.0825
@<TRIPOS>BOND
     1     6     7    1
     2     7     8    2
     3     8     9    1
     4     9    10    2
     5    10    11    1
     6    10    12    1
     7    12     5    1
     8     5     1    1
     9     1     2    2
    10     1     3   am
    11     3    13    1
    12    13    14    1
    13    14    15   ar
    14    15    16   ar
    15    16    17   ar
    16    17    18    1
    17    17    19   ar
    18    19    20   ar
    19    20    21    1
    20    12     7    1
    21    20    14   ar
    22     3     4    1
