@<TRIPOS>MOLECULE
*****
 42 46 0 0 0
SMALL
GASTEIGER

@<TRIPOS>ATOM
      1 N          -0.0607    0.7451   25.5149 N.am    1  UNL1       -0.2533
      2 C           0.6432    1.0065   26.8134 C.2     1  UNL1        0.3092
      3 O           1.6108    2.1473   26.9256 O.2     1  UNL1       -0.2521
      4 N           0.3796    0.1273   27.9997 N.am    1  UNL1       -0.2680
      5 H          -0.6957   -0.0036   25.4413 H       1  UNL1        0.1578
      6 H          -0.2555   -0.6214   27.9262 H       1  UNL1        0.1564
      7 C           1.0835    0.3888   29.2982 C.ar    1  UNL1        0.0516
      8 C           2.2073   -0.5035   29.7351 C.ar    1  UNL1        0.0147
      9 C           2.9112   -0.2420   31.0336 C.ar    1  UNL1        0.0013
     10 C           2.4914    0.9118   31.8953 C.ar    1  UNL1        0.0016
     11 C           1.3676    1.8041   31.4584 C.ar    1  UNL1        0.0013
     12 C           0.6637    1.5426   30.1599 C.ar    1  UNL1        0.0147
     13 C           3.1953    1.1733   33.1938 C.ar    1  UNL1        0.0194
     14 C           3.9731    0.0768   33.8593 C.ar    1  UNL1        0.0063
     15 C           4.6770    0.3383   35.1578 C.ar    1  UNL1        0.0577
     16 C           4.6032    1.6962   35.7907 C.ar    1  UNL1        0.2252
     17 N           3.8254    2.7927   35.1252 N.ar    1  UNL1       -0.2101
     18 C           3.1215    2.5312   33.8267 C.ar    1  UNL1        0.1020
     19 O           5.3071    1.9577   37.0892 O.3     1  UNL1       -0.4552
     20 C           4.5782    2.6283   38.2158 C.3     1  UNL1        0.2337
     21 C           3.2048    2.1647   38.6017 C.ar    1  UNL1        0.0212
     22 C           2.9801    0.7363   39.0010 C.ar    1  UNL1       -0.0007
     23 C           1.6068    0.2727   39.3870 C.ar    1  UNL1       -0.0002
     24 C           0.4581    1.2374   39.3737 C.ar    1  UNL1       -0.0000
     25 C           0.6829    2.6657   38.9744 C.ar    1  UNL1       -0.0002
     26 C           2.0563    3.1293   38.5885 C.ar    1  UNL1       -0.0007
     27 N          -0.5480    2.8729   23.9722 N.ar    1  UNL1       -0.2162
     28 N           0.0488    3.4295   22.7136 N.ar    1  UNL1       -0.1683
     29 C           1.1687    2.5249   22.2921 C.ar    1  UNL1        0.0810
     30 C           1.2640    1.4092   23.2902 C.ar    1  UNL1        0.0509
     31 C           0.2030    1.6243   24.3285 C.ar    1  UNL1        0.1380
     32 C          -5.1342    5.2274   27.0420 C.3     1  UNL1        0.0310
     33 C          -3.9877    4.6388   26.2745 C.ar    1  UNL1       -0.0218
     34 C          -2.5889    4.7654   26.8012 C.ar    1  UNL1       -0.0027
     35 C          -1.4424    4.1768   26.0337 C.ar    1  UNL1        0.0189
     36 C          -1.6946    3.4615   24.7396 C.ar    1  UNL1        0.0842
     37 C          -3.0933    3.3348   24.2130 C.ar    1  UNL1        0.0189
     38 C          -4.2399    3.9235   24.9804 C.ar    1  UNL1       -0.0027
     39 C           2.0402    2.7045   21.0846 C.3     1  UNL1        0.0372
     40 C           2.6484    1.3542   21.3227 C.3     1  UNL1        0.0060
     41 C           1.4320    4.0549   20.8465 C.3     1  UNL1        0.0060
     42 C           2.9117    2.8841   19.8771 C.3     1  UNL1        0.0060
@<TRIPOS>BOND
     1    32    33    1
     2    33    34   ar
     3    34    35   ar
     4    35    36   ar
     5    36    27    1
     6    27    28   ar
     7    28    29   ar
     8    29    39    1
     9    39    40    1
    10    39    41    1
    11    39    42    1
    12    29    30   ar
    13    30    31   ar
    14    31     1    1
    15     1     2   am
    16     2     3    2
    17     2     4   am
    18     4     7    1
    19     7     8   ar
    20     8     9   ar
    21     9    10   ar
    22    10    13    1
    23    13    14   ar
    24    14    15   ar
    25    15    16   ar
    26    16    19    1
    27    19    20    1
    28    20    21    1
    29    21    22   ar
    30    22    23   ar
    31    23    24   ar
    32    24    25   ar
    33    25    26   ar
    34    16    17   ar
    35    17    18   ar
    36    10    11   ar
    37    11    12   ar
    38    36    37   ar
    39    37    38   ar
    40    38    33   ar
    41    31    27   ar
    42    12     7   ar
    43    18    13   ar
    44    26    21   ar
    45     1     5    1
    46     4     6    1
@<TRIPOS>MOLECULE
*****
 42 46 0 0 0
SMALL
GASTEIGER

@<TRIPOS>ATOM
      1 N           0.1644    0.8715   25.2143 N.am    1  UNL1       -0.2533
      2 C           0.8426    1.0643   26.5381 C.2     1  UNL1        0.3092
      3 O           1.9115    2.1059   26.6887 O.2     1  UNL1       -0.2521
      4 N           0.4521    0.2155   27.7116 N.am    1  UNL1       -0.2680
      5 H          -0.5371    0.1878   25.1155 H       1  UNL1        0.1578
      6 H          -0.2494   -0.4682   27.6129 H       1  UNL1        0.1564
      7 C           1.1303    0.4083   29.0355 C.ar    1  UNL1        0.0516
      8 C           2.2228   -0.5270   29.4619 C.ar    1  UNL1        0.0147
      9 C           2.9010   -0.3341   30.7858 C.ar    1  UNL1        0.0013
     10 C           2.4869    0.7940   31.6834 C.ar    1  UNL1        0.0016
     11 C           1.3945    1.7293   31.2571 C.ar    1  UNL1        0.0013
     12 C           0.7162    1.5365   29.9332 C.ar    1  UNL1        0.0147
     13 C           3.1652    0.9868   33.0073 C.ar    1  UNL1        0.0194
     14 C           4.0104   -0.1101   33.5838 C.ar    1  UNL1        0.0063
     15 C           4.6887    0.0828   34.9078 C.ar    1  UNL1        0.0577
     16 C           4.5217    1.3725   35.6551 C.ar    1  UNL1        0.2252
     17 N           3.6765    2.4694   35.0786 N.ar    1  UNL1       -0.2101
     18 C           2.9982    2.2766   33.7547 C.ar    1  UNL1        0.1020
     19 O           5.2000    1.5654   36.9791 O.3     1  UNL1       -0.4552
     20 C           4.5304    2.3679   38.0550 C.3     1  UNL1        0.2337
     21 C           3.1286    2.0377   38.4745 C.ar    1  UNL1        0.0212
     22 C           2.0735    3.1039   38.4696 C.ar    1  UNL1       -0.0007
     23 C           0.6717    2.7738   38.8891 C.ar    1  UNL1       -0.0002
     24 C           0.3250    1.3774   39.3134 C.ar    1  UNL1       -0.0000
     25 C           1.3801    0.3112   39.3183 C.ar    1  UNL1       -0.0002
     26 C           2.7819    0.6414   38.8988 C.ar    1  UNL1       -0.0007
     27 N           1.6265    1.4023   23.0405 N.ar    1  UNL1       -0.2162
     28 N           1.6763    2.5216   22.0431 N.ar    1  UNL1       -0.1683
     29 C           0.6355    3.5312   22.4270 C.ar    1  UNL1        0.0810
     30 C          -0.0575    3.0360   23.6616 C.ar    1  UNL1        0.0509
     31 C           0.5550    1.7203   24.0408 C.ar    1  UNL1        0.1380
     32 C           5.1032   -3.4877   23.0304 C.3     1  UNL1        0.0310
     33 C           4.2340   -2.2652   23.0330 C.ar    1  UNL1       -0.0218
     34 C           3.5532   -1.8264   21.7705 C.ar    1  UNL1       -0.0027
     35 C           2.6840   -0.6039   21.7730 C.ar    1  UNL1        0.0189
     36 C           2.4957    0.1798   23.0380 C.ar    1  UNL1        0.0842
     37 C           3.1765   -0.2590   24.3004 C.ar    1  UNL1        0.0189
     38 C           4.0457   -1.4815   24.2979 C.ar    1  UNL1       -0.0027
     39 C           0.3397    4.8113   21.7032 C.3     1  UNL1        0.0372
     40 C          -0.1347    4.0295   20.5143 C.3     1  UNL1        0.0060
     41 C           0.8141    5.5932   22.8922 C.3     1  UNL1        0.0060
     42 C           0.0439    6.0915   20.9795 C.3     1  UNL1        0.0060
@<TRIPOS>BOND
     1    32    33    1
     2    33    34   ar
     3    34    35   ar
     4    35    36   ar
     5    36    27    1
     6    27    28   ar
     7    28    29   ar
     8    29    39    1
     9    39    40    1
    10    39    41    1
    11    39    42    1
    12    29    30   ar
    13    30    31   ar
    14    31     1    1
    15     1     2   am
    16     2     3    2
    17     2     4   am
    18     4     7    1
    19     7     8   ar
    20     8     9   ar
    21     9    10   ar
    22    10    13    1
    23    13    14   ar
    24    14    15   ar
    25    15    16   ar
    26    16    19    1
    27    19    20    1
    28    20    21    1
    29    21    22   ar
    30    22    23   ar
    31    23    24   ar
    32    24    25   ar
    33    25    26   ar
    34    16    17   ar
    35    17    18   ar
    36    10    11   ar
    37    11    12   ar
    38    36    37   ar
    39    37    38   ar
    40    38    33   ar
    41    31    27   ar
    42    12     7   ar
    43    18    13   ar
    44    26    21   ar
    45     1     5    1
    46     4     6    1
@<TRIPOS>MOLECULE
*****
 42 46 0 0 0
SMALL
GASTEIGER

@<TRIPOS>ATOM
      1 N          -1.6652    3.5638   20.3673 N.am    1  UNL1       -0.2533
      2 C          -0.6033    2.5247   20.5734 C.2     1  UNL1        0.3092
      3 O          -0.5308    1.7731   21.8696 O.2     1  UNL1       -0.2521
      4 N           0.3862    2.2370   19.4834 N.am    1  UNL1       -0.2680
      5 H          -1.7128    4.0570   19.5166 H       1  UNL1        0.1578
      6 H           0.3387    2.7302   18.6327 H       1  UNL1        0.1564
      7 C           1.4481    1.1979   19.6895 C.ar    1  UNL1        0.0516
      8 C           2.8942    1.5962   19.7054 C.ar    1  UNL1        0.0147
      9 C           3.9561    0.5570   19.9115 C.ar    1  UNL1        0.0013
     10 C           3.5721   -0.8804   20.1019 C.ar    1  UNL1        0.0016
     11 C           2.1260   -1.2787   20.0860 C.ar    1  UNL1        0.0013
     12 C           1.0641   -0.2395   19.8799 C.ar    1  UNL1        0.0147
     13 C           4.6340   -1.9195   20.3080 C.ar    1  UNL1        0.0194
     14 C           6.0564   -1.6223   19.9362 C.ar    1  UNL1        0.0063
     15 C           7.1184   -2.6614   20.1423 C.ar    1  UNL1        0.0577
     16 C           6.7578   -3.9978   20.7203 C.ar    1  UNL1        0.2252
     17 N           5.3353   -4.2950   21.0922 N.ar    1  UNL1       -0.2101
     18 C           4.2734   -3.2559   20.8860 C.ar    1  UNL1        0.1020
     19 O           7.8197   -5.0369   20.9265 O.3     1  UNL1       -0.4552
     20 C           8.7072   -4.9731   22.1341 C.3     1  UNL1        0.2337
     21 C           8.2977   -5.6604   23.4029 C.ar    1  UNL1        0.0212
     22 C           7.4441   -4.9401   24.4042 C.ar    1  UNL1       -0.0007
     23 C           7.0346   -5.6275   25.6731 C.ar    1  UNL1       -0.0002
     24 C           7.4787   -7.0351   25.9406 C.ar    1  UNL1       -0.0000
     25 C           8.3323   -7.7553   24.9393 C.ar    1  UNL1       -0.0002
     26 C           8.7418   -7.0679   23.6705 C.ar    1  UNL1       -0.0007
     27 N          -4.0389    4.3981   21.2698 N.ar    1  UNL1       -0.2162
     28 N          -4.6734    4.5275   22.6228 N.ar    1  UNL1       -0.1683
     29 C          -3.6814    4.0608   23.6466 C.ar    1  UNL1        0.0810
     30 C          -2.4337    3.6430   22.9262 C.ar    1  UNL1        0.0509
     31 C          -2.6547    3.8514   21.4573 C.ar    1  UNL1        0.1380
     32 C          -6.5898    5.8179   16.0279 C.3     1  UNL1        0.0310
     33 C          -5.9521    5.4630   17.3384 C.ar    1  UNL1       -0.0218
     34 C          -5.2115    6.5076   18.1194 C.ar    1  UNL1       -0.0027
     35 C          -4.5737    6.1527   19.4298 C.ar    1  UNL1        0.0189
     36 C          -4.6767    4.7530   19.9593 C.ar    1  UNL1        0.0842
     37 C          -5.4173    3.7084   19.1783 C.ar    1  UNL1        0.0189
     38 C          -6.0550    4.0633   17.8678 C.ar    1  UNL1       -0.0027
     39 C          -3.8988    4.0192   25.1301 C.3     1  UNL1        0.0372
     40 C          -2.4556    3.6636   25.3317 C.3     1  UNL1        0.0060
     41 C          -5.3420    4.3748   24.9286 C.3     1  UNL1        0.0060
     42 C          -4.1162    3.9776   26.6137 C.3     1  UNL1        0.0060
@<TRIPOS>BOND
     1    32    33    1
     2    33    34   ar
     3    34    35   ar
     4    35    36   ar
     5    36    27    1
     6    27    28   ar
     7    28    29   ar
     8    29    39    1
     9    39    40    1
    10    39    41    1
    11    39    42    1
    12    29    30   ar
    13    30    31   ar
    14    31     1    1
    15     1     2   am
    16     2     3    2
    17     2     4   am
    18     4     7    1
    19     7     8   ar
    20     8     9   ar
    21     9    10   ar
    22    10    13    1
    23    13    14   ar
    24    14    15   ar
    25    15    16   ar
    26    16    19    1
    27    19    20    1
    28    20    21    1
    29    21    22   ar
    30    22    23   ar
    31    23    24   ar
    32    24    25   ar
    33    25    26   ar
    34    16    17   ar
    35    17    18   ar
    36    10    11   ar
    37    11    12   ar
    38    36    37   ar
    39    37    38   ar
    40    38    33   ar
    41    31    27   ar
    42    12     7   ar
    43    18    13   ar
    44    26    21   ar
    45     1     5    1
    46     4     6    1
@<TRIPOS>MOLECULE
*****
 42 46 0 0 0
SMALL
GASTEIGER

@<TRIPOS>ATOM
      1 N         -15.7687   -4.2721   17.1760 N.am    1  UNL1       -0.2533
      2 C         -15.9543   -3.1586   18.1636 C.2     1  UNL1        0.3092
      3 O         -15.8732   -3.4398   19.6349 O.2     1  UNL1       -0.2521
      4 N         -16.2211   -1.7639   17.6803 N.am    1  UNL1       -0.2680
      5 H         -15.8220   -4.0875   16.2104 H       1  UNL1        0.1578
      6 H         -16.2743   -1.5793   16.7147 H       1  UNL1        0.1564
      7 C         -16.4067   -0.6504   18.6681 C.ar    1  UNL1        0.0516
      8 C         -17.5295   -0.7081   19.6610 C.ar    1  UNL1        0.0147
      9 C         -17.7151    0.4054   20.6488 C.ar    1  UNL1        0.0013
     10 C         -16.7779    1.5765   20.6438 C.ar    1  UNL1        0.0016
     11 C         -15.6550    1.6341   19.6508 C.ar    1  UNL1        0.0013
     12 C         -15.4694    0.5207   18.6631 C.ar    1  UNL1        0.0147
     13 C         -16.9635    2.6900   21.6316 C.ar    1  UNL1        0.0194
     14 C         -17.7046    2.4411   22.9117 C.ar    1  UNL1        0.0063
     15 C         -17.8902    3.5546   23.8995 C.ar    1  UNL1        0.0577
     16 C         -17.3346    4.9169   23.6072 C.ar    1  UNL1        0.2252
     17 N         -16.5934    5.1657   22.3270 N.ar    1  UNL1       -0.2101
     18 C         -16.4079    4.0522   21.3392 C.ar    1  UNL1        0.1020
     19 O         -17.5202    6.0303   24.5950 O.3     1  UNL1       -0.4552
     20 C         -18.7206    6.0427   25.4944 C.3     1  UNL1        0.2337
     21 C         -18.5483    5.8959   26.9772 C.ar    1  UNL1        0.0212
     22 C         -19.7420    5.6427   27.8495 C.ar    1  UNL1       -0.0007
     23 C         -19.5697    5.4958   29.3323 C.ar    1  UNL1       -0.0002
     24 C         -18.2037    5.6022   29.9429 C.ar    1  UNL1       -0.0000
     25 C         -17.0100    5.8554   29.0705 C.ar    1  UNL1       -0.0002
     26 C         -17.1823    6.0022   27.5877 C.ar    1  UNL1       -0.0007
     27 N         -14.1550   -6.3157   17.7797 N.ar    1  UNL1       -0.2162
     28 N         -14.3560   -7.7074   18.3019 N.ar    1  UNL1       -0.1683
     29 C         -15.8272   -7.9186   18.5042 C.ar    1  UNL1        0.0810
     30 C         -16.5355   -6.6574   18.1071 C.ar    1  UNL1        0.0509
     31 C         -15.5020   -5.6668   17.6593 C.ar    1  UNL1        0.1380
     32 C          -8.8879   -3.7881   16.4126 C.3     1  UNL1        0.0310
     33 C         -10.2046   -4.4200   16.7544 C.ar    1  UNL1       -0.0218
     34 C         -11.0390   -3.8595   17.8677 C.ar    1  UNL1       -0.0027
     35 C         -12.3558   -4.4913   18.2095 C.ar    1  UNL1        0.0189
     36 C         -12.8382   -5.6838   17.4379 C.ar    1  UNL1        0.0842
     37 C         -12.0038   -6.2443   16.3246 C.ar    1  UNL1        0.0189
     38 C         -10.6871   -5.6124   15.9828 C.ar    1  UNL1       -0.0027
     39 C         -16.4762   -9.1711   19.0142 C.3     1  UNL1        0.0372
     40 C         -17.3085   -8.3554   19.9585 C.3     1  UNL1        0.0060
     41 C         -15.6438   -9.9869   18.0699 C.3     1  UNL1        0.0060
     42 C         -17.1251  -10.4237   19.5241 C.3     1  UNL1        0.0060
@<TRIPOS>BOND
     1    32    33    1
     2    33    34   ar
     3    34    35   ar
     4    35    36   ar
     5    36    27    1
     6    27    28   ar
     7    28    29   ar
     8    29    39    1
     9    39    40    1
    10    39    41    1
    11    39    42    1
    12    29    30   ar
    13    30    31   ar
    14    31     1    1
    15     1     2   am
    16     2     3    2
    17     2     4   am
    18     4     7    1
    19     7     8   ar
    20     8     9   ar
    21     9    10   ar
    22    10    13    1
    23    13    14   ar
    24    14    15   ar
    25    15    16   ar
    26    16    19    1
    27    19    20    1
    28    20    21    1
    29    21    22   ar
    30    22    23   ar
    31    23    24   ar
    32    24    25   ar
    33    25    26   ar
    34    16    17   ar
    35    17    18   ar
    36    10    11   ar
    37    11    12   ar
    38    36    37   ar
    39    37    38   ar
    40    38    33   ar
    41    31    27   ar
    42    12     7   ar
    43    18    13   ar
    44    26    21   ar
    45     1     5    1
    46     4     6    1
@<TRIPOS>MOLECULE
*****
 42 46 0 0 0
SMALL
GASTEIGER

@<TRIPOS>ATOM
      1 N         -16.2311   -4.6975   17.1555 N.am    1  UNL1       -0.2533
      2 C         -16.6647   -3.6814   18.1700 C.2     1  UNL1        0.3092
      3 O         -17.2367   -4.1288   19.4826 O.2     1  UNL1       -0.2521
      4 N         -16.5263   -2.2177   17.8722 N.am    1  UNL1       -0.2680
      5 H         -15.8556   -4.4038   16.2941 H       1  UNL1        0.1578
      6 H         -16.1509   -1.9240   17.0108 H       1  UNL1        0.1564
      7 C         -16.9600   -1.2016   18.8869 C.ar    1  UNL1        0.0516
      8 C         -18.4000   -0.7895   18.9674 C.ar    1  UNL1        0.0147
      9 C         -18.8336    0.2266   19.9820 C.ar    1  UNL1        0.0013
     10 C         -17.8274    0.8306   20.9161 C.ar    1  UNL1        0.0016
     11 C         -16.3873    0.4184   20.8356 C.ar    1  UNL1        0.0013
     12 C         -15.9537   -0.5977   19.8210 C.ar    1  UNL1        0.0147
     13 C         -18.2610    1.8467   21.9308 C.ar    1  UNL1        0.0194
     14 C         -17.2364    2.5657   22.7574 C.ar    1  UNL1        0.0063
     15 C         -17.6701    3.5818   23.7720 C.ar    1  UNL1        0.0577
     16 C         -19.1283    3.8789   23.9600 C.ar    1  UNL1        0.2252
     17 N         -20.1529    3.1598   23.1334 N.ar    1  UNL1       -0.2101
     18 C         -19.7192    2.1437   22.1188 C.ar    1  UNL1        0.1020
     19 O         -19.5620    4.8950   24.9746 O.3     1  UNL1       -0.4552
     20 C         -18.5367    5.7133   25.7021 C.3     1  UNL1        0.2337
     21 C         -18.5331    5.7505   27.2016 C.ar    1  UNL1        0.0212
     22 C         -17.2355    5.8622   27.9459 C.ar    1  UNL1       -0.0007
     23 C         -17.2319    5.8994   29.4455 C.ar    1  UNL1       -0.0002
     24 C         -18.5258    5.8250   30.2008 C.ar    1  UNL1       -0.0000
     25 C         -19.8233    5.7133   29.4564 C.ar    1  UNL1       -0.0002
     26 C         -19.8269    5.6760   27.9569 C.ar    1  UNL1       -0.0007
     27 N         -15.2818   -7.0662   17.9511 N.ar    1  UNL1       -0.2162
     28 N         -15.8599   -8.4410   18.1110 N.ar    1  UNL1       -0.1683
     29 C         -17.3048   -8.3856   17.7121 C.ar    1  UNL1        0.0810
     30 C         -17.6197   -6.9765   17.3056 C.ar    1  UNL1        0.0509
     31 C         -16.3694   -6.1611   17.4533 C.ar    1  UNL1        0.1380
     32 C          -9.6139   -5.4680   19.1005 C.3     1  UNL1        0.0310
     33 C         -11.0309   -5.8675   18.8132 C.ar    1  UNL1       -0.0218
     34 C         -11.3134   -7.0346   17.9142 C.ar    1  UNL1       -0.0027
     35 C         -12.7304   -7.4341   17.6268 C.ar    1  UNL1        0.0189
     36 C         -13.8648   -6.6666   18.2384 C.ar    1  UNL1        0.0842
     37 C         -13.5822   -5.4996   19.1374 C.ar    1  UNL1        0.0189
     38 C         -12.1653   -5.1001   19.4248 C.ar    1  UNL1       -0.0027
     39 C         -18.2660   -9.5371   17.7186 C.3     1  UNL1        0.0372
     40 C         -17.4594  -10.2044   18.7929 C.3     1  UNL1        0.0060
     41 C         -19.0727   -8.8698   16.6443 C.3     1  UNL1        0.0060
     42 C         -19.2273  -10.6886   17.7251 C.3     1  UNL1        0.0060
@<TRIPOS>BOND
     1    32    33    1
     2    33    34   ar
     3    34    35   ar
     4    35    36   ar
     5    36    27    1
     6    27    28   ar
     7    28    29   ar
     8    29    39    1
     9    39    40    1
    10    39    41    1
    11    39    42    1
    12    29    30   ar
    13    30    31   ar
    14    31     1    1
    15     1     2   am
    16     2     3    2
    17     2     4   am
    18     4     7    1
    19     7     8   ar
    20     8     9   ar
    21     9    10   ar
    22    10    13    1
    23    13    14   ar
    24    14    15   ar
    25    15    16   ar
    26    16    19    1
    27    19    20    1
    28    20    21    1
    29    21    22   ar
    30    22    23   ar
    31    23    24   ar
    32    24    25   ar
    33    25    26   ar
    34    16    17   ar
    35    17    18   ar
    36    10    11   ar
    37    11    12   ar
    38    36    37   ar
    39    37    38   ar
    40    38    33   ar
    41    31    27   ar
    42    12     7   ar
    43    18    13   ar
    44    26    21   ar
    45     1     5    1
    46     4     6    1
@<TRIPOS>MOLECULE
*****
 42 46 0 0 0
SMALL
GASTEIGER

@<TRIPOS>ATOM
      1 N          -1.7506    3.6115   19.5315 N.am    1  UNL1       -0.2533
      2 C          -0.6912    2.5983   19.8490 C.2     1  UNL1        0.3092
      3 O          -0.5558    2.0672   21.2454 O.2     1  UNL1       -0.2521
      4 N           0.2329    2.1161   18.7704 N.am    1  UNL1       -0.2680
      5 H          -1.8394    3.9601   18.6150 H       1  UNL1        0.1578
      6 H           0.1441    2.4646   17.8540 H       1  UNL1        0.1564
      7 C           1.2923    1.1028   19.0881 C.ar    1  UNL1        0.0516
      8 C           2.7130    1.3480   18.6739 C.ar    1  UNL1        0.0147
      9 C           3.7724    0.3348   18.9916 C.ar    1  UNL1        0.0013
     10 C           3.4112   -0.9238   19.7234 C.ar    1  UNL1        0.0016
     11 C           1.9905   -1.1690   20.1375 C.ar    1  UNL1        0.0013
     12 C           0.9311   -0.1558   19.8199 C.ar    1  UNL1        0.0147
     13 C           4.4706   -1.9371   20.0411 C.ar    1  UNL1        0.0194
     14 C           5.8631   -1.4879   20.3713 C.ar    1  UNL1        0.0063
     15 C           6.9225   -2.5011   20.6890 C.ar    1  UNL1        0.0577
     16 C           6.5894   -3.9636   20.6764 C.ar    1  UNL1        0.2252
     17 N           5.1969   -4.4128   20.3462 N.ar    1  UNL1       -0.2101
     18 C           4.1375   -3.3995   20.0285 C.ar    1  UNL1        0.1020
     19 O           7.6488   -4.9769   20.9941 O.3     1  UNL1       -0.4552
     20 C           8.4968   -4.8159   22.2209 C.3     1  UNL1        0.2337
     21 C           8.0861   -5.4687   23.5075 C.ar    1  UNL1        0.0212
     22 C           8.4515   -6.8991   23.7727 C.ar    1  UNL1       -0.0007
     23 C           8.0408   -7.5519   25.0593 C.ar    1  UNL1       -0.0002
     24 C           7.2647   -6.7742   26.0806 C.ar    1  UNL1       -0.0000
     25 C           6.8993   -5.3438   25.8153 C.ar    1  UNL1       -0.0002
     26 C           7.3100   -4.6910   24.5287 C.ar    1  UNL1       -0.0007
     27 N          -2.3191    5.0413   21.7172 N.ar    1  UNL1       -0.2162
     28 N          -3.5413    5.2463   22.5623 N.ar    1  UNL1       -0.1683
     29 C          -4.6523    4.4255   21.9775 C.ar    1  UNL1        0.0810
     30 C          -4.1167    3.7132   20.7709 C.ar    1  UNL1        0.0509
     31 C          -2.6747    4.0938   20.6101 C.ar    1  UNL1        0.1380
     32 C           3.0496    7.5677   22.6089 C.3     1  UNL1        0.0310
     33 C           1.7074    6.9361   22.3860 C.ar    1  UNL1       -0.0218
     34 C           0.8002    7.4613   21.3131 C.ar    1  UNL1       -0.0027
     35 C          -0.5419    6.8297   21.0902 C.ar    1  UNL1        0.0189
     36 C          -0.9769    5.6729   21.9402 C.ar    1  UNL1        0.0842
     37 C          -0.0698    5.1477   23.0131 C.ar    1  UNL1        0.0189
     38 C           1.2724    5.7793   23.2360 C.ar    1  UNL1       -0.0027
     39 C          -6.0529    4.3332   22.5063 C.3     1  UNL1        0.0372
     40 C          -5.5175    3.9846   23.8635 C.3     1  UNL1        0.0060
     41 C          -6.5883    4.6818   21.1492 C.3     1  UNL1        0.0060
     42 C          -7.4535    4.2409   23.0352 C.3     1  UNL1        0.0060
@<TRIPOS>BOND
     1    32    33    1
     2    33    34   ar
     3    34    35   ar
     4    35    36   ar
     5    36    27    1
     6    27    28   ar
     7    28    29   ar
     8    29    39    1
     9    39    40    1
    10    39    41    1
    11    39    42    1
    12    29    30   ar
    13    30    31   ar
    14    31     1    1
    15     1     2   am
    16     2     3    2
    17     2     4   am
    18     4     7    1
    19     7     8   ar
    20     8     9   ar
    21     9    10   ar
    22    10    13    1
    23    13    14   ar
    24    14    15   ar
    25    15    16   ar
    26    16    19    1
    27    19    20    1
    28    20    21    1
    29    21    22   ar
    30    22    23   ar
    31    23    24   ar
    32    24    25   ar
    33    25    26   ar
    34    16    17   ar
    35    17    18   ar
    36    10    11   ar
    37    11    12   ar
    38    36    37   ar
    39    37    38   ar
    40    38    33   ar
    41    31    27   ar
    42    12     7   ar
    43    18    13   ar
    44    26    21   ar
    45     1     5    1
    46     4     6    1
@<TRIPOS>MOLECULE
*****
 42 46 0 0 0
SMALL
GASTEIGER

@<TRIPOS>ATOM
      1 N           1.6711    0.4315   20.6558 N.am    1  UNL1       -0.2533
      2 C           1.7693    0.5662   22.1465 C.2     1  UNL1        0.3092
      3 O           2.8541   -0.1507   22.8945 O.2     1  UNL1       -0.2521
      4 N           0.7829    1.4178   22.8893 N.am    1  UNL1       -0.2680
      5 H           0.9591    0.9021   20.1650 H       1  UNL1        0.1578
      6 H           0.0709    1.8883   22.3985 H       1  UNL1        0.1564
      7 C           0.8812    1.5524   24.3800 C.ar    1  UNL1        0.0516
      8 C          -0.2960    1.2077   25.2435 C.ar    1  UNL1        0.0147
      9 C          -0.1977    1.3423   26.7342 C.ar    1  UNL1        0.0013
     10 C           1.0777    1.8216   27.3615 C.ar    1  UNL1        0.0016
     11 C           2.2548    2.1663   26.4980 C.ar    1  UNL1        0.0013
     12 C           2.1566    2.0317   25.0073 C.ar    1  UNL1        0.0147
     13 C           1.1760    1.9562   28.8522 C.ar    1  UNL1        0.0194
     14 C           2.3098    2.7256   29.4626 C.ar    1  UNL1        0.0063
     15 C           2.4081    2.8603   30.9533 C.ar    1  UNL1        0.0577
     16 C           1.3726    2.2255   31.8336 C.ar    1  UNL1        0.2252
     17 N           0.2388    1.4561   31.2231 N.ar    1  UNL1       -0.2101
     18 C           0.1405    1.3215   29.7324 C.ar    1  UNL1        0.1020
     19 O           1.4709    2.3601   33.3243 O.3     1  UNL1       -0.4552
     20 C           2.7889    2.6847   33.9628 C.3     1  UNL1        0.2337
     21 C           3.5673    1.6110   34.6637 C.ar    1  UNL1        0.0212
     22 C           3.8525    1.7284   36.1317 C.ar    1  UNL1       -0.0007
     23 C           4.6310    0.6548   36.8326 C.ar    1  UNL1       -0.0002
     24 C           5.1243   -0.5363   36.0656 C.ar    1  UNL1       -0.0000
     25 C           4.8390   -0.6536   34.5976 C.ar    1  UNL1       -0.0002
     26 C           4.0606    0.4201   33.8967 C.ar    1  UNL1       -0.0007
     27 N           3.6637    0.0656   18.9122 N.ar    1  UNL1       -0.2162
     28 N           4.4390   -1.1210   18.4212 N.ar    1  UNL1       -0.1683
     29 C           3.9119   -2.3399   19.1187 C.ar    1  UNL1        0.0810
     30 C           2.8109   -1.9067   20.0407 C.ar    1  UNL1        0.0509
     31 C           2.6575   -0.4200   19.9130 C.ar    1  UNL1        0.1380
     32 C           4.4496    5.7553   17.1771 C.3     1  UNL1        0.0310
     33 C           4.2531    4.3328   17.6109 C.ar    1  UNL1       -0.0218
     34 C           5.3982    3.3657   17.5517 C.ar    1  UNL1       -0.0027
     35 C           5.2017    1.9433   17.9855 C.ar    1  UNL1        0.0189
     36 C           3.8602    1.4880   18.4784 C.ar    1  UNL1        0.0842
     37 C           2.7151    2.4551   18.5376 C.ar    1  UNL1        0.0189
     38 C           2.9116    3.8775   18.1038 C.ar    1  UNL1       -0.0027
     39 C           4.4002   -3.7453   18.9276 C.3     1  UNL1        0.0372
     40 C           3.0043   -4.2572   19.1262 C.3     1  UNL1        0.0060
     41 C           5.7960   -3.2334   18.7291 C.3     1  UNL1        0.0060
     42 C           4.8884   -5.1507   18.7366 C.3     1  UNL1        0.0060
@<TRIPOS>BOND
     1    32    33    1
     2    33    34   ar
     3    34    35   ar
     4    35    36   ar
     5    36    27    1
     6    27    28   ar
     7    28    29   ar
     8    29    39    1
     9    39    40    1
    10    39    41    1
    11    39    42    1
    12    29    30   ar
    13    30    31   ar
    14    31     1    1
    15     1     2   am
    16     2     3    2
    17     2     4   am
    18     4     7    1
    19     7     8   ar
    20     8     9   ar
    21     9    10   ar
    22    10    13    1
    23    13    14   ar
    24    14    15   ar
    25    15    16   ar
    26    16    19    1
    27    19    20    1
    28    20    21    1
    29    21    22   ar
    30    22    23   ar
    31    23    24   ar
    32    24    25   ar
    33    25    26   ar
    34    16    17   ar
    35    17    18   ar
    36    10    11   ar
    37    11    12   ar
    38    36    37   ar
    39    37    38   ar
    40    38    33   ar
    41    31    27   ar
    42    12     7   ar
    43    18    13   ar
    44    26    21   ar
    45     1     5    1
    46     4     6    1
@<TRIPOS>MOLECULE
*****
 42 46 0 0 0
SMALL
GASTEIGER

@<TRIPOS>ATOM
      1 N           1.6604    2.0965   33.9783 N.am    1  UNL1       -0.2533
      2 C           1.6376    2.1758   32.4807 C.2     1  UNL1        0.3092
      3 O           2.7953    2.7818   31.7440 O.2     1  UNL1       -0.2521
      4 N           0.4572    1.6492   31.7195 N.am    1  UNL1       -0.2680
      5 H           0.9006    1.6987   34.4618 H       1  UNL1        0.1578
      6 H          -0.3026    1.2514   32.2030 H       1  UNL1        0.1564
      7 C           0.4345    1.7285   30.2218 C.ar    1  UNL1        0.0516
      8 C           0.4924    3.0636   29.5405 C.ar    1  UNL1        0.0147
      9 C           0.4697    3.1430   28.0428 C.ar    1  UNL1        0.0013
     10 C           0.3890    1.8874   27.2263 C.ar    1  UNL1        0.0016
     11 C           0.3310    0.5523   27.9076 C.ar    1  UNL1        0.0013
     12 C           0.3538    0.4729   29.4053 C.ar    1  UNL1        0.0147
     13 C           0.3662    1.9667   25.7286 C.ar    1  UNL1        0.0194
     14 C           1.2373    1.0553   24.9159 C.ar    1  UNL1        0.0063
     15 C           1.2146    1.1347   23.4182 C.ar    1  UNL1        0.0577
     16 C           0.3207    2.1255   22.7332 C.ar    1  UNL1        0.2252
     17 N          -0.5503    3.0370   23.5459 N.ar    1  UNL1       -0.2101
     18 C          -0.5276    2.9576   25.0436 C.ar    1  UNL1        0.1020
     19 O           0.2980    2.2049   21.2355 O.3     1  UNL1       -0.4552
     20 C           0.0772    0.9642   20.4219 C.3     1  UNL1        0.2337
     21 C           1.2427    0.2688   19.7832 C.ar    1  UNL1        0.0212
     22 C           1.8533   -0.9318   20.4434 C.ar    1  UNL1       -0.0007
     23 C           3.0188   -1.6272   19.8048 C.ar    1  UNL1       -0.0002
     24 C           3.5738   -1.1221   18.5059 C.ar    1  UNL1       -0.0000
     25 C           2.9632    0.0784   17.8458 C.ar    1  UNL1       -0.0002
     26 C           1.7976    0.7738   18.4844 C.ar    1  UNL1       -0.0007
     27 N           4.2073    2.0062   34.7846 N.ar    1  UNL1       -0.2162
     28 N           5.0730    2.8610   35.6621 N.ar    1  UNL1       -0.1683
     29 C           4.2414    4.0061   36.1594 C.ar    1  UNL1        0.0810
     30 C           2.8618    3.8591   35.5891 C.ar    1  UNL1        0.0509
     31 C           2.8408    2.6231   34.7395 C.ar    1  UNL1        0.1380
     32 C           5.9118   -3.0010   31.9521 C.3     1  UNL1        0.0310
     33 C           5.4857   -1.7492   32.6602 C.ar    1  UNL1       -0.0218
     34 C           5.8788   -0.4082   32.1150 C.ar    1  UNL1       -0.0027
     35 C           5.4527    0.8436   32.8231 C.ar    1  UNL1        0.0189
     36 C           4.6335    0.7544   34.0764 C.ar    1  UNL1        0.0842
     37 C           4.2403   -0.5865   34.6216 C.ar    1  UNL1        0.0189
     38 C           4.6664   -1.8383   33.9135 C.ar    1  UNL1       -0.0027
     39 C           4.7076    5.1052   37.0674 C.3     1  UNL1        0.0372
     40 C           3.6075    4.7748   38.0321 C.3     1  UNL1        0.0060
     41 C           5.8077    5.4356   36.1027 C.3     1  UNL1        0.0060
     42 C           5.1738    6.2044   37.9755 C.3     1  UNL1        0.0060
@<TRIPOS>BOND
     1    32    33    1
     2    33    34   ar
     3    34    35   ar
     4    35    36   ar
     5    36    27    1
     6    27    28   ar
     7    28    29   ar
     8    29    39    1
     9    39    40    1
    10    39    41    1
    11    39    42    1
    12    29    30   ar
    13    30    31   ar
    14    31     1    1
    15     1     2   am
    16     2     3    2
    17     2     4   am
    18     4     7    1
    19     7     8   ar
    20     8     9   ar
    21     9    10   ar
    22    10    13    1
    23    13    14   ar
    24    14    15   ar
    25    15    16   ar
    26    16    19    1
    27    19    20    1
    28    20    21    1
    29    21    22   ar
    30    22    23   ar
    31    23    24   ar
    32    24    25   ar
    33    25    26   ar
    34    16    17   ar
    35    17    18   ar
    36    10    11   ar
    37    11    12   ar
    38    36    37   ar
    39    37    38   ar
    40    38    33   ar
    41    31    27   ar
    42    12     7   ar
    43    18    13   ar
    44    26    21   ar
    45     1     5    1
    46     4     6    1
@<TRIPOS>MOLECULE
*****
 42 46 0 0 0
SMALL
GASTEIGER

@<TRIPOS>ATOM
      1 N           0.1625    0.8642   25.1721 N.am    1  UNL1       -0.2533
      2 C           0.6700    1.2964   26.5158 C.2     1  UNL1        0.3092
      3 O           0.8031    2.7565   26.8332 O.2     1  UNL1       -0.2521
      4 N           1.0445    0.2687   27.5422 N.am    1  UNL1       -0.2680
      5 H           0.0752   -0.0940   24.9639 H       1  UNL1        0.1578
      6 H           0.9572   -0.6895   27.3340 H       1  UNL1        0.1564
      7 C           1.5521    0.7010   28.8859 C.ar    1  UNL1        0.0516
      8 C           2.9914    0.4854   29.2489 C.ar    1  UNL1        0.0147
      9 C           3.4990    0.9177   30.5926 C.ar    1  UNL1        0.0013
     10 C           2.5672    1.5656   31.5733 C.ar    1  UNL1        0.0016
     11 C           1.1279    1.7812   31.2104 C.ar    1  UNL1        0.0013
     12 C           0.6203    1.3489   29.8667 C.ar    1  UNL1        0.0147
     13 C           3.0748    1.9979   32.9170 C.ar    1  UNL1        0.0194
     14 C           2.1314    2.5959   33.9183 C.ar    1  UNL1        0.0063
     15 C           2.6389    3.0282   35.2619 C.ar    1  UNL1        0.0577
     16 C           4.0898    2.8625   35.6044 C.ar    1  UNL1        0.2252
     17 N           5.0332    2.2645   34.6032 N.ar    1  UNL1       -0.2101
     18 C           4.5257    1.8322   33.2595 C.ar    1  UNL1        0.1020
     19 O           4.5974    3.2948   36.9481 O.3     1  UNL1       -0.4552
     20 C           4.4376    2.3928   38.1359 C.3     1  UNL1        0.2337
     21 C           3.0671    1.9856   38.5895 C.ar    1  UNL1        0.0212
     22 C           2.7597    0.5393   38.8421 C.ar    1  UNL1       -0.0007
     23 C           1.3891    0.1320   39.2957 C.ar    1  UNL1       -0.0002
     24 C           0.3259    1.1710   39.4966 C.ar    1  UNL1       -0.0000
     25 C           0.6334    2.6172   39.2440 C.ar    1  UNL1       -0.0002
     26 C           2.0040    3.0245   38.7904 C.ar    1  UNL1       -0.0007
     27 N           0.1830    1.8775   22.6987 N.ar    1  UNL1       -0.2162
     28 N          -0.4081    3.0911   22.0448 N.ar    1  UNL1       -0.1683
     29 C          -1.1684    3.8557   23.0877 C.ar    1  UNL1        0.0810
     30 C          -1.0472    3.1145   24.3861 C.ar    1  UNL1        0.0509
     31 C          -0.2120    1.8919   24.1457 C.ar    1  UNL1        0.1380
     32 C           3.5381   -2.3012   20.0002 C.3     1  UNL1        0.0310
     33 C           2.6993   -1.2565   20.6748 C.ar    1  UNL1       -0.0218
     34 C           3.1900   -0.5953   21.9285 C.ar    1  UNL1       -0.0027
     35 C           2.3512    0.4494   22.6032 C.ar    1  UNL1        0.0189
     36 C           1.0217    0.8328   22.0241 C.ar    1  UNL1        0.0842
     37 C           0.5310    0.1716   20.7703 C.ar    1  UNL1        0.0189
     38 C           1.3698   -0.8731   20.0957 C.ar    1  UNL1       -0.0027
     39 C          -1.9182    5.1365   22.8702 C.3     1  UNL1        0.0372
     40 C          -3.2152    4.3840   22.9104 C.3     1  UNL1        0.0060
     41 C          -0.6213    5.8890   22.8301 C.3     1  UNL1        0.0060
     42 C          -2.6681    6.4173   22.6528 C.3     1  UNL1        0.0060
@<TRIPOS>BOND
     1    32    33    1
     2    33    34   ar
     3    34    35   ar
     4    35    36   ar
     5    36    27    1
     6    27    28   ar
     7    28    29   ar
     8    29    39    1
     9    39    40    1
    10    39    41    1
    11    39    42    1
    12    29    30   ar
    13    30    31   ar
    14    31     1    1
    15     1     2   am
    16     2     3    2
    17     2     4   am
    18     4     7    1
    19     7     8   ar
    20     8     9   ar
    21     9    10   ar
    22    10    13    1
    23    13    14   ar
    24    14    15   ar
    25    15    16   ar
    26    16    19    1
    27    19    20    1
    28    20    21    1
    29    21    22   ar
    30    22    23   ar
    31    23    24   ar
    32    24    25   ar
    33    25    26   ar
    34    16    17   ar
    35    17    18   ar
    36    10    11   ar
    37    11    12   ar
    38    36    37   ar
    39    37    38   ar
    40    38    33   ar
    41    31    27   ar
    42    12     7   ar
    43    18    13   ar
    44    26    21   ar
    45     1     5    1
    46     4     6    1
