@<TRIPOS>MOLECULE
*****
 48 51 0 0 0
SMALL
GASTEIGER

@<TRIPOS>ATOM
      1 C           6.2555   -2.8398   25.0890 C.3     1  UNL1        0.1043
      2 C           5.6172   -1.6321   27.2989 C.2     1  UNL1        0.2482
      3 O           7.0669   -1.3550   27.5663 O.2     1  UNL1       -0.2701
      4 N           5.2115   -2.3745   26.0603 N.am    1  UNL1       -0.2997
      5 H           4.2600   -2.5563   25.8848 H       1  UNL1        0.1498
      6 C           2.1084   -0.5312   28.7911 C.ar    1  UNL1        0.0462
      7 C           3.1525   -0.9965   27.8198 C.ar    1  UNL1        0.0212
      8 C           4.5731   -1.1667   28.2702 C.ar    1  UNL1        0.0833
      9 C           4.9497   -0.8716   29.6919 C.ar    1  UNL1        0.1592
     10 F           6.3703   -1.0419   30.1423 F       1  UNL1       -0.2027
     11 C           3.9056   -0.4063   30.6631 C.ar    1  UNL1        0.0972
     12 C           2.4850   -0.2361   30.2127 C.ar    1  UNL1        0.0327
     13 N           4.2821   -0.1112   32.0848 N.pl3   1  UNL1       -0.1922
     14 C           4.7878    1.2503   32.4596 C.3     1  UNL1        0.1156
     15 C           5.1643    1.5455   33.8813 C.3     1  UNL1        0.0252
     16 C           5.0351    0.4790   34.9282 C.3     1  UNL1        0.0292
     17 C           4.5295   -0.8826   34.5534 C.3     1  UNL1        0.1727
     18 S           4.1530   -1.1777   33.1317 S.O2    1  UNL1        0.0570
     19 O           3.6738   -1.9344   31.9285 O.2     1  UNL1       -0.1543
     20 O           3.8574   -2.5070   33.7606 O.2     1  UNL1       -0.1543
     21 N           0.6878   -0.3610   28.3407 N.pl3   1  UNL1       -0.3326
     22 H           0.3770   -0.7996   27.5159 H       1  UNL1        0.1468
     23 C          -1.6917    0.0582   29.2957 C.3     1  UNL1        0.0229
     24 C          -0.2592    0.4775   29.1469 C.3     1  UNL1        0.0871
     25 C           6.8287   -4.2209   25.2085 C.3     1  UNL1        0.1443
     26 O           6.2925   -5.1688   26.2400 O.3     1  UNL1       -0.3813
     27 H           5.5847   -4.7345   26.7412 H       1  UNL1        0.2105
     28 C           7.9381   -4.6539   24.2966 C.3     1  UNL1        0.1001
     29 N           7.6269   -5.1168   22.9042 N.3     1  UNL1       -0.2917
     30 H           6.6208   -5.0082   22.7757 H       1  UNL1        0.1236
     31 C           8.2871   -4.4578   21.7295 C.3     1  UNL1        0.0957
     32 C           7.4523   -3.7903   20.6771 C.ar    1  UNL1       -0.0064
     33 C           7.9967   -2.6137   19.9226 C.ar    1  UNL1       -0.0029
     34 C           7.1619   -1.9462   18.8702 C.ar    1  UNL1       -0.0003
     35 C           5.7827   -2.4553   18.5722 C.ar    1  UNL1        0.0038
     36 C           5.2384   -3.6319   19.3268 C.ar    1  UNL1        0.0712
     37 C           6.0732   -4.2994   20.3792 C.ar    1  UNL1        0.0009
     38 C           3.8592   -4.1410   19.0288 C.3     1  UNL1        0.4186
     39 F           2.4801   -4.6502   18.7309 F       1  UNL1       -0.1659
     40 F           4.3189   -5.5434   19.2974 F       1  UNL1       -0.1659
     41 F           3.3996   -2.7387   18.7602 F       1  UNL1       -0.1659
     42 C           6.7263   -1.9242   23.9981 C.3     1  UNL1        0.0484
     43 C           5.7531   -1.4078   22.9802 C.ar    1  UNL1       -0.0204
     44 C           4.4096   -2.0578   22.8298 C.ar    1  UNL1       -0.0042
     45 C           3.4364   -1.5415   21.8119 C.ar    1  UNL1       -0.0003
     46 C           3.8066   -0.3752   20.9444 C.ar    1  UNL1       -0.0000
     47 C           5.1500    0.2749   21.0948 C.ar    1  UNL1       -0.0003
     48 C           6.1233   -0.2415   22.1127 C.ar    1  UNL1       -0.0042
@<TRIPOS>BOND
     1    23    24    1
     2    24    21    1
     3    21     6    1
     4     6     7   ar
     5     7     8   ar
     6     8     2    1
     7     2     3    2
     8     2     4   am
     9     4     1    1
    10     1    42    1
    11    42    43    1
    12    43    44   ar
    13    44    45   ar
    14    45    46   ar
    15    46    47   ar
    16    47    48   ar
    17     1    25    1
    18    25    26    1
    19    25    28    1
    20    28    29    1
    21    29    31    1
    22    31    32    1
    23    32    33   ar
    24    33    34   ar
    25    34    35   ar
    26    35    36   ar
    27    36    38    1
    28    38    39    1
    29    38    40    1
    30    38    41    1
    31    36    37   ar
    32     8     9   ar
    33     9    10    1
    34     9    11   ar
    35    11    13    1
    36    13    14    1
    37    14    15    1
    38    15    16    1
    39    16    17    1
    40    17    18    1
    41    18    19    2
    42    18    20    2
    43    11    12   ar
    44    12     6   ar
    45    48    43   ar
    46    37    32   ar
    47    18    13    1
    48    21    22    1
    49     4     5    1
    50    26    27    1
    51    29    30    1
@<TRIPOS>MOLECULE
*****
 48 51 0 0 0
SMALL
GASTEIGER

@<TRIPOS>ATOM
      1 C           2.0804    0.7273   21.5423 C.3     1  UNL1        0.1043
      2 C           0.6504    2.4065   22.9155 C.2     1  UNL1        0.2482
      3 O           0.9337    3.4760   21.9026 O.2     1  UNL1       -0.2701
      4 N           1.2238    1.0322   22.7353 N.am    1  UNL1       -0.2997
      5 H           1.0378    0.3302   23.4001 H       1  UNL1        0.1498
      6 C          -2.4680    3.5051   25.1106 C.ar    1  UNL1        0.0462
      7 C          -1.6114    3.2003   23.9176 C.ar    1  UNL1        0.0212
      8 C          -0.2062    2.7113   24.1085 C.ar    1  UNL1        0.0833
      9 C           0.3423    2.5272   25.4924 C.ar    1  UNL1        0.1592
     10 F           1.7475    2.0383   25.6833 F       1  UNL1       -0.2027
     11 C          -0.5143    2.8320   26.6854 C.ar    1  UNL1        0.0972
     12 C          -1.9195    3.3209   26.4945 C.ar    1  UNL1        0.0327
     13 N           0.0342    2.6479   28.0694 N.pl3   1  UNL1       -0.1922
     14 C           0.6537    3.8078   28.7910 C.3     1  UNL1        0.1156
     15 C           1.2022    3.6237   30.1750 C.3     1  UNL1        0.0252
     16 C           1.1312    2.2796   30.8372 C.3     1  UNL1        0.0292
     17 C           0.5117    1.1197   30.1155 C.3     1  UNL1        0.1727
     18 S          -0.0368    1.3039   28.7316 S.O2    1  UNL1        0.0570
     19 O          -0.6885    0.9825   27.4194 O.2     1  UNL1       -0.1543
     20 O          -0.3342   -0.1518   28.9380 O.2     1  UNL1       -0.1543
     21 N          -3.8732    3.9940   24.9197 N.pl3   1  UNL1       -0.3326
     22 H          -4.1434    4.8688   25.2816 H       1  UNL1        0.1468
     23 C          -5.1469    3.4212   22.7289 C.3     1  UNL1        0.0229
     24 C          -4.8666    3.1502   24.1774 C.3     1  UNL1        0.0871
     25 C           1.4424    0.3756   20.2311 C.3     1  UNL1        0.1443
     26 O           0.5447   -0.8220   20.1311 O.3     1  UNL1       -0.3813
     27 H           0.4844   -1.2541   20.9975 H       1  UNL1        0.2105
     28 C           1.7020    1.2215   19.0199 C.3     1  UNL1        0.1001
     29 N           2.4643    0.6549   17.8589 N.3     1  UNL1       -0.2917
     30 H           2.1958    1.1971   17.0377 H       1  UNL1        0.1236
     31 C           3.9638    0.6269   17.8880 C.3     1  UNL1        0.0957
     32 C           4.6855   -0.6686   18.1128 C.ar    1  UNL1       -0.0064
     33 C           6.1694   -0.7457   17.9082 C.ar    1  UNL1       -0.0029
     34 C           6.8912   -2.0414   18.1329 C.ar    1  UNL1       -0.0003
     35 C           6.1290   -3.2598   18.5623 C.ar    1  UNL1        0.0038
     36 C           4.6449   -3.1827   18.7669 C.ar    1  UNL1        0.0712
     37 C           3.9232   -1.8871   18.5421 C.ar    1  UNL1        0.0009
     38 C           3.8827   -4.4011   19.1963 C.3     1  UNL1        0.4186
     39 F           3.1205   -5.6196   19.6256 F       1  UNL1       -0.1659
     40 F           5.0035   -5.2728   18.7123 F       1  UNL1       -0.1659
     41 F           2.7620   -3.5295   19.6802 F       1  UNL1       -0.1659
     42 C           3.5750    0.7742   21.6605 C.3     1  UNL1        0.0484
     43 C           4.3499   -0.4912   21.8807 C.ar    1  UNL1       -0.0204
     44 C           5.8323   -0.5122   21.6521 C.ar    1  UNL1       -0.0042
     45 C           6.6072   -1.7774   21.8722 C.ar    1  UNL1       -0.0003
     46 C           5.8999   -3.0217   22.3209 C.ar    1  UNL1       -0.0000
     47 C           4.4175   -3.0007   22.5495 C.ar    1  UNL1       -0.0003
     48 C           3.6426   -1.7355   22.3293 C.ar    1  UNL1       -0.0042
@<TRIPOS>BOND
     1    23    24    1
     2    24    21    1
     3    21     6    1
     4     6     7   ar
     5     7     8   ar
     6     8     2    1
     7     2     3    2
     8     2     4   am
     9     4     1    1
    10     1    42    1
    11    42    43    1
    12    43    44   ar
    13    44    45   ar
    14    45    46   ar
    15    46    47   ar
    16    47    48   ar
    17     1    25    1
    18    25    26    1
    19    25    28    1
    20    28    29    1
    21    29    31    1
    22    31    32    1
    23    32    33   ar
    24    33    34   ar
    25    34    35   ar
    26    35    36   ar
    27    36    38    1
    28    38    39    1
    29    38    40    1
    30    38    41    1
    31    36    37   ar
    32     8     9   ar
    33     9    10    1
    34     9    11   ar
    35    11    13    1
    36    13    14    1
    37    14    15    1
    38    15    16    1
    39    16    17    1
    40    17    18    1
    41    18    19    2
    42    18    20    2
    43    11    12   ar
    44    12     6   ar
    45    48    43   ar
    46    37    32   ar
    47    18    13    1
    48    21    22    1
    49     4     5    1
    50    26    27    1
    51    29    30    1
@<TRIPOS>MOLECULE
*****
 48 51 0 0 0
SMALL
GASTEIGER

@<TRIPOS>ATOM
      1 C           6.9926   -4.3685   26.3938 C.3     1  UNL1        0.1043
      2 C           6.1425   -2.3042   27.7227 C.2     1  UNL1        0.2482
      3 O           7.4056   -1.5681   27.3872 O.2     1  UNL1       -0.2701
      4 N           5.9360   -3.7044   27.2260 N.am    1  UNL1       -0.2997
      5 H           5.1069   -4.1876   27.4462 H       1  UNL1        0.1498
      6 C           2.6811   -0.6870   28.7965 C.ar    1  UNL1        0.0462
      7 C           3.7377   -1.3510   27.9643 C.ar    1  UNL1        0.0212
      8 C           5.0858   -1.6402   28.5550 C.ar    1  UNL1        0.0833
      9 C           5.3773   -1.2653   29.9778 C.ar    1  UNL1        0.1592
     10 F           6.7255   -1.5545   30.5685 F       1  UNL1       -0.2027
     11 C           4.3207   -0.6013   30.8100 C.ar    1  UNL1        0.0972
     12 C           2.9726   -0.3121   30.2193 C.ar    1  UNL1        0.0327
     13 N           4.6122   -0.2265   32.2329 N.pl3   1  UNL1       -0.1922
     14 C           5.2337    1.1022   32.5462 C.3     1  UNL1        0.1156
     15 C           5.5252    1.4771   33.9691 C.3     1  UNL1        0.0252
     16 C           5.1951    0.5232   35.0786 C.3     1  UNL1        0.0292
     17 C           4.5736   -0.8056   34.7653 C.3     1  UNL1        0.1727
     18 S           4.2821   -1.1804   33.3424 S.O2    1  UNL1        0.0570
     19 O           3.8203   -1.9833   32.1626 O.2     1  UNL1       -0.1543
     20 O           3.7916   -2.4132   34.0422 O.2     1  UNL1       -0.1543
     21 N           1.3329   -0.3978   28.2058 N.pl3   1  UNL1       -0.3326
     22 H           1.0928   -0.7644   27.3243 H       1  UNL1        0.1468
     23 C          -1.0770    0.5260   28.5041 C.3     1  UNL1        0.0229
     24 C           0.3506    0.4500   28.9583 C.3     1  UNL1        0.0871
     25 C           6.9241   -4.2959   24.8970 C.3     1  UNL1        0.1443
     26 O           7.4565   -5.4256   24.0662 O.3     1  UNL1       -0.3813
     27 H           7.8068   -6.1179   24.6484 H       1  UNL1        0.2105
     28 C           6.3233   -3.0935   24.2312 C.3     1  UNL1        0.1001
     29 N           4.8607   -2.8012   24.3894 N.3     1  UNL1       -0.2917
     30 H           4.6881   -2.6945   25.3891 H       1  UNL1        0.1236
     31 C           4.2579   -1.6040   23.7158 C.3     1  UNL1        0.0957
     32 C           3.7544   -1.7105   22.3069 C.ar    1  UNL1       -0.0064
     33 C           2.7656   -0.7100   21.7862 C.ar    1  UNL1       -0.0029
     34 C           2.2620   -0.8165   20.3773 C.ar    1  UNL1       -0.0003
     35 C           2.7474   -1.9235   19.4890 C.ar    1  UNL1        0.0038
     36 C           3.7363   -2.9240   20.0097 C.ar    1  UNL1        0.0712
     37 C           4.2398   -2.8175   21.4187 C.ar    1  UNL1        0.0009
     38 C           4.2216   -4.0310   19.1215 C.3     1  UNL1        0.4186
     39 F           4.7070   -5.1380   18.2332 F       1  UNL1       -0.1659
     40 F           2.8244   -4.5685   19.0278 F       1  UNL1       -0.1659
     41 F           5.6189   -3.4936   19.2152 F       1  UNL1       -0.1659
     42 C           8.1176   -5.1052   27.0582 C.3     1  UNL1        0.0484
     43 C           8.3221   -4.9842   28.5393 C.ar    1  UNL1       -0.0204
     44 C           7.5171   -5.8318   29.4793 C.ar    1  UNL1       -0.0042
     45 C           7.7215   -5.7109   30.9603 C.ar    1  UNL1       -0.0003
     46 C           8.7310   -4.7423   31.5014 C.ar    1  UNL1       -0.0000
     47 C           9.5360   -3.8947   30.5615 C.ar    1  UNL1       -0.0003
     48 C           9.3316   -4.0156   29.0804 C.ar    1  UNL1       -0.0042
@<TRIPOS>BOND
     1    23    24    1
     2    24    21    1
     3    21     6    1
     4     6     7   ar
     5     7     8   ar
     6     8     2    1
     7     2     3    2
     8     2     4   am
     9     4     1    1
    10     1    42    1
    11    42    43    1
    12    43    44   ar
    13    44    45   ar
    14    45    46   ar
    15    46    47   ar
    16    47    48   ar
    17     1    25    1
    18    25    26    1
    19    25    28    1
    20    28    29    1
    21    29    31    1
    22    31    32    1
    23    32    33   ar
    24    33    34   ar
    25    34    35   ar
    26    35    36   ar
    27    36    38    1
    28    38    39    1
    29    38    40    1
    30    38    41    1
    31    36    37   ar
    32     8     9   ar
    33     9    10    1
    34     9    11   ar
    35    11    13    1
    36    13    14    1
    37    14    15    1
    38    15    16    1
    39    16    17    1
    40    17    18    1
    41    18    19    2
    42    18    20    2
    43    11    12   ar
    44    12     6   ar
    45    48    43   ar
    46    37    32   ar
    47    18    13    1
    48    21    22    1
    49     4     5    1
    50    26    27    1
    51    29    30    1
@<TRIPOS>MOLECULE
*****
 48 51 0 0 0
SMALL
GASTEIGER

@<TRIPOS>ATOM
      1 C           5.0512   -2.4145   24.4565 C.3     1  UNL1        0.1043
      2 C           4.4188   -0.6087   26.2140 C.2     1  UNL1        0.2482
      3 O           5.2080    0.4121   25.4491 O.2     1  UNL1       -0.2701
      4 N           4.3405   -2.0220   25.7177 N.am    1  UNL1       -0.2997
      5 H           3.8225   -2.6921   26.2197 H       1  UNL1        0.1498
      6 C           1.6530    0.8380   28.6650 C.ar    1  UNL1        0.0462
      7 C           2.3638    0.4455   27.4038 C.ar    1  UNL1        0.0212
      8 C           3.7080   -0.2162   27.4753 C.ar    1  UNL1        0.0833
      9 C           4.3415   -0.4855   28.8080 C.ar    1  UNL1        0.1592
     10 F           5.6857   -1.1473   28.8796 F       1  UNL1       -0.2027
     11 C           3.6307   -0.0931   30.0693 C.ar    1  UNL1        0.0972
     12 C           2.2865    0.5687   29.9977 C.ar    1  UNL1        0.0327
     13 N           4.2641   -0.3624   31.4021 N.pl3   1  UNL1       -0.1922
     14 C           3.9878   -1.6517   32.1170 C.3     1  UNL1        0.1156
     15 C           4.6212   -1.9210   33.4498 C.3     1  UNL1        0.0252
     16 C           5.5310   -0.9009   34.0676 C.3     1  UNL1        0.0292
     17 C           5.8073    0.3885   33.3526 C.3     1  UNL1        0.1727
     18 S           5.1739    0.6577   32.0199 S.O2    1  UNL1        0.0570
     19 O           4.8128    1.3668   30.7483 O.2     1  UNL1       -0.1543
     20 O           5.9582    1.9241   32.1960 O.2     1  UNL1       -0.1543
     21 N           0.3088    1.4997   28.5935 N.pl3   1  UNL1       -0.3326
     22 H           0.2077    2.4399   28.8678 H       1  UNL1        0.1468
     23 C          -1.2947   -0.5340   28.7995 C.3     1  UNL1        0.0229
     24 C          -0.8814    0.7292   28.1041 C.3     1  UNL1        0.0871
     25 C           6.5296   -2.6679   24.4764 C.3     1  UNL1        0.1443
     26 O           7.4871   -1.5155   24.5470 O.3     1  UNL1       -0.3813
     27 H           6.9898   -0.6830   24.5731 H       1  UNL1        0.2105
     28 C           7.0503   -4.0737   24.4257 C.3     1  UNL1        0.1001
     29 N           7.2237   -4.7620   23.1043 N.3     1  UNL1       -0.2917
     30 H           6.2877   -4.9496   22.7450 H       1  UNL1        0.1236
     31 C           7.9838   -4.0873   22.0011 C.3     1  UNL1        0.0957
     32 C           7.2626   -3.6133   20.7743 C.ar    1  UNL1       -0.0064
     33 C           7.9175   -2.6269   19.8534 C.ar    1  UNL1       -0.0029
     34 C           7.1963   -2.1530   18.6265 C.ar    1  UNL1       -0.0003
     35 C           5.8202   -2.6655   18.3205 C.ar    1  UNL1        0.0038
     36 C           5.1653   -3.6519   19.2414 C.ar    1  UNL1        0.0712
     37 C           5.8865   -4.1258   20.4683 C.ar    1  UNL1        0.0009
     38 C           3.7892   -4.1644   18.9354 C.3     1  UNL1        0.4186
     39 F           2.4130   -4.6769   18.6294 F       1  UNL1       -0.1659
     40 F           3.1953   -2.9115   19.5077 F       1  UNL1       -0.1659
     41 F           4.3830   -5.4174   18.3632 F       1  UNL1       -0.1659
     42 C           4.2837   -2.5537   23.1752 C.3     1  UNL1        0.0484
     43 C           4.1040   -1.3666   22.2759 C.ar    1  UNL1       -0.0204
     44 C           5.3014   -0.6978   21.6685 C.ar    1  UNL1       -0.0042
     45 C           5.1218    0.4892   20.7692 C.ar    1  UNL1       -0.0003
     46 C           3.7448    1.0073   20.4773 C.ar    1  UNL1       -0.0000
     47 C           2.5474    0.3385   21.0847 C.ar    1  UNL1       -0.0003
     48 C           2.7270   -0.8485   21.9840 C.ar    1  UNL1       -0.0042
@<TRIPOS>BOND
     1    23    24    1
     2    24    21    1
     3    21     6    1
     4     6     7   ar
     5     7     8   ar
     6     8     2    1
     7     2     3    2
     8     2     4   am
     9     4     1    1
    10     1    42    1
    11    42    43    1
    12    43    44   ar
    13    44    45   ar
    14    45    46   ar
    15    46    47   ar
    16    47    48   ar
    17     1    25    1
    18    25    26    1
    19    25    28    1
    20    28    29    1
    21    29    31    1
    22    31    32    1
    23    32    33   ar
    24    33    34   ar
    25    34    35   ar
    26    35    36   ar
    27    36    38    1
    28    38    39    1
    29    38    40    1
    30    38    41    1
    31    36    37   ar
    32     8     9   ar
    33     9    10    1
    34     9    11   ar
    35    11    13    1
    36    13    14    1
    37    14    15    1
    38    15    16    1
    39    16    17    1
    40    17    18    1
    41    18    19    2
    42    18    20    2
    43    11    12   ar
    44    12     6   ar
    45    48    43   ar
    46    37    32   ar
    47    18    13    1
    48    21    22    1
    49     4     5    1
    50    26    27    1
    51    29    30    1
@<TRIPOS>MOLECULE
*****
 48 51 0 0 0
SMALL
GASTEIGER

@<TRIPOS>ATOM
      1 C           2.3997    2.0398   21.0622 C.3     1  UNL1        0.1043
      2 C          -0.1781    2.3522   20.9760 C.2     1  UNL1        0.2482
      3 O          -0.3294    0.9576   20.4449 O.2     1  UNL1       -0.2701
      4 N           1.1864    2.8933   21.2847 N.am    1  UNL1       -0.2997
      5 H           1.2857    3.8086   21.6333 H       1  UNL1        0.1498
      6 C          -3.4647    4.4578   20.2583 C.ar    1  UNL1        0.0462
      7 C          -2.2514    3.6043   20.0359 C.ar    1  UNL1        0.0212
      8 C          -1.3914    3.2058   21.1985 C.ar    1  UNL1        0.0833
      9 C          -1.7446    3.6608   22.5834 C.ar    1  UNL1        0.1592
     10 F          -0.8845    3.2623   23.7460 F       1  UNL1       -0.2027
     11 C          -2.9578    4.5143   22.8058 C.ar    1  UNL1        0.0972
     12 C          -3.8179    4.9128   21.6433 C.ar    1  UNL1        0.0327
     13 N          -3.3111    4.9694   24.1909 N.pl3   1  UNL1       -0.1922
     14 C          -2.6215    6.1602   24.7878 C.3     1  UNL1        0.1156
     15 C          -2.9747    6.6153   26.1728 C.3     1  UNL1        0.0252
     16 C          -4.0176    5.8795   26.9608 C.3     1  UNL1        0.0292
     17 C          -4.7072    4.6886   26.3639 C.3     1  UNL1        0.1727
     18 S          -4.3539    4.2336   24.9789 S.O2    1  UNL1        0.0570
     19 O          -4.3641    3.4256   23.7152 O.2     1  UNL1       -0.1543
     20 O          -5.4003    3.2171   25.3280 O.2     1  UNL1       -0.1543
     21 N          -4.3247    4.8563   19.0958 N.pl3   1  UNL1       -0.3326
     22 H          -4.4020    5.8046   18.8429 H       1  UNL1        0.1468
     23 C          -6.2624    3.1344   18.9222 C.3     1  UNL1        0.0229
     24 C          -5.0669    3.8100   18.3185 C.3     1  UNL1        0.0871
     25 C           2.6187    0.8147   21.8997 C.3     1  UNL1        0.1443
     26 O           1.8446   -0.4378   21.6132 O.3     1  UNL1       -0.3813
     27 H           1.2511   -0.2862   20.8611 H       1  UNL1        0.2105
     28 C           3.6117    0.8421   23.0235 C.3     1  UNL1        0.1001
     29 N           4.8255   -0.0377   22.9734 N.3     1  UNL1       -0.2917
     30 H           4.4901   -0.9996   22.9227 H       1  UNL1        0.1236
     31 C           5.8283    0.1300   21.8705 C.3     1  UNL1        0.0957
     32 C           5.9628   -0.9247   20.8124 C.ar    1  UNL1       -0.0064
     33 C           7.2595   -1.0875   20.0763 C.ar    1  UNL1       -0.0029
     34 C           7.3941   -2.1422   19.0181 C.ar    1  UNL1       -0.0003
     35 C           6.2318   -3.0340   18.6962 C.ar    1  UNL1        0.0038
     36 C           4.9350   -2.8712   19.4323 C.ar    1  UNL1        0.0712
     37 C           4.8005   -1.8165   20.4904 C.ar    1  UNL1        0.0009
     38 C           3.7727   -3.7631   19.1104 C.3     1  UNL1        0.4186
     39 F           2.6104   -4.6549   18.7884 F       1  UNL1       -0.1659
     40 F           4.7043   -4.7425   18.4602 F       1  UNL1       -0.1659
     41 F           2.8410   -2.7836   19.7605 F       1  UNL1       -0.1659
     42 C           3.3940    2.4113   20.0024 C.3     1  UNL1        0.0484
     43 C           3.7282    1.4361   18.9126 C.ar    1  UNL1       -0.0204
     44 C           2.6874    0.4737   18.4223 C.ar    1  UNL1       -0.0042
     45 C           3.0216   -0.5015   17.3327 C.ar    1  UNL1       -0.0003
     46 C           4.3966   -0.5142   16.7334 C.ar    1  UNL1       -0.0000
     47 C           5.4374    0.4483   17.2237 C.ar    1  UNL1       -0.0003
     48 C           5.1032    1.4234   18.3134 C.ar    1  UNL1       -0.0042
@<TRIPOS>BOND
     1    23    24    1
     2    24    21    1
     3    21     6    1
     4     6     7   ar
     5     7     8   ar
     6     8     2    1
     7     2     3    2
     8     2     4   am
     9     4     1    1
    10     1    42    1
    11    42    43    1
    12    43    44   ar
    13    44    45   ar
    14    45    46   ar
    15    46    47   ar
    16    47    48   ar
    17     1    25    1
    18    25    26    1
    19    25    28    1
    20    28    29    1
    21    29    31    1
    22    31    32    1
    23    32    33   ar
    24    33    34   ar
    25    34    35   ar
    26    35    36   ar
    27    36    38    1
    28    38    39    1
    29    38    40    1
    30    38    41    1
    31    36    37   ar
    32     8     9   ar
    33     9    10    1
    34     9    11   ar
    35    11    13    1
    36    13    14    1
    37    14    15    1
    38    15    16    1
    39    16    17    1
    40    17    18    1
    41    18    19    2
    42    18    20    2
    43    11    12   ar
    44    12     6   ar
    45    48    43   ar
    46    37    32   ar
    47    18    13    1
    48    21    22    1
    49     4     5    1
    50    26    27    1
    51    29    30    1
@<TRIPOS>MOLECULE
*****
 48 51 0 0 0
SMALL
GASTEIGER

@<TRIPOS>ATOM
      1 C           1.6854    0.0107   20.2486 C.3     1  UNL1        0.1043
      2 C           1.1458    1.7593   22.0929 C.2     1  UNL1        0.2482
      3 O           2.4600    2.4353   21.8364 O.2     1  UNL1       -0.2701
      4 N           0.7585    0.5470   21.2990 N.am    1  UNL1       -0.2997
      5 H          -0.1041    0.1033   21.4673 H       1  UNL1        0.1498
      6 C          -1.8385    3.7378   23.8044 C.ar    1  UNL1        0.0462
      7 C          -0.9116    3.2015   22.7541 C.ar    1  UNL1        0.0212
      8 C           0.2189    2.2956   23.1432 C.ar    1  UNL1        0.0833
      9 C           0.4224    1.9260   24.5826 C.ar    1  UNL1        0.1592
     10 F           1.5529    1.0201   24.9718 F       1  UNL1       -0.2027
     11 C          -0.5045    2.4623   25.6329 C.ar    1  UNL1        0.0972
     12 C          -1.6350    3.3682   25.2438 C.ar    1  UNL1        0.0327
     13 N          -0.3010    2.0927   27.0724 N.pl3   1  UNL1       -0.1922
     14 C          -0.9643    0.8700   27.6338 C.3     1  UNL1        0.1156
     15 C          -0.7608    0.5004   29.0733 C.3     1  UNL1        0.0252
     16 C           0.1060    1.3535   29.9513 C.3     1  UNL1        0.0292
     17 C           0.7693    2.5762   29.3899 C.3     1  UNL1        0.1727
     18 S           0.5657    2.9458   27.9505 S.O2    1  UNL1        0.0570
     19 O           0.6766    3.7029   26.6603 O.2     1  UNL1       -0.1543
     20 O           1.4710    4.0619   28.3803 O.2     1  UNL1       -0.1543
     21 N          -2.9690    4.6437   23.4153 N.pl3   1  UNL1       -0.3326
     22 H          -2.7988    5.4237   22.8392 H       1  UNL1        0.1468
     23 C          -5.0384    3.0771   23.5310 C.3     1  UNL1        0.0229
     24 C          -4.3587    4.3612   23.9040 C.3     1  UNL1        0.0871
     25 C           1.7573    0.6712   18.9037 C.3     1  UNL1        0.1443
     26 O           0.5019    1.1435   18.2321 O.3     1  UNL1       -0.3813
     27 H          -0.2611    0.9466   18.7976 H       1  UNL1        0.2105
     28 C           3.0844    0.8594   18.2306 C.3     1  UNL1        0.1001
     29 N           3.5633   -0.1436   17.2233 N.3     1  UNL1       -0.2917
     30 H           3.3724    0.2502   16.3019 H       1  UNL1        0.1236
     31 C           4.9996   -0.5764   17.2201 C.3     1  UNL1        0.0957
     32 C           5.4681   -1.6280   18.1816 C.ar    1  UNL1       -0.0064
     33 C           6.7619   -1.4473   18.9187 C.ar    1  UNL1       -0.0029
     34 C           7.2306   -2.4990   19.8802 C.ar    1  UNL1       -0.0003
     35 C           6.4053   -3.7313   20.1046 C.ar    1  UNL1        0.0038
     36 C           5.1115   -3.9120   19.3674 C.ar    1  UNL1        0.0712
     37 C           4.6429   -2.8603   18.4059 C.ar    1  UNL1        0.0009
     38 C           4.2862   -5.1443   19.5918 C.3     1  UNL1        0.4186
     39 F           3.4610   -6.3766   19.8161 F       1  UNL1       -0.1659
     40 F           3.9114   -4.6450   20.9557 F       1  UNL1       -0.1659
     41 F           4.6610   -5.6436   18.2279 F       1  UNL1       -0.1659
     42 C           2.5404   -1.1860   20.5431 C.3     1  UNL1        0.0484
     43 C           3.7114   -1.0608   21.4722 C.ar    1  UNL1       -0.0204
     44 C           4.6838    0.0690   21.3052 C.ar    1  UNL1       -0.0042
     45 C           5.8547    0.1943   22.2342 C.ar    1  UNL1       -0.0003
     46 C           6.0534   -0.8104   23.3302 C.ar    1  UNL1       -0.0000
     47 C           5.0810   -1.9403   23.4971 C.ar    1  UNL1       -0.0003
     48 C           3.9100   -2.0655   22.5681 C.ar    1  UNL1       -0.0042
@<TRIPOS>BOND
     1    23    24    1
     2    24    21    1
     3    21     6    1
     4     6     7   ar
     5     7     8   ar
     6     8     2    1
     7     2     3    2
     8     2     4   am
     9     4     1    1
    10     1    42    1
    11    42    43    1
    12    43    44   ar
    13    44    45   ar
    14    45    46   ar
    15    46    47   ar
    16    47    48   ar
    17     1    25    1
    18    25    26    1
    19    25    28    1
    20    28    29    1
    21    29    31    1
    22    31    32    1
    23    32    33   ar
    24    33    34   ar
    25    34    35   ar
    26    35    36   ar
    27    36    38    1
    28    38    39    1
    29    38    40    1
    30    38    41    1
    31    36    37   ar
    32     8     9   ar
    33     9    10    1
    34     9    11   ar
    35    11    13    1
    36    13    14    1
    37    14    15    1
    38    15    16    1
    39    16    17    1
    40    17    18    1
    41    18    19    2
    42    18    20    2
    43    11    12   ar
    44    12     6   ar
    45    48    43   ar
    46    37    32   ar
    47    18    13    1
    48    21    22    1
    49     4     5    1
    50    26    27    1
    51    29    30    1
@<TRIPOS>MOLECULE
*****
 48 51 0 0 0
SMALL
GASTEIGER

@<TRIPOS>ATOM
      1 C           3.4765   -0.5764   23.4157 C.3     1  UNL1        0.1043
      2 C           1.8717    1.3080   24.2055 C.2     1  UNL1        0.2482
      3 O           2.4677    2.2401   23.1926 O.2     1  UNL1       -0.2701
      4 N           2.3761   -0.1003   24.3171 N.am    1  UNL1       -0.2997
      5 H           1.9850   -0.7120   24.9819 H       1  UNL1        0.1498
      6 C          -0.2994    1.9245   27.4699 C.ar    1  UNL1        0.0462
      7 C           0.8010    1.4484   26.5685 C.ar    1  UNL1        0.0212
      8 C           0.7713    1.7841   25.1069 C.ar    1  UNL1        0.0833
      9 C          -0.3588    2.5958   24.5466 C.ar    1  UNL1        0.1592
     10 F          -0.3885    2.9315   23.0850 F       1  UNL1       -0.2027
     11 C          -1.4591    3.0719   25.4480 C.ar    1  UNL1        0.0972
     12 C          -1.4294    2.7362   26.9096 C.ar    1  UNL1        0.0327
     13 N          -2.5893    3.8837   24.8877 N.pl3   1  UNL1       -0.1922
     14 C          -3.8342    3.2018   24.4028 C.3     1  UNL1        0.1156
     15 C          -4.9643    4.0136   23.8425 C.3     1  UNL1        0.0252
     16 C          -4.8495    5.5073   23.7672 C.3     1  UNL1        0.0292
     17 C          -3.6045    6.1892   24.2522 C.3     1  UNL1        0.1727
     18 S          -2.4745    5.3774   24.8125 S.O2    1  UNL1        0.0570
     19 O          -1.1441    5.0441   25.4198 O.2     1  UNL1       -0.1543
     20 O          -1.8975    6.7553   24.9482 O.2     1  UNL1       -0.1543
     21 N          -0.2696    1.5888   28.9316 N.pl3   1  UNL1       -0.3326
     22 H           0.3290    2.0821   29.5379 H       1  UNL1        0.1468
     23 C          -1.4402   -0.7117   28.6359 C.3     1  UNL1        0.0229
     24 C          -1.1520    0.5016   29.4695 C.3     1  UNL1        0.0871
     25 C           4.9064   -0.2739   23.7534 C.3     1  UNL1        0.1443
     26 O           5.3466    1.1468   23.9481 O.3     1  UNL1       -0.3813
     27 H           4.5899    1.7401   23.8208 H       1  UNL1        0.2105
     28 C           5.8960   -1.3920   23.8964 C.3     1  UNL1        0.1001
     29 N           7.1346   -1.4100   23.0506 N.3     1  UNL1       -0.2917
     30 H           7.9266   -1.3143   23.6861 H       1  UNL1        0.1236
     31 C           7.4252   -2.5900   22.1712 C.3     1  UNL1        0.0957
     32 C           6.7747   -2.6997   20.8240 C.ar    1  UNL1       -0.0064
     33 C           7.3810   -2.0068   19.6399 C.ar    1  UNL1       -0.0029
     34 C           6.7306   -2.1164   18.2927 C.ar    1  UNL1       -0.0003
     35 C           5.4739   -2.9190   18.1296 C.ar    1  UNL1        0.0038
     36 C           4.8676   -3.6120   19.3139 C.ar    1  UNL1        0.0712
     37 C           5.5181   -3.5023   20.6610 C.ar    1  UNL1        0.0009
     38 C           3.6110   -4.4146   19.1509 C.3     1  UNL1        0.4186
     39 F           2.3543   -5.2172   18.9879 F       1  UNL1       -0.1659
     40 F           4.4289   -5.6598   18.9762 F       1  UNL1       -0.1659
     41 F           2.7930   -3.1694   19.3256 F       1  UNL1       -0.1659
     42 C           3.1471   -1.3551   22.1767 C.3     1  UNL1        0.0484
     43 C           2.8239   -0.6341   20.9016 C.ar    1  UNL1       -0.0204
     44 C           1.3940   -0.4312   20.4965 C.ar    1  UNL1       -0.0042
     45 C           1.0708    0.2897   19.2214 C.ar    1  UNL1       -0.0003
     46 C           2.1775    0.8076   18.3515 C.ar    1  UNL1       -0.0000
     47 C           3.6075    0.6047   18.7566 C.ar    1  UNL1       -0.0003
     48 C           3.9306   -0.1162   20.0317 C.ar    1  UNL1       -0.0042
@<TRIPOS>BOND
     1    23    24    1
     2    24    21    1
     3    21     6    1
     4     6     7   ar
     5     7     8   ar
     6     8     2    1
     7     2     3    2
     8     2     4   am
     9     4     1    1
    10     1    42    1
    11    42    43    1
    12    43    44   ar
    13    44    45   ar
    14    45    46   ar
    15    46    47   ar
    16    47    48   ar
    17     1    25    1
    18    25    26    1
    19    25    28    1
    20    28    29    1
    21    29    31    1
    22    31    32    1
    23    32    33   ar
    24    33    34   ar
    25    34    35   ar
    26    35    36   ar
    27    36    38    1
    28    38    39    1
    29    38    40    1
    30    38    41    1
    31    36    37   ar
    32     8     9   ar
    33     9    10    1
    34     9    11   ar
    35    11    13    1
    36    13    14    1
    37    14    15    1
    38    15    16    1
    39    16    17    1
    40    17    18    1
    41    18    19    2
    42    18    20    2
    43    11    12   ar
    44    12     6   ar
    45    48    43   ar
    46    37    32   ar
    47    18    13    1
    48    21    22    1
    49     4     5    1
    50    26    27    1
    51    29    30    1
@<TRIPOS>MOLECULE
*****
 48 51 0 0 0
SMALL
GASTEIGER

@<TRIPOS>ATOM
      1 C           3.7382   -0.7189   23.5406 C.3     1  UNL1        0.1043
      2 C           2.2219    1.3105   24.1170 C.2     1  UNL1        0.2482
      3 O           2.8680    2.1047   23.0208 O.2     1  UNL1       -0.2701
      4 N           2.6570   -0.1013   24.3769 N.am    1  UNL1       -0.2997
      5 H           2.2329   -0.6226   25.0964 H       1  UNL1        0.1498
      6 C          -1.2605    2.8967   25.1693 C.ar    1  UNL1        0.0462
      7 C          -0.1792    2.2791   24.3330 C.ar    1  UNL1        0.0212
      8 C           1.1406    1.9281   24.9534 C.ar    1  UNL1        0.0833
      9 C           1.3791    2.1946   26.4101 C.ar    1  UNL1        0.1592
     10 F           2.6989    1.8435   27.0305 F       1  UNL1       -0.2027
     11 C           0.2979    2.8121   27.2464 C.ar    1  UNL1        0.0972
     12 C          -1.0219    3.1632   26.6260 C.ar    1  UNL1        0.0327
     13 N           0.5364    3.0786   28.7032 N.pl3   1  UNL1       -0.1922
     14 C           0.9148    4.4558   29.1616 C.3     1  UNL1        0.1156
     15 C           1.1533    4.7223   30.6184 C.3     1  UNL1        0.0252
     16 C           1.0133    3.6116   31.6167 C.3     1  UNL1        0.0292
     17 C           0.6349    2.2344   31.1583 C.3     1  UNL1        0.1727
     18 S           0.3964    1.9679   29.7016 S.O2    1  UNL1        0.0570
     19 O           0.0699    1.2263   28.4393 O.2     1  UNL1       -0.1543
     20 O           0.1430    0.5996   30.2615 O.2     1  UNL1       -0.1543
     21 N          -2.5803    3.2478   24.5489 N.pl3   1  UNL1       -0.3326
     22 H          -2.8997    2.7544   23.7592 H       1  UNL1        0.1468
     23 C          -4.6531    4.0229   25.9100 C.3     1  UNL1        0.0229
     24 C          -3.4133    4.3506   25.1318 C.3     1  UNL1        0.0871
     25 C           5.1756   -0.5677   23.9420 C.3     1  UNL1        0.1443
     26 O           5.5232    0.0058   25.2838 O.3     1  UNL1       -0.3813
     27 H           4.7086    0.2248   25.7627 H       1  UNL1        0.2105
     28 C           6.2653   -0.9900   23.0018 C.3     1  UNL1        0.1001
     29 N           7.0900   -2.2052   23.3069 N.3     1  UNL1       -0.2917
     30 H           6.5355   -2.7873   23.9347 H       1  UNL1        0.1236
     31 C           7.5575   -3.0936   22.1923 C.3     1  UNL1        0.0957
     32 C           6.8944   -3.0232   20.8487 C.ar    1  UNL1       -0.0064
     33 C           7.5519   -2.2764   19.7262 C.ar    1  UNL1       -0.0029
     34 C           6.8889   -2.2059   18.3825 C.ar    1  UNL1       -0.0003
     35 C           5.5684   -2.8822   18.1614 C.ar    1  UNL1        0.0038
     36 C           4.9109   -3.6290   19.2839 C.ar    1  UNL1        0.0712
     37 C           5.5740   -3.6995   20.6276 C.ar    1  UNL1        0.0009
     38 C           3.5904   -4.3053   19.0628 C.3     1  UNL1        0.4186
     39 F           2.2700   -4.9816   18.8416 F       1  UNL1       -0.1659
     40 F           2.9367   -2.9681   18.8769 F       1  UNL1       -0.1659
     41 F           4.2442   -5.6425   19.2486 F       1  UNL1       -0.1659
     42 C           3.3821   -1.4877   22.3028 C.3     1  UNL1        0.0484
     43 C           3.0086   -0.7566   21.0473 C.ar    1  UNL1       -0.0204
     44 C           1.5661   -0.6215   20.6590 C.ar    1  UNL1       -0.0042
     45 C           1.1926    0.1095   19.4036 C.ar    1  UNL1       -0.0003
     46 C           2.2617    0.7054   18.5365 C.ar    1  UNL1       -0.0000
     47 C           3.7042    0.5702   18.9247 C.ar    1  UNL1       -0.0003
     48 C           4.0777   -0.1608   20.1801 C.ar    1  UNL1       -0.0042
@<TRIPOS>BOND
     1    23    24    1
     2    24    21    1
     3    21     6    1
     4     6     7   ar
     5     7     8   ar
     6     8     2    1
     7     2     3    2
     8     2     4   am
     9     4     1    1
    10     1    42    1
    11    42    43    1
    12    43    44   ar
    13    44    45   ar
    14    45    46   ar
    15    46    47   ar
    16    47    48   ar
    17     1    25    1
    18    25    26    1
    19    25    28    1
    20    28    29    1
    21    29    31    1
    22    31    32    1
    23    32    33   ar
    24    33    34   ar
    25    34    35   ar
    26    35    36   ar
    27    36    38    1
    28    38    39    1
    29    38    40    1
    30    38    41    1
    31    36    37   ar
    32     8     9   ar
    33     9    10    1
    34     9    11   ar
    35    11    13    1
    36    13    14    1
    37    14    15    1
    38    15    16    1
    39    16    17    1
    40    17    18    1
    41    18    19    2
    42    18    20    2
    43    11    12   ar
    44    12     6   ar
    45    48    43   ar
    46    37    32   ar
    47    18    13    1
    48    21    22    1
    49     4     5    1
    50    26    27    1
    51    29    30    1
@<TRIPOS>MOLECULE
*****
 48 51 0 0 0
SMALL
GASTEIGER

@<TRIPOS>ATOM
      1 C           7.1184   -3.5518   25.7266 C.3     1  UNL1        0.1043
      2 C           6.0003   -1.7347   27.2090 C.2     1  UNL1        0.2482
      3 O           7.0910   -0.7699   26.8491 O.2     1  UNL1       -0.2701
      4 N           6.0141   -3.1256   26.6478 N.am    1  UNL1       -0.2997
      5 H           5.2982   -3.7589   26.8841 H       1  UNL1        0.1498
      6 C           2.4270   -0.5898   28.5014 C.ar    1  UNL1        0.0462
      7 C           3.5314   -1.0159   27.5803 C.ar    1  UNL1        0.0212
      8 C           4.8959   -1.3085   28.1303 C.ar    1  UNL1        0.0833
      9 C           5.1560   -1.1749   29.6015 C.ar    1  UNL1        0.1592
     10 F           6.5204   -1.4675   30.1515 F       1  UNL1       -0.2027
     11 C           4.0515   -0.7488   30.5227 C.ar    1  UNL1        0.0972
     12 C           2.6870   -0.4562   29.9726 C.ar    1  UNL1        0.0327
     13 N           4.3116   -0.6152   31.9940 N.pl3   1  UNL1       -0.1922
     14 C           4.1757   -1.8096   32.8911 C.3     1  UNL1        0.1156
     15 C           4.4358   -1.6760   34.3624 C.3     1  UNL1        0.0252
     16 C           4.8316   -0.3480   34.9364 C.3     1  UNL1        0.0292
     17 C           4.9675    0.8465   34.0393 C.3     1  UNL1        0.1727
     18 S           4.7074    0.7128   32.5681 S.O2    1  UNL1        0.0570
     19 O           4.5681    1.0854   31.1218 O.2     1  UNL1       -0.1543
     20 O           5.0549    2.1703   32.6398 O.2     1  UNL1       -0.1543
     21 N           1.0625   -0.2972   27.9514 N.pl3   1  UNL1       -0.3326
     22 H           0.8881   -0.3983   26.9878 H       1  UNL1        0.1468
     23 C          -1.3648   -0.5466   28.8437 C.3     1  UNL1        0.0229
     24 C          -0.0364    0.1495   28.8696 C.3     1  UNL1        0.0871
     25 C           6.9790   -3.3533   24.2463 C.3     1  UNL1        0.1443
     26 O           6.9315   -4.5410   23.3314 O.3     1  UNL1       -0.3813
     27 H           7.0027   -5.3549   23.8543 H       1  UNL1        0.2105
     28 C           6.8870   -1.9670   23.6809 C.3     1  UNL1        0.1001
     29 N           5.6495   -1.1482   23.9001 N.3     1  UNL1       -0.2917
     30 H           5.7342   -0.3222   23.3078 H       1  UNL1        0.1236
     31 C           4.2993   -1.7414   23.6256 C.3     1  UNL1        0.0957
     32 C           3.8219   -1.8971   22.2122 C.ar    1  UNL1       -0.0064
     33 C           2.8623   -0.9015   21.6308 C.ar    1  UNL1       -0.0029
     34 C           2.3848   -1.0572   20.2173 C.ar    1  UNL1       -0.0003
     35 C           2.8669   -2.2084   19.3853 C.ar    1  UNL1        0.0038
     36 C           3.8265   -3.2040   19.9668 C.ar    1  UNL1        0.0712
     37 C           4.3040   -3.0483   21.3802 C.ar    1  UNL1        0.0009
     38 C           4.3086   -4.3552   19.1348 C.3     1  UNL1        0.4186
     39 F           4.7907   -5.5065   18.3028 F       1  UNL1       -0.1659
     40 F           5.0557   -3.4025   18.2494 F       1  UNL1       -0.1659
     41 F           3.5615   -5.3080   20.0203 F       1  UNL1       -0.1659
     42 C           8.3623   -4.1766   26.2856 C.3     1  UNL1        0.0484
     43 C           8.3718   -5.6314   26.6510 C.ar    1  UNL1       -0.0204
     44 C           8.3812   -6.6752   25.5737 C.ar    1  UNL1       -0.0042
     45 C           8.3907   -8.1300   25.9391 C.ar    1  UNL1       -0.0003
     46 C           8.3908   -8.5410   27.3816 C.ar    1  UNL1       -0.0000
     47 C           8.3814   -7.4972   28.4589 C.ar    1  UNL1       -0.0003
     48 C           8.3719   -6.0424   28.0935 C.ar    1  UNL1       -0.0042
@<TRIPOS>BOND
     1    23    24    1
     2    24    21    1
     3    21     6    1
     4     6     7   ar
     5     7     8   ar
     6     8     2    1
     7     2     3    2
     8     2     4   am
     9     4     1    1
    10     1    42    1
    11    42    43    1
    12    43    44   ar
    13    44    45   ar
    14    45    46   ar
    15    46    47   ar
    16    47    48   ar
    17     1    25    1
    18    25    26    1
    19    25    28    1
    20    28    29    1
    21    29    31    1
    22    31    32    1
    23    32    33   ar
    24    33    34   ar
    25    34    35   ar
    26    35    36   ar
    27    36    38    1
    28    38    39    1
    29    38    40    1
    30    38    41    1
    31    36    37   ar
    32     8     9   ar
    33     9    10    1
    34     9    11   ar
    35    11    13    1
    36    13    14    1
    37    14    15    1
    38    15    16    1
    39    16    17    1
    40    17    18    1
    41    18    19    2
    42    18    20    2
    43    11    12   ar
    44    12     6   ar
    45    48    43   ar
    46    37    32   ar
    47    18    13    1
    48    21    22    1
    49     4     5    1
    50    26    27    1
    51    29    30    1
