@<TRIPOS>MOLECULE
*****
 39 43 0 0 0
SMALL
GASTEIGER

@<TRIPOS>ATOM
      1 C         -11.3545  -18.2414   21.9563 C.ar    1  UNL1        0.1399
      2 C         -12.8408  -18.0657   22.0566 C.ar    1  UNL1        0.0554
      3 C         -13.5013  -18.0180   23.4025 C.ar    1  UNL1        0.1047
      4 N         -12.6755  -18.1459   24.6482 N.ar    1  UNL1       -0.2119
      5 C         -11.1891  -18.3215   24.5479 C.ar    1  UNL1        0.2218
      6 N         -10.5286  -18.3693   23.2020 N.ar    1  UNL1       -0.1983
      7 N         -10.6941  -18.2891   20.6104 N.pl3   1  UNL1       -0.2705
      8 C         -11.4400  -17.8313   19.3923 C.3     1  UNL1        0.1187
      9 C          -4.2433  -21.0669   19.4684 C.3     1  UNL1        0.0518
     10 C          -5.0138  -20.1247   20.3451 C.ar    1  UNL1        0.0578
     11 C          -6.4748  -19.8061   20.2271 C.ar    1  UNL1        0.0326
     12 C          -7.5335  -20.2864   19.2793 C.ar    1  UNL1        0.0040
     13 C          -8.9399  -19.7808   19.4071 C.ar    1  UNL1        0.0150
     14 C          -9.2876  -18.7948   20.4827 C.ar    1  UNL1        0.0543
     15 C          -8.2289  -18.3145   21.4305 C.ar    1  UNL1        0.0357
     16 C          -6.8225  -18.8201   21.3027 C.ar    1  UNL1        0.1033
     17 N          -5.5764  -18.5294   22.0854 N.ar    1  UNL1       -0.1692
     18 N          -4.4585  -19.3356   21.4936 N.ar    1  UNL1       -0.2504
     19 C          -3.0353  -19.3503   21.9670 C.3     1  UNL1        0.1534
     20 C          -2.0289  -18.4271   21.3466 C.ar    1  UNL1        0.0021
     21 C          -1.0178  -18.9627   20.3766 C.ar    1  UNL1       -0.0023
     22 C          -0.0114  -18.0395   19.7561 C.ar    1  UNL1       -0.0003
     23 C          -0.0161  -16.5808   20.1056 C.ar    1  UNL1       -0.0000
     24 C          -1.0272  -16.0452   21.0755 C.ar    1  UNL1       -0.0003
     25 C          -2.0337  -16.9684   21.6960 C.ar    1  UNL1       -0.0023
     26 N         -10.3633  -18.4495   25.7936 N.pl3   1  UNL1       -0.2825
     27 H         -10.5372  -19.1834   26.4263 H       1  UNL1        0.1551
     28 C          -9.2724  -17.4591   26.0752 C.ar    1  UNL1        0.0518
     29 C          -8.9811  -17.0457   27.4873 C.ar    1  UNL1        0.0148
     30 C          -7.8902  -16.0554   27.7690 C.ar    1  UNL1        0.0026
     31 C          -7.0907  -15.4785   26.6385 C.ar    1  UNL1        0.0200
     32 C          -7.3821  -15.8920   25.2264 C.ar    1  UNL1        0.1229
     33 C          -8.4729  -16.8823   24.9447 C.ar    1  UNL1        0.0346
     34 S          -6.5826  -15.3151   24.0958 S.O2    1  UNL1        0.0572
     35 N          -5.7831  -14.7383   22.9654 N.3     1  UNL1       -0.2035
     36 O          -5.4287  -15.0892   25.0272 O.2     1  UNL1       -0.1532
     37 O          -7.7364  -15.5411   23.1645 O.2     1  UNL1       -0.1532
     38 H          -4.8620  -14.4627   23.3063 H       1  UNL1        0.1442
     39 H          -6.2651  -13.9215   22.5901 H       1  UNL1        0.1442
@<TRIPOS>BOND
     1     9    10    1
     2    10    11   ar
     3    11    12   ar
     4    12    13   ar
     5    13    14   ar
     6    14     7    1
     7     7     8    1
     8     7     1    1
     9     1     2   ar
    10     2     3   ar
    11     3     4   ar
    12     4     5   ar
    13     5    26    1
    14    26    28    1
    15    28    29   ar
    16    29    30   ar
    17    30    31   ar
    18    31    32   ar
    19    32    34    1
    20    34    35    1
    21    34    36    2
    22    34    37    2
    23    32    33   ar
    24     5     6   ar
    25    14    15   ar
    26    15    16   ar
    27    16    17   ar
    28    17    18   ar
    29    18    19    1
    30    19    20    1
    31    20    21   ar
    32    21    22   ar
    33    22    23   ar
    34    23    24   ar
    35    24    25   ar
    36    18    10   ar
    37    25    20   ar
    38    16    11   ar
    39     6     1   ar
    40    33    28   ar
    41    26    27    1
    42    35    38    1
    43    35    39    1
@<TRIPOS>MOLECULE
*****
 39 43 0 0 0
SMALL
GASTEIGER

@<TRIPOS>ATOM
      1 C         -10.9963   -4.1204   17.9545 C.ar    1  UNL1        0.1399
      2 C          -9.7512   -4.3407   18.7615 C.ar    1  UNL1        0.0554
      3 C          -9.4095   -5.7161   19.2528 C.ar    1  UNL1        0.1047
      4 N         -10.3128   -6.8713   18.9372 N.ar    1  UNL1       -0.2119
      5 C         -11.5579   -6.6510   18.1302 C.ar    1  UNL1        0.2218
      6 N         -11.8997   -5.2756   17.6388 N.ar    1  UNL1       -0.1983
      7 N         -11.3380   -2.7450   17.4631 N.pl3   1  UNL1       -0.2705
      8 C         -10.4903   -2.0919   16.4121 C.3     1  UNL1        0.1187
      9 C         -17.2649    0.0590   20.2275 C.3     1  UNL1        0.0518
     10 C         -15.9302    0.4015   19.6348 C.ar    1  UNL1        0.0578
     11 C         -14.9067   -0.5782   19.1423 C.ar    1  UNL1        0.0326
     12 C         -14.8952   -2.0773   19.0912 C.ar    1  UNL1        0.0040
     13 C         -13.7057   -2.7995   18.5315 C.ar    1  UNL1        0.0150
     14 C         -12.5276   -2.0227   18.0228 C.ar    1  UNL1        0.0543
     15 C         -12.5391   -0.5236   18.0739 C.ar    1  UNL1        0.0357
     16 C         -13.7286    0.1986   18.6336 C.ar    1  UNL1        0.1033
     17 N         -14.0241    1.6584   18.8119 N.ar    1  UNL1       -0.1692
     18 N         -15.3847    1.7838   19.4306 N.ar    1  UNL1       -0.2504
     19 C         -16.0781    3.0663   19.7833 C.3     1  UNL1        0.1534
     20 C         -16.0209    3.5881   21.1884 C.ar    1  UNL1        0.0021
     21 C         -16.9803    3.0723   22.2197 C.ar    1  UNL1       -0.0023
     22 C         -16.9230    3.5941   23.6248 C.ar    1  UNL1       -0.0003
     23 C         -15.9064    4.6317   23.9987 C.ar    1  UNL1       -0.0000
     24 C         -14.9470    5.1475   22.9675 C.ar    1  UNL1       -0.0003
     25 C         -15.0042    4.6257   21.5623 C.ar    1  UNL1       -0.0023
     26 N         -12.4612   -7.8061   17.8145 N.pl3   1  UNL1       -0.2825
     27 H         -12.1369   -8.5448   17.2503 H       1  UNL1        0.1551
     28 C         -13.8588   -7.8358   18.3586 C.ar    1  UNL1        0.0518
     29 C         -14.4577   -6.5970   18.9557 C.ar    1  UNL1        0.0148
     30 C         -15.8552   -6.6267   19.4997 C.ar    1  UNL1        0.0026
     31 C         -16.6539   -7.8953   19.4467 C.ar    1  UNL1        0.0200
     32 C         -16.0550   -9.1341   18.8496 C.ar    1  UNL1        0.1229
     33 C         -14.6574   -9.1044   18.3056 C.ar    1  UNL1        0.0346
     34 S         -16.8536  -10.4028   18.7966 S.O2    1  UNL1        0.0572
     35 N         -17.6523  -11.6713   18.7436 N.3     1  UNL1       -0.2035
     36 O         -18.0559   -9.6673   19.3099 O.2     1  UNL1       -0.1532
     37 O         -15.6514  -11.1382   18.2833 O.2     1  UNL1       -0.1532
     38 H         -18.6041  -11.4873   19.0607 H       1  UNL1        0.1442
     39 H         -17.2213  -12.3700   19.3490 H       1  UNL1        0.1442
@<TRIPOS>BOND
     1     9    10    1
     2    10    11   ar
     3    11    12   ar
     4    12    13   ar
     5    13    14   ar
     6    14     7    1
     7     7     8    1
     8     7     1    1
     9     1     2   ar
    10     2     3   ar
    11     3     4   ar
    12     4     5   ar
    13     5    26    1
    14    26    28    1
    15    28    29   ar
    16    29    30   ar
    17    30    31   ar
    18    31    32   ar
    19    32    34    1
    20    34    35    1
    21    34    36    2
    22    34    37    2
    23    32    33   ar
    24     5     6   ar
    25    14    15   ar
    26    15    16   ar
    27    16    17   ar
    28    17    18   ar
    29    18    19    1
    30    19    20    1
    31    20    21   ar
    32    21    22   ar
    33    22    23   ar
    34    23    24   ar
    35    24    25   ar
    36    18    10   ar
    37    25    20   ar
    38    16    11   ar
    39     6     1   ar
    40    33    28   ar
    41    26    27    1
    42    35    38    1
    43    35    39    1
@<TRIPOS>MOLECULE
*****
 39 43 0 0 0
SMALL
GASTEIGER

@<TRIPOS>ATOM
      1 C           6.1779   -3.5499   20.0638 C.ar    1  UNL1        0.1399
      2 C           6.9624   -2.4749   19.3717 C.ar    1  UNL1        0.0554
      3 C           8.4615   -2.4916   19.4194 C.ar    1  UNL1        0.1047
      4 N           9.1762   -3.5834   20.1591 N.ar    1  UNL1       -0.2119
      5 C           8.3918   -4.6585   20.8512 C.ar    1  UNL1        0.2218
      6 N           6.8927   -4.6417   20.8036 N.ar    1  UNL1       -0.1983
      7 N           4.6788   -3.5331   20.0162 N.pl3   1  UNL1       -0.2705
      8 C           3.9401   -4.6038   19.2692 C.3     1  UNL1        0.1187
      9 C           0.6934    1.6861   22.7562 C.3     1  UNL1        0.0518
     10 C           1.8315    0.7547   23.0514 C.ar    1  UNL1        0.0578
     11 C           2.3973   -0.2707   22.1141 C.ar    1  UNL1        0.0326
     12 C           2.0360   -0.6548   20.7099 C.ar    1  UNL1        0.0040
     13 C           2.7965   -1.7423   20.0106 C.ar    1  UNL1        0.0150
     14 C           3.9183   -2.4456   20.7155 C.ar    1  UNL1        0.0543
     15 C           4.2796   -2.0614   22.1197 C.ar    1  UNL1        0.0357
     16 C           3.5192   -0.9740   22.8190 C.ar    1  UNL1        0.1033
     17 N           3.6466   -0.3832   24.1919 N.ar    1  UNL1       -0.1692
     18 N           2.6036    0.6852   24.3355 N.ar    1  UNL1       -0.2504
     19 C           2.3732    1.5348   25.5500 C.3     1  UNL1        0.1534
     20 C           1.5254    1.0203   26.6754 C.ar    1  UNL1        0.0021
     21 C           2.1587    0.2682   27.8083 C.ar    1  UNL1       -0.0023
     22 C           1.3109   -0.2463   28.9337 C.ar    1  UNL1       -0.0003
     23 C          -0.1701   -0.0087   28.9262 C.ar    1  UNL1       -0.0000
     24 C          -0.8034    0.7434   27.7934 C.ar    1  UNL1       -0.0003
     25 C           0.0444    1.2579   26.6680 C.ar    1  UNL1       -0.0023
     26 N           9.1065   -5.7502   21.5909 N.pl3   1  UNL1       -0.2825
     27 H           9.8460   -6.2354   21.1585 H       1  UNL1        0.1551
     28 C           8.6946   -6.1028   22.9895 C.ar    1  UNL1        0.0518
     29 C           9.0217   -7.4554   23.5492 C.ar    1  UNL1        0.0148
     30 C           8.6098   -7.8079   24.9478 C.ar    1  UNL1        0.0026
     31 C           7.8707   -6.8079   25.7866 C.ar    1  UNL1        0.0200
     32 C           7.5436   -5.4553   25.2268 C.ar    1  UNL1        0.1229
     33 C           7.9555   -5.1027   23.8283 C.ar    1  UNL1        0.0346
     34 S           6.8044   -4.4551   26.0656 S.O2    1  UNL1        0.0572
     35 N           6.0654   -3.4551   26.9044 N.3     1  UNL1       -0.2035
     36 O           7.3487   -5.0951   27.3082 O.2     1  UNL1       -0.1532
     37 O           6.2602   -3.8151   24.8230 O.2     1  UNL1       -0.1532
     38 H           6.2468   -3.6387   27.8912 H       1  UNL1        0.1442
     39 H           5.0647   -3.5321   26.7226 H       1  UNL1        0.1442
@<TRIPOS>BOND
     1     9    10    1
     2    10    11   ar
     3    11    12   ar
     4    12    13   ar
     5    13    14   ar
     6    14     7    1
     7     7     8    1
     8     7     1    1
     9     1     2   ar
    10     2     3   ar
    11     3     4   ar
    12     4     5   ar
    13     5    26    1
    14    26    28    1
    15    28    29   ar
    16    29    30   ar
    17    30    31   ar
    18    31    32   ar
    19    32    34    1
    20    34    35    1
    21    34    36    2
    22    34    37    2
    23    32    33   ar
    24     5     6   ar
    25    14    15   ar
    26    15    16   ar
    27    16    17   ar
    28    17    18   ar
    29    18    19    1
    30    19    20    1
    31    20    21   ar
    32    21    22   ar
    33    22    23   ar
    34    23    24   ar
    35    24    25   ar
    36    18    10   ar
    37    25    20   ar
    38    16    11   ar
    39     6     1   ar
    40    33    28   ar
    41    26    27    1
    42    35    38    1
    43    35    39    1
@<TRIPOS>MOLECULE
*****
 39 43 0 0 0
SMALL
GASTEIGER

@<TRIPOS>ATOM
      1 C          -1.1172    3.5642   20.1975 C.ar    1  UNL1        0.1399
      2 C          -1.4252    4.2354   18.8919 C.ar    1  UNL1        0.0554
      3 C          -2.8460    4.3515   18.4251 C.ar    1  UNL1        0.1047
      4 N          -3.9588    3.7964   19.2638 N.ar    1  UNL1       -0.2119
      5 C          -3.6508    3.1251   20.5695 C.ar    1  UNL1        0.2218
      6 N          -2.2300    3.0090   21.0363 N.ar    1  UNL1       -0.1983
      7 N           0.3036    3.4482   20.6643 N.pl3   1  UNL1       -0.2705
      8 C           0.8495    4.4311   21.6571 C.3     1  UNL1        0.1187
      9 C           4.5785   -1.3586   17.6225 C.3     1  UNL1        0.0518
     10 C           3.7187   -1.0964   18.8233 C.ar    1  UNL1        0.0578
     11 C           2.9281    0.1510   19.0862 C.ar    1  UNL1        0.0326
     12 C           2.7620    1.4182   18.3010 C.ar    1  UNL1        0.0040
     13 C           1.8872    2.5172   18.8270 C.ar    1  UNL1        0.0150
     14 C           1.1784    2.3490   20.1383 C.ar    1  UNL1        0.0543
     15 C           1.3445    1.0818   20.9234 C.ar    1  UNL1        0.0357
     16 C           2.2193   -0.0172   20.3974 C.ar    1  UNL1        0.1033
     17 N           2.5718   -1.3685   20.9449 N.ar    1  UNL1       -0.1692
     18 N           3.4985   -2.0355   19.9720 N.ar    1  UNL1       -0.2504
     19 C           4.0995   -3.4016   20.1216 C.3     1  UNL1        0.1534
     20 C           5.1708   -3.6419   21.1436 C.ar    1  UNL1        0.0021
     21 C           6.5743   -3.9368   20.7039 C.ar    1  UNL1       -0.0023
     22 C           7.6456   -4.1771   21.7259 C.ar    1  UNL1       -0.0003
     23 C           7.3135   -4.1225   23.1876 C.ar    1  UNL1       -0.0000
     24 C           5.9101   -3.8277   23.6274 C.ar    1  UNL1       -0.0003
     25 C           4.8387   -3.5874   22.6054 C.ar    1  UNL1       -0.0023
     26 N          -4.7635    2.5699   21.4082 N.pl3   1  UNL1       -0.2825
     27 H          -5.2351    1.7541   21.1229 H       1  UNL1        0.1551
     28 C          -5.1579    3.2577   22.6815 C.ar    1  UNL1        0.0518
     29 C          -4.2499    3.2058   23.8743 C.ar    1  UNL1        0.0148
     30 C          -4.6442    3.8936   25.1476 C.ar    1  UNL1        0.0026
     31 C          -5.9466    4.6333   25.2282 C.ar    1  UNL1        0.0200
     32 C          -6.8547    4.6852   24.0355 C.ar    1  UNL1        0.1229
     33 C          -6.4603    3.9974   22.7621 C.ar    1  UNL1        0.0346
     34 S          -8.1572    5.4249   24.1160 S.O2    1  UNL1        0.0572
     35 N          -9.4596    6.1646   24.1966 N.3     1  UNL1       -0.2035
     36 O          -7.4195    6.6873   24.4508 O.2     1  UNL1       -0.1532
     37 O          -8.8949    4.1625   23.7813 O.2     1  UNL1       -0.1532
     38 H          -9.2819    7.1416   24.4295 H       1  UNL1        0.1442
     39 H         -10.0453    5.7442   24.9181 H       1  UNL1        0.1442
@<TRIPOS>BOND
     1     9    10    1
     2    10    11   ar
     3    11    12   ar
     4    12    13   ar
     5    13    14   ar
     6    14     7    1
     7     7     8    1
     8     7     1    1
     9     1     2   ar
    10     2     3   ar
    11     3     4   ar
    12     4     5   ar
    13     5    26    1
    14    26    28    1
    15    28    29   ar
    16    29    30   ar
    17    30    31   ar
    18    31    32   ar
    19    32    34    1
    20    34    35    1
    21    34    36    2
    22    34    37    2
    23    32    33   ar
    24     5     6   ar
    25    14    15   ar
    26    15    16   ar
    27    16    17   ar
    28    17    18   ar
    29    18    19    1
    30    19    20    1
    31    20    21   ar
    32    21    22   ar
    33    22    23   ar
    34    23    24   ar
    35    24    25   ar
    36    18    10   ar
    37    25    20   ar
    38    16    11   ar
    39     6     1   ar
    40    33    28   ar
    41    26    27    1
    42    35    38    1
    43    35    39    1
@<TRIPOS>MOLECULE
*****
 39 43 0 0 0
SMALL
GASTEIGER

@<TRIPOS>ATOM
      1 C          -1.0620    3.6022   20.0957 C.ar    1  UNL1        0.1399
      2 C          -1.3920    4.2848   18.8015 C.ar    1  UNL1        0.0554
      3 C          -2.8192    4.3913   18.3523 C.ar    1  UNL1        0.1047
      4 N          -3.9164    3.8152   19.1974 N.ar    1  UNL1       -0.2119
      5 C          -3.5864    3.1325   20.4917 C.ar    1  UNL1        0.2218
      6 N          -2.1592    3.0260   20.9409 N.ar    1  UNL1       -0.1983
      7 N           0.3652    3.4956   20.5448 N.pl3   1  UNL1       -0.2705
      8 C           0.9276    4.5045   21.5018 C.3     1  UNL1        0.1187
      9 C           4.6097   -1.3922   17.5909 C.3     1  UNL1        0.0518
     10 C           3.7326   -1.1124   18.7751 C.ar    1  UNL1        0.0578
     11 C           2.9596    0.1493   19.0212 C.ar    1  UNL1        0.0326
     12 C           2.8307    1.4177   18.2309 C.ar    1  UNL1        0.0040
     13 C           1.9659    2.5331   18.7388 C.ar    1  UNL1        0.0150
     14 C           1.2300    2.3801   20.0369 C.ar    1  UNL1        0.0543
     15 C           1.3589    1.1117   20.8272 C.ar    1  UNL1        0.0357
     16 C           2.2237   -0.0037   20.3193 C.ar    1  UNL1        0.1033
     17 N           2.5419   -1.3599   20.8754 N.ar    1  UNL1       -0.1692
     18 N           3.4745   -2.0452   19.9211 N.ar    1  UNL1       -0.2504
     19 C           4.0482   -3.4215   20.0841 C.3     1  UNL1        0.1534
     20 C           5.1478   -3.6631   21.0752 C.ar    1  UNL1        0.0021
     21 C           4.8534   -3.6279   22.5456 C.ar    1  UNL1       -0.0023
     22 C           5.9530   -3.8696   23.5367 C.ar    1  UNL1       -0.0003
     23 C           7.3472   -4.1464   23.0575 C.ar    1  UNL1       -0.0000
     24 C           7.6417   -4.1816   21.5871 C.ar    1  UNL1       -0.0003
     25 C           6.5420   -3.9400   20.5959 C.ar    1  UNL1       -0.0023
     26 N          -4.6836    2.5564   21.3368 N.pl3   1  UNL1       -0.2825
     27 H          -4.9227    1.6052   21.2517 H       1  UNL1        0.1551
     28 C          -5.4167    3.4296   22.3116 C.ar    1  UNL1        0.0518
     29 C          -6.6676    4.1407   21.8880 C.ar    1  UNL1        0.0148
     30 C          -7.4007    5.0139   22.8628 C.ar    1  UNL1        0.0026
     31 C          -6.8827    5.1761   24.2611 C.ar    1  UNL1        0.0200
     32 C          -5.6318    4.4650   24.6847 C.ar    1  UNL1        0.1229
     33 C          -4.8988    3.5918   23.7099 C.ar    1  UNL1        0.0346
     34 S          -5.1138    4.6271   26.0831 S.O2    1  UNL1        0.0572
     35 N          -4.5958    4.7892   27.4814 N.3     1  UNL1       -0.2035
     36 O          -3.9609    3.7233   25.7608 O.2     1  UNL1       -0.1532
     37 O          -6.2667    5.5309   26.4054 O.2     1  UNL1       -0.1532
     38 H          -3.7393    4.2465   27.5918 H       1  UNL1        0.1442
     39 H          -5.2965    4.4571   28.1442 H       1  UNL1        0.1442
@<TRIPOS>BOND
     1     9    10    1
     2    10    11   ar
     3    11    12   ar
     4    12    13   ar
     5    13    14   ar
     6    14     7    1
     7     7     8    1
     8     7     1    1
     9     1     2   ar
    10     2     3   ar
    11     3     4   ar
    12     4     5   ar
    13     5    26    1
    14    26    28    1
    15    28    29   ar
    16    29    30   ar
    17    30    31   ar
    18    31    32   ar
    19    32    34    1
    20    34    35    1
    21    34    36    2
    22    34    37    2
    23    32    33   ar
    24     5     6   ar
    25    14    15   ar
    26    15    16   ar
    27    16    17   ar
    28    17    18   ar
    29    18    19    1
    30    19    20    1
    31    20    21   ar
    32    21    22   ar
    33    22    23   ar
    34    23    24   ar
    35    24    25   ar
    36    18    10   ar
    37    25    20   ar
    38    16    11   ar
    39     6     1   ar
    40    33    28   ar
    41    26    27    1
    42    35    38    1
    43    35    39    1
@<TRIPOS>MOLECULE
*****
 39 43 0 0 0
SMALL
GASTEIGER

@<TRIPOS>ATOM
      1 C           6.1592   -3.5430   20.2624 C.ar    1  UNL1        0.1399
      2 C           7.0658   -2.6305   19.4908 C.ar    1  UNL1        0.0554
      3 C           8.5533   -2.7410   19.6498 C.ar    1  UNL1        0.1047
      4 N           9.1341   -3.7639   20.5804 N.ar    1  UNL1       -0.2119
      5 C           8.2275   -4.6765   21.3521 C.ar    1  UNL1        0.2218
      6 N           6.7401   -4.5660   21.1931 N.ar    1  UNL1       -0.1983
      7 N           4.6718   -3.4325   20.1034 N.pl3   1  UNL1       -0.2705
      8 C           3.9376   -4.4000   19.2232 C.3     1  UNL1        0.1187
      9 C           0.7217    1.7575   22.9482 C.3     1  UNL1        0.0518
     10 C           1.8523    0.8115   23.2251 C.ar    1  UNL1        0.0578
     11 C           2.4118   -0.1981   22.2671 C.ar    1  UNL1        0.0326
     12 C           2.0497   -0.5496   20.8545 C.ar    1  UNL1        0.0040
     13 C           2.8030   -1.6277   20.1334 C.ar    1  UNL1        0.0150
     14 C           3.9184   -2.3543   20.8247 C.ar    1  UNL1        0.0543
     15 C           4.2805   -2.0028   22.2372 C.ar    1  UNL1        0.0357
     16 C           3.5272   -0.9246   22.9584 C.ar    1  UNL1        0.1033
     17 N           3.6571   -0.3641   24.3437 N.ar    1  UNL1       -0.1692
     18 N           2.6219    0.7089   24.5085 N.ar    1  UNL1       -0.2504
     19 C           2.3961    1.5343   25.7404 C.3     1  UNL1        0.1534
     20 C           1.4838    1.0346   26.8212 C.ar    1  UNL1        0.0021
     21 C           0.0123    1.3172   26.7507 C.ar    1  UNL1       -0.0023
     22 C          -0.8999    0.8175   27.8315 C.ar    1  UNL1       -0.0003
     23 C          -0.3408    0.0352   28.9827 C.ar    1  UNL1       -0.0000
     24 C           1.1306   -0.2474   29.0532 C.ar    1  UNL1       -0.0003
     25 C           2.0430    0.2523   27.9724 C.ar    1  UNL1       -0.0023
     26 N           8.8084   -5.6994   22.2827 N.pl3   1  UNL1       -0.2825
     27 H           9.4222   -6.3872   21.9370 H       1  UNL1        0.1551
     28 C           8.4541   -5.6746   23.7401 C.ar    1  UNL1        0.0518
     29 C           8.1889   -4.3669   24.4252 C.ar    1  UNL1        0.0148
     30 C           7.8346   -4.3420   25.8826 C.ar    1  UNL1        0.0026
     31 C           7.7454   -5.6249   26.6547 C.ar    1  UNL1        0.0200
     32 C           8.0106   -6.9326   25.9695 C.ar    1  UNL1        0.1229
     33 C           8.3649   -6.9575   24.5122 C.ar    1  UNL1        0.0346
     34 S           7.9215   -8.2156   26.7417 S.O2    1  UNL1        0.0572
     35 N           7.8323   -9.4985   27.5138 N.3     1  UNL1       -0.2035
     36 O           6.5569   -8.4643   26.1708 O.2     1  UNL1       -0.1532
     37 O           9.2860   -7.9668   27.3126 O.2     1  UNL1       -0.1532
     38 H           6.9372   -9.9487   27.3228 H       1  UNL1        0.1442
     39 H           7.9073   -9.3007   28.5116 H       1  UNL1        0.1442
@<TRIPOS>BOND
     1     9    10    1
     2    10    11   ar
     3    11    12   ar
     4    12    13   ar
     5    13    14   ar
     6    14     7    1
     7     7     8    1
     8     7     1    1
     9     1     2   ar
    10     2     3   ar
    11     3     4   ar
    12     4     5   ar
    13     5    26    1
    14    26    28    1
    15    28    29   ar
    16    29    30   ar
    17    30    31   ar
    18    31    32   ar
    19    32    34    1
    20    34    35    1
    21    34    36    2
    22    34    37    2
    23    32    33   ar
    24     5     6   ar
    25    14    15   ar
    26    15    16   ar
    27    16    17   ar
    28    17    18   ar
    29    18    19    1
    30    19    20    1
    31    20    21   ar
    32    21    22   ar
    33    22    23   ar
    34    23    24   ar
    35    24    25   ar
    36    18    10   ar
    37    25    20   ar
    38    16    11   ar
    39     6     1   ar
    40    33    28   ar
    41    26    27    1
    42    35    38    1
    43    35    39    1
@<TRIPOS>MOLECULE
*****
 39 43 0 0 0
SMALL
GASTEIGER

@<TRIPOS>ATOM
      1 C           3.9531   -2.2103   21.6599 C.ar    1  UNL1        0.1399
      2 C           4.7464   -3.4169   22.0655 C.ar    1  UNL1        0.0554
      3 C           5.3400   -3.4966   23.4407 C.ar    1  UNL1        0.1047
      4 N           5.1404   -2.3697   24.4103 N.ar    1  UNL1       -0.2119
      5 C           4.3471   -1.1629   24.0046 C.ar    1  UNL1        0.2218
      6 N           3.7534   -1.0832   22.6294 N.ar    1  UNL1       -0.1983
      7 N           3.3594   -2.1305   20.2846 N.pl3   1  UNL1       -0.2705
      8 C           3.5456   -3.2644   19.3205 C.3     1  UNL1        0.1187
      9 C           0.1091    3.6963   17.8118 C.3     1  UNL1        0.0518
     10 C           0.0628    2.6538   18.8893 C.ar    1  UNL1        0.0578
     11 C           1.0200    1.5104   19.0515 C.ar    1  UNL1        0.0326
     12 C           2.2199    1.0856   18.2579 C.ar    1  UNL1        0.0040
     13 C           2.9996   -0.1280   18.6689 C.ar    1  UNL1        0.0150
     14 C           2.5796   -0.9169   19.8736 C.ar    1  UNL1        0.0543
     15 C           1.3797   -0.4921   20.6672 C.ar    1  UNL1        0.0357
     16 C           0.5999    0.7215   20.2561 C.ar    1  UNL1        0.1033
     17 N          -0.6169    1.3774   20.8385 N.ar    1  UNL1       -0.1692
     18 N          -0.9489    2.5716   19.9937 N.ar    1  UNL1       -0.2504
     19 C          -2.0919    3.5176   20.2146 C.3     1  UNL1        0.1534
     20 C          -2.8708    3.4667   21.4955 C.ar    1  UNL1        0.0021
     21 C          -2.1747    3.6869   22.8058 C.ar    1  UNL1       -0.0023
     22 C          -2.9535    3.6360   24.0867 C.ar    1  UNL1       -0.0003
     23 C          -4.4285    3.3649   24.0573 C.ar    1  UNL1       -0.0000
     24 C          -5.1247    3.1446   22.7470 C.ar    1  UNL1       -0.0003
     25 C          -4.3458    3.1955   21.4661 C.ar    1  UNL1       -0.0023
     26 N           4.1475   -0.0360   24.9742 N.pl3   1  UNL1       -0.2825
     27 H           4.9261    0.3948   25.3954 H       1  UNL1        0.1551
     28 C           2.7615    0.4347   25.3021 C.ar    1  UNL1        0.0518
     29 C           1.8487    0.9000   24.2066 C.ar    1  UNL1        0.0148
     30 C           0.4627    1.3707   24.5344 C.ar    1  UNL1        0.0026
     31 C          -0.0105    1.3761   25.9578 C.ar    1  UNL1        0.0200
     32 C           0.9023    0.9108   27.0533 C.ar    1  UNL1        0.1229
     33 C           2.2883    0.4401   26.7254 C.ar    1  UNL1        0.0346
     34 S           0.4292    0.9162   28.4768 S.O2    1  UNL1        0.0572
     35 N          -0.0440    0.9215   29.9001 N.3     1  UNL1       -0.2035
     36 O          -0.9897    0.7957   28.0055 O.2     1  UNL1       -0.1532
     37 O           1.8481    1.0366   28.9480 O.2     1  UNL1       -0.1532
     38 H          -1.0609    0.8455   29.9207 H       1  UNL1        0.1442
     39 H           0.2411    1.7915   30.3499 H       1  UNL1        0.1442
@<TRIPOS>BOND
     1     9    10    1
     2    10    11   ar
     3    11    12   ar
     4    12    13   ar
     5    13    14   ar
     6    14     7    1
     7     7     8    1
     8     7     1    1
     9     1     2   ar
    10     2     3   ar
    11     3     4   ar
    12     4     5   ar
    13     5    26    1
    14    26    28    1
    15    28    29   ar
    16    29    30   ar
    17    30    31   ar
    18    31    32   ar
    19    32    34    1
    20    34    35    1
    21    34    36    2
    22    34    37    2
    23    32    33   ar
    24     5     6   ar
    25    14    15   ar
    26    15    16   ar
    27    16    17   ar
    28    17    18   ar
    29    18    19    1
    30    19    20    1
    31    20    21   ar
    32    21    22   ar
    33    22    23   ar
    34    23    24   ar
    35    24    25   ar
    36    18    10   ar
    37    25    20   ar
    38    16    11   ar
    39     6     1   ar
    40    33    28   ar
    41    26    27    1
    42    35    38    1
    43    35    39    1
@<TRIPOS>MOLECULE
*****
 39 43 0 0 0
SMALL
GASTEIGER

@<TRIPOS>ATOM
      1 C         -13.5300   -0.5920   17.2398 C.ar    1  UNL1        0.1399
      2 C         -12.7890    0.1170   16.1452 C.ar    1  UNL1        0.0554
      3 C         -11.3067   -0.0642   16.0036 C.ar    1  UNL1        0.1047
      4 N         -10.5655   -0.9544   16.9564 N.ar    1  UNL1       -0.2119
      5 C         -11.3065   -1.6634   18.0511 C.ar    1  UNL1        0.2218
      6 N         -12.7888   -1.4822   18.1928 N.ar    1  UNL1       -0.1983
      7 N         -15.0123   -0.4108   17.3815 N.pl3   1  UNL1       -0.2705
      8 C         -15.9410   -1.0031   16.3634 C.3     1  UNL1        0.1187
      9 C         -18.0274    2.7032   23.0246 C.3     1  UNL1        0.0518
     10 C         -17.0333    2.9088   21.9203 C.ar    1  UNL1        0.0578
     11 C         -16.6729    1.9097   20.8611 C.ar    1  UNL1        0.0326
     12 C         -17.1504    0.5129   20.5948 C.ar    1  UNL1        0.0040
     13 C         -16.5968   -0.2606   19.4350 C.ar    1  UNL1        0.0150
     14 C         -15.5658    0.3628   18.5414 C.ar    1  UNL1        0.0543
     15 C         -15.0884    1.7596   18.8077 C.ar    1  UNL1        0.0357
     16 C         -15.6419    2.5330   19.9675 C.ar    1  UNL1        0.1033
     17 N         -15.3651    3.9174   20.4745 N.ar    1  UNL1       -0.1692
     18 N         -16.2250    4.1496   21.6814 N.ar    1  UNL1       -0.2504
     19 C         -16.2689    5.4026   22.5048 C.3     1  UNL1        0.1534
     20 C         -15.8123    5.3777   23.9334 C.ar    1  UNL1        0.0021
     21 C         -16.7646    5.7478   25.0317 C.ar    1  UNL1       -0.0023
     22 C         -16.3080    5.7229   26.4603 C.ar    1  UNL1       -0.0003
     23 C         -14.8991    5.3279   26.7906 C.ar    1  UNL1       -0.0000
     24 C         -13.9469    4.9578   25.6923 C.ar    1  UNL1       -0.0003
     25 C         -14.4035    4.9827   24.2637 C.ar    1  UNL1       -0.0023
     26 N         -10.5653   -2.5537   19.0040 N.pl3   1  UNL1       -0.2825
     27 H          -9.9787   -2.1604   19.6899 H       1  UNL1        0.1551
     28 C         -10.7178   -4.0430   18.9118 C.ar    1  UNL1        0.0518
     29 C          -9.5157   -4.9064   18.6677 C.ar    1  UNL1        0.0148
     30 C          -9.6682   -6.3957   18.5755 C.ar    1  UNL1        0.0026
     31 C         -11.0227   -7.0218   18.7274 C.ar    1  UNL1        0.0200
     32 C         -12.2248   -6.1585   18.9715 C.ar    1  UNL1        0.1229
     33 C         -12.0723   -4.6691   19.0637 C.ar    1  UNL1        0.0346
     34 S         -13.5795   -6.7845   19.1235 S.O2    1  UNL1        0.0572
     35 N         -14.9341   -7.4106   19.2754 N.3     1  UNL1       -0.2035
     36 O         -13.1683   -7.8970   18.2052 O.2     1  UNL1       -0.1532
     37 O         -13.9907   -5.6721   20.0418 O.2     1  UNL1       -0.1532
     38 H         -14.9775   -8.2657   18.7211 H       1  UNL1        0.1442
     39 H         -15.6483   -6.7586   18.9511 H       1  UNL1        0.1442
@<TRIPOS>BOND
     1     9    10    1
     2    10    11   ar
     3    11    12   ar
     4    12    13   ar
     5    13    14   ar
     6    14     7    1
     7     7     8    1
     8     7     1    1
     9     1     2   ar
    10     2     3   ar
    11     3     4   ar
    12     4     5   ar
    13     5    26    1
    14    26    28    1
    15    28    29   ar
    16    29    30   ar
    17    30    31   ar
    18    31    32   ar
    19    32    34    1
    20    34    35    1
    21    34    36    2
    22    34    37    2
    23    32    33   ar
    24     5     6   ar
    25    14    15   ar
    26    15    16   ar
    27    16    17   ar
    28    17    18   ar
    29    18    19    1
    30    19    20    1
    31    20    21   ar
    32    21    22   ar
    33    22    23   ar
    34    23    24   ar
    35    24    25   ar
    36    18    10   ar
    37    25    20   ar
    38    16    11   ar
    39     6     1   ar
    40    33    28   ar
    41    26    27    1
    42    35    38    1
    43    35    39    1
@<TRIPOS>MOLECULE
*****
 39 43 0 0 0
SMALL
GASTEIGER

@<TRIPOS>ATOM
      1 C           4.1929   -2.2861   19.1867 C.ar    1  UNL1        0.1399
      2 C           3.5075   -3.6145   19.0619 C.ar    1  UNL1        0.0554
      3 C           4.0291   -4.8014   19.8163 C.ar    1  UNL1        0.1047
      4 N           5.2361   -4.6599   20.6956 N.ar    1  UNL1       -0.2119
      5 C           5.9216   -3.3315   20.8204 C.ar    1  UNL1        0.2218
      6 N           5.4000   -2.1446   20.0659 N.ar    1  UNL1       -0.1983
      7 N           3.6713   -1.0992   18.4322 N.pl3   1  UNL1       -0.2705
      8 C           4.1504   -0.8277   17.0370 C.3     1  UNL1        0.1187
      9 C          -0.9077    2.9486   22.0764 C.3     1  UNL1        0.0518
     10 C          -0.3750    2.6659   20.7029 C.ar    1  UNL1        0.0578
     11 C           0.6693    1.6469   20.3548 C.ar    1  UNL1        0.0326
     12 C           1.4426    0.6748   21.1956 C.ar    1  UNL1        0.0040
     13 C           2.4433   -0.2406   20.5547 C.ar    1  UNL1        0.0150
     14 C           2.6706   -0.1838   19.0731 C.ar    1  UNL1        0.0543
     15 C           1.8973    0.7884   18.2324 C.ar    1  UNL1        0.0357
     16 C           0.8966    1.7037   18.8733 C.ar    1  UNL1        0.1033
     17 N          -0.0072    2.7577   18.3057 N.ar    1  UNL1       -0.1692
     18 N          -0.7932    3.3524   19.4365 N.ar    1  UNL1       -0.2504
     19 C          -1.8174    4.4422   19.3211 C.3     1  UNL1        0.1534
     20 C          -3.2714    4.0949   19.1981 C.ar    1  UNL1        0.0021
     21 C          -4.0717    3.7714   20.4249 C.ar    1  UNL1       -0.0023
     22 C          -5.5257    3.4241   20.3018 C.ar    1  UNL1       -0.0003
     23 C          -6.1795    3.4004   18.9520 C.ar    1  UNL1       -0.0000
     24 C          -5.3793    3.7239   17.7253 C.ar    1  UNL1       -0.0003
     25 C          -3.9252    4.0712   17.8483 C.ar    1  UNL1       -0.0023
     26 N           7.1286   -3.1901   21.6996 N.pl3   1  UNL1       -0.2825
     27 H           7.6334   -2.3449   21.7104 H       1  UNL1        0.1551
     28 C           7.5664   -4.3363   22.5625 C.ar    1  UNL1        0.0518
     29 C           8.5570   -5.3335   22.0389 C.ar    1  UNL1        0.0148
     30 C           8.9949   -6.4797   22.9017 C.ar    1  UNL1        0.0026
     31 C           8.4422   -6.6287   24.2882 C.ar    1  UNL1        0.0200
     32 C           7.4515   -5.6315   24.8117 C.ar    1  UNL1        0.1229
     33 C           7.0137   -4.4853   23.9489 C.ar    1  UNL1        0.0346
     34 S           6.8987   -5.7804   26.1982 S.O2    1  UNL1        0.0572
     35 N           6.3460   -5.9294   27.5847 N.3     1  UNL1       -0.2035
     36 O           7.1207   -7.2622   26.1275 O.2     1  UNL1       -0.1532
     37 O           6.6767   -4.2986   26.2690 O.2     1  UNL1       -0.1532
     38 H           6.3630   -6.9132   27.8536 H       1  UNL1        0.1442
     39 H           5.3852   -5.5876   27.6062 H       1  UNL1        0.1442
@<TRIPOS>BOND
     1     9    10    1
     2    10    11   ar
     3    11    12   ar
     4    12    13   ar
     5    13    14   ar
     6    14     7    1
     7     7     8    1
     8     7     1    1
     9     1     2   ar
    10     2     3   ar
    11     3     4   ar
    12     4     5   ar
    13     5    26    1
    14    26    28    1
    15    28    29   ar
    16    29    30   ar
    17    30    31   ar
    18    31    32   ar
    19    32    34    1
    20    34    35    1
    21    34    36    2
    22    34    37    2
    23    32    33   ar
    24     5     6   ar
    25    14    15   ar
    26    15    16   ar
    27    16    17   ar
    28    17    18   ar
    29    18    19    1
    30    19    20    1
    31    20    21   ar
    32    21    22   ar
    33    22    23   ar
    34    23    24   ar
    35    24    25   ar
    36    18    10   ar
    37    25    20   ar
    38    16    11   ar
    39     6     1   ar
    40    33    28   ar
    41    26    27    1
    42    35    38    1
    43    35    39    1
