@<TRIPOS>MOLECULE
*****
 23 26 0 0 0
SMALL
GASTEIGER

@<TRIPOS>ATOM
      1 C         -10.0195  -16.9319   22.1972 C.3     1  UNL1        0.1127
      2 C         -11.0786  -17.5369   23.0704 C.ar    1  UNL1        0.0104
      3 C         -11.0030  -18.2825   24.3697 C.ar    1  UNL1        0.0555
      4 CL         -9.6722  -18.5318   25.0150 Cl      1  UNL1       -0.0825
      5 C         -12.2584  -18.7789   25.0237 C.ar    1  UNL1        0.0111
      6 C         -13.5893  -18.5296   24.3783 C.ar    1  UNL1        0.0009
      7 C         -13.6649  -17.7840   23.0789 C.ar    1  UNL1        0.0013
      8 C         -12.4096  -17.2876   22.4249 C.ar    1  UNL1        0.0160
      9 C         -12.1730  -16.5286   21.1530 C.ar    1  UNL1        0.0804
     10 C         -12.8494  -15.9055   19.9680 C.ar    1  UNL1        0.1177
     11 N         -11.7903  -15.3005   19.0949 N.ar    1  UNL1       -0.2223
     12 C         -10.4594  -15.5497   19.7402 C.ar    1  UNL1        0.1788
     13 N         -10.6959  -16.3088   21.0122 N.ar    1  UNL1       -0.3069
     14 C          -8.5432  -16.9474   22.4625 C.3     1  UNL1        0.0564
     15 O          -7.5715  -14.5854   21.9862 O.3     1  UNL1       -0.3844
     16 C          -7.8546  -15.7047   22.9438 C.3     1  UNL1        0.1127
     17 H          -7.8956  -14.8249   21.1038 H       1  UNL1        0.2103
     18 C          -7.4492  -15.5814   24.3826 C.3     1  UNL1        0.0270
     19 C          -8.4969  -15.5072   25.4534 C.3     1  UNL1        0.0024
     20 C          -8.0914  -15.3839   26.8923 C.3     1  UNL1        0.0001
     21 C          -6.6382  -15.3347   27.2604 C.3     1  UNL1        0.0000
     22 C          -5.5903  -15.4089   26.1896 C.3     1  UNL1        0.0001
     23 C          -5.9958  -15.5323   24.7507 C.3     1  UNL1        0.0024
@<TRIPOS>BOND
     1    15    16    1
     2    16    14    1
     3    14     1    1
     4     1     2    1
     5     2     3   ar
     6     3     4    1
     7     3     5   ar
     8     5     6   ar
     9     6     7   ar
    10     7     8   ar
    11     8     9    1
    12     9    10   ar
    13    10    11   ar
    14    11    12   ar
    15    12    13   ar
    16    16    18    1
    17    18    19    1
    18    19    20    1
    19    20    21    1
    20    21    22    1
    21    22    23    1
    22    13     1    1
    23    23    18    1
    24     8     2   ar
    25    13     9   ar
    26    15    17    1
@<TRIPOS>MOLECULE
*****
 23 26 0 0 0
SMALL
GASTEIGER

@<TRIPOS>ATOM
      1 C          -8.7539  -17.7482   21.8691 C.3     1  UNL1        0.1127
      2 C          -8.7194  -18.7123   20.7204 C.ar    1  UNL1        0.0104
      3 C          -7.5889  -19.4363   20.0514 C.ar    1  UNL1        0.0555
      4 CL         -6.1823  -19.2395   20.5336 Cl      1  UNL1       -0.0825
      5 C          -7.8651  -20.3573   18.8999 C.ar    1  UNL1        0.0111
      6 C          -9.2717  -20.5541   18.4177 C.ar    1  UNL1        0.0009
      7 C         -10.4022  -19.8301   19.0868 C.ar    1  UNL1        0.0013
      8 C         -10.1261  -18.9092   20.2381 C.ar    1  UNL1        0.0160
      9 C         -11.0300  -18.0667   21.0887 C.ar    1  UNL1        0.0804
     10 C         -12.4579  -17.6678   21.3162 C.ar    1  UNL1        0.1177
     11 N         -12.4924  -16.7037   22.4649 N.ar    1  UNL1       -0.2223
     12 C         -11.0857  -16.5068   22.9472 C.ar    1  UNL1        0.1788
     13 N         -10.1819  -17.3492   22.0966 N.ar    1  UNL1       -0.3069
     14 C          -7.5686  -17.2675   22.6526 C.3     1  UNL1        0.0564
     15 O          -7.7240  -14.7047   22.2546 O.3     1  UNL1       -0.3844
     16 C          -7.5407  -15.8660   23.1863 C.3     1  UNL1        0.1127
     17 H          -7.8476  -15.0324   21.3500 H       1  UNL1        0.2103
     18 C          -7.3296  -15.6256   24.6518 C.3     1  UNL1        0.0270
     19 C          -5.9481  -15.3735   25.1791 C.3     1  UNL1        0.0024
     20 C          -5.7370  -15.1332   26.6446 C.3     1  UNL1        0.0001
     21 C          -6.9073  -15.1449   27.5828 C.3     1  UNL1        0.0000
     22 C          -8.2888  -15.3969   27.0555 C.3     1  UNL1        0.0001
     23 C          -8.4999  -15.6373   25.5900 C.3     1  UNL1        0.0024
@<TRIPOS>BOND
     1    15    16    1
     2    16    14    1
     3    14     1    1
     4     1     2    1
     5     2     3   ar
     6     3     4    1
     7     3     5   ar
     8     5     6   ar
     9     6     7   ar
    10     7     8   ar
    11     8     9    1
    12     9    10   ar
    13    10    11   ar
    14    11    12   ar
    15    12    13   ar
    16    16    18    1
    17    18    19    1
    18    19    20    1
    19    20    21    1
    20    21    22    1
    21    22    23    1
    22    13     1    1
    23    23    18    1
    24     8     2   ar
    25    13     9   ar
    26    15    17    1
@<TRIPOS>MOLECULE
*****
 23 26 0 0 0
SMALL
GASTEIGER

@<TRIPOS>ATOM
      1 C          -6.6396  -18.1536   22.3852 C.3     1  UNL1        0.1127
      2 C          -5.2193  -18.5762   22.1523 C.ar    1  UNL1        0.0104
      3 C          -4.6235  -19.6927   21.3470 C.ar    1  UNL1        0.0555
      4 CL         -5.5160  -20.6290   20.5879 Cl      1  UNL1       -0.0825
      5 C          -3.1349  -19.8727   21.3010 C.ar    1  UNL1        0.0111
      6 C          -2.2425  -18.9362   22.0602 C.ar    1  UNL1        0.0009
      7 C          -2.8383  -17.8198   22.8654 C.ar    1  UNL1        0.0013
      8 C          -4.3267  -17.6397   22.9115 C.ar    1  UNL1        0.0160
      9 C          -5.1953  -16.6384   23.6136 C.ar    1  UNL1        0.0804
     10 C          -5.1805  -15.4409   24.5167 C.ar    1  UNL1        0.1177
     11 N          -6.6008  -15.0184   24.7496 N.ar    1  UNL1       -0.2223
     12 C          -7.4934  -15.9548   23.9904 C.ar    1  UNL1        0.1788
     13 N          -6.6248  -16.9561   23.2883 N.ar    1  UNL1       -0.3069
     14 C          -7.8604  -18.8129   21.8150 C.3     1  UNL1        0.0564
     15 O          -8.8690  -20.4035   23.6047 O.3     1  UNL1       -0.3844
     16 C          -8.9941  -19.2004   22.7175 C.3     1  UNL1        0.1127
     17 H          -7.9998  -20.8135   23.4729 H       1  UNL1        0.2103
     18 C         -10.2530  -18.3850   22.7328 C.3     1  UNL1        0.0270
     19 C         -10.3119  -17.0824   21.9914 C.3     1  UNL1        0.0024
     20 C         -11.5708  -16.2669   22.0067 C.3     1  UNL1        0.0001
     21 C         -12.7708  -16.7541   22.7634 C.3     1  UNL1        0.0000
     22 C         -12.7119  -18.0567   23.5049 C.3     1  UNL1        0.0001
     23 C         -11.4530  -18.8722   23.4896 C.3     1  UNL1        0.0024
@<TRIPOS>BOND
     1    15    16    1
     2    16    14    1
     3    14     1    1
     4     1     2    1
     5     2     3   ar
     6     3     4    1
     7     3     5   ar
     8     5     6   ar
     9     6     7   ar
    10     7     8   ar
    11     8     9    1
    12     9    10   ar
    13    10    11   ar
    14    11    12   ar
    15    12    13   ar
    16    16    18    1
    17    18    19    1
    18    19    20    1
    19    20    21    1
    20    21    22    1
    21    22    23    1
    22    13     1    1
    23    23    18    1
    24     8     2   ar
    25    13     9   ar
    26    15    17    1
@<TRIPOS>MOLECULE
*****
 23 26 0 0 0
SMALL
GASTEIGER

@<TRIPOS>ATOM
      1 C          -8.1021  -17.8607   21.7711 C.3     1  UNL1        0.1127
      2 C          -9.5992  -17.7699   21.7409 C.ar    1  UNL1        0.0104
      3 C         -10.6277  -18.4347   20.8748 C.ar    1  UNL1        0.0555
      4 CL        -10.1996  -19.3913   19.8017 Cl      1  UNL1       -0.0825
      5 C         -12.0845  -18.1429   21.0819 C.ar    1  UNL1        0.0111
      6 C         -12.5125  -17.1863   22.1551 C.ar    1  UNL1        0.0009
      7 C         -11.4839  -16.5215   23.0211 C.ar    1  UNL1        0.0013
      8 C         -10.0272  -16.8133   22.8141 C.ar    1  UNL1        0.0160
      9 C          -8.7949  -16.3129   23.5075 C.ar    1  UNL1        0.0804
     10 C          -8.2979  -15.4124   24.5993 C.ar    1  UNL1        0.1177
     11 N          -6.8009  -15.5032   24.6295 N.ar    1  UNL1       -0.2223
     12 C          -6.3728  -16.4597   23.5564 C.ar    1  UNL1        0.1788
     13 N          -7.6051  -16.9602   22.8629 N.ar    1  UNL1       -0.3069
     14 C          -7.2516  -18.7039   20.8681 C.3     1  UNL1        0.0564
     15 O          -6.5325  -20.7412   22.3111 O.3     1  UNL1       -0.3844
     16 C          -6.1718  -19.5691   21.4472 C.3     1  UNL1        0.1127
     17 H          -7.4973  -20.7973   22.3937 H       1  UNL1        0.2103
     18 C          -4.7314  -19.2624   21.1625 C.3     1  UNL1        0.0270
     19 C          -3.7624  -19.0941   22.2950 C.3     1  UNL1        0.0024
     20 C          -2.3219  -18.7873   22.0103 C.3     1  UNL1        0.0001
     21 C          -1.8505  -18.6489   20.5931 C.3     1  UNL1        0.0000
     22 C          -2.8196  -18.8172   19.4605 C.3     1  UNL1        0.0001
     23 C          -4.2600  -19.1239   19.7452 C.3     1  UNL1        0.0024
@<TRIPOS>BOND
     1    15    16    1
     2    16    14    1
     3    14     1    1
     4     1     2    1
     5     2     3   ar
     6     3     4    1
     7     3     5   ar
     8     5     6   ar
     9     6     7   ar
    10     7     8   ar
    11     8     9    1
    12     9    10   ar
    13    10    11   ar
    14    11    12   ar
    15    12    13   ar
    16    16    18    1
    17    18    19    1
    18    19    20    1
    19    20    21    1
    20    21    22    1
    21    22    23    1
    22    13     1    1
    23    23    18    1
    24     8     2   ar
    25    13     9   ar
    26    15    17    1
@<TRIPOS>MOLECULE
*****
 23 26 0 0 0
SMALL
GASTEIGER

@<TRIPOS>ATOM
      1 C          -7.1534  -18.3095   21.9990 C.3     1  UNL1        0.1127
      2 C          -5.7748  -18.8307   21.7197 C.ar    1  UNL1        0.0104
      3 C          -4.4594  -18.6077   22.4052 C.ar    1  UNL1        0.0555
      4 CL         -4.3824  -17.7149   23.6080 Cl      1  UNL1       -0.0825
      5 C          -3.2209  -19.2775   21.8878 C.ar    1  UNL1        0.0111
      6 C          -3.2980  -20.1703   20.6849 C.ar    1  UNL1        0.0009
      7 C          -4.6134  -20.3933   19.9994 C.ar    1  UNL1        0.0013
      8 C          -5.8518  -19.7235   20.5167 C.ar    1  UNL1        0.0160
      9 C          -7.2779  -19.7541   20.0527 C.ar    1  UNL1        0.0804
     10 C          -8.2068  -20.3248   19.0224 C.ar    1  UNL1        0.1177
     11 N          -9.5853  -19.8036   19.3018 N.ar    1  UNL1       -0.2223
     12 C          -9.5084  -18.9108   20.5047 C.ar    1  UNL1        0.1788
     13 N          -8.0823  -18.8802   20.9688 N.ar    1  UNL1       -0.3069
     14 C          -7.5358  -17.3807   23.1131 C.3     1  UNL1        0.0564
     15 O          -8.4459  -15.0105   22.5615 O.3     1  UNL1       -0.3844
     16 C          -8.6919  -16.4405   22.9421 C.3     1  UNL1        0.1127
     17 H          -7.4922  -14.8609   22.4659 H       1  UNL1        0.2103
     18 C         -10.0942  -16.9301   23.1518 C.3     1  UNL1        0.0270
     19 C         -11.2376  -16.2497   22.4592 C.3     1  UNL1        0.0024
     20 C         -12.6398  -16.7393   22.6688 C.3     1  UNL1        0.0001
     21 C         -12.8987  -17.9093   23.5711 C.3     1  UNL1        0.0000
     22 C         -11.7553  -18.5898   24.2637 C.3     1  UNL1        0.0001
     23 C         -10.3530  -18.1002   24.0540 C.3     1  UNL1        0.0024
@<TRIPOS>BOND
     1    15    16    1
     2    16    14    1
     3    14     1    1
     4     1     2    1
     5     2     3   ar
     6     3     4    1
     7     3     5   ar
     8     5     6   ar
     9     6     7   ar
    10     7     8   ar
    11     8     9    1
    12     9    10   ar
    13    10    11   ar
    14    11    12   ar
    15    12    13   ar
    16    16    18    1
    17    18    19    1
    18    19    20    1
    19    20    21    1
    20    21    22    1
    21    22    23    1
    22    13     1    1
    23    23    18    1
    24     8     2   ar
    25    13     9   ar
    26    15    17    1
@<TRIPOS>MOLECULE
*****
 23 26 0 0 0
SMALL
GASTEIGER

@<TRIPOS>ATOM
      1 C          -6.9233  -18.5529   22.2926 C.3     1  UNL1        0.1127
      2 C          -5.4487  -18.7483   22.0988 C.ar    1  UNL1        0.0104
      3 C          -4.6619  -19.8058   21.3829 C.ar    1  UNL1        0.0555
      4 CL         -5.3732  -20.9315   20.6926 Cl      1  UNL1       -0.0825
      5 C          -3.1636  -19.7376   21.3574 C.ar    1  UNL1        0.0111
      6 C          -2.4523  -18.6118   22.0478 C.ar    1  UNL1        0.0009
      7 C          -3.2391  -17.5543   22.7637 C.ar    1  UNL1        0.0013
      8 C          -4.7373  -17.6225   22.7892 C.ar    1  UNL1        0.0160
      9 C          -5.7722  -16.7314   23.4097 C.ar    1  UNL1        0.0804
     10 C          -5.9721  -15.4849   24.2198 C.ar    1  UNL1        0.1177
     11 N          -7.4466  -15.2895   24.4135 N.ar    1  UNL1       -0.2223
     12 C          -8.1581  -16.4153   23.7232 C.ar    1  UNL1        0.1788
     13 N          -7.1232  -17.3064   23.1027 N.ar    1  UNL1       -0.3069
     14 C          -8.0076  -19.4470   21.7683 C.3     1  UNL1        0.0564
     15 O          -9.0066  -18.6241   19.5156 O.3     1  UNL1       -0.3844
     16 C          -9.1492  -18.8641   20.9894 C.3     1  UNL1        0.1127
     17 H          -8.1220  -18.8984   19.2275 H       1  UNL1        0.2103
     18 C         -10.4335  -18.5210   21.6843 C.3     1  UNL1        0.0270
     19 C         -10.6171  -18.8635   23.1331 C.3     1  UNL1        0.0024
     20 C         -11.9014  -18.5205   23.8280 C.3     1  UNL1        0.0001
     21 C         -13.0022  -17.8350   23.0741 C.3     1  UNL1        0.0000
     22 C         -12.8186  -17.4925   21.6253 C.3     1  UNL1        0.0001
     23 C         -11.5343  -17.8355   20.9304 C.3     1  UNL1        0.0024
@<TRIPOS>BOND
     1    15    16    1
     2    16    14    1
     3    14     1    1
     4     1     2    1
     5     2     3   ar
     6     3     4    1
     7     3     5   ar
     8     5     6   ar
     9     6     7   ar
    10     7     8   ar
    11     8     9    1
    12     9    10   ar
    13    10    11   ar
    14    11    12   ar
    15    12    13   ar
    16    16    18    1
    17    18    19    1
    18    19    20    1
    19    20    21    1
    20    21    22    1
    21    22    23    1
    22    13     1    1
    23    23    18    1
    24     8     2   ar
    25    13     9   ar
    26    15    17    1
@<TRIPOS>MOLECULE
*****
 23 26 0 0 0
SMALL
GASTEIGER

@<TRIPOS>ATOM
      1 C          -7.9083  -18.0960   21.9203 C.3     1  UNL1        0.1127
      2 C          -8.5202  -18.8407   20.7708 C.ar    1  UNL1        0.0104
      3 C          -9.9139  -18.8617   20.2165 C.ar    1  UNL1        0.0555
      4 CL        -10.9844  -18.0210   20.8466 Cl      1  UNL1       -0.0825
      5 C         -10.2369  -19.7236   19.0321 C.ar    1  UNL1        0.0111
      6 C          -9.1664  -20.5643   18.4021 C.ar    1  UNL1        0.0009
      7 C          -7.7727  -20.5433   18.9563 C.ar    1  UNL1        0.0013
      8 C          -7.4496  -19.6815   20.1408 C.ar    1  UNL1        0.0160
      9 C          -6.1761  -19.4565   20.9008 C.ar    1  UNL1        0.0804
     10 C          -4.7274  -19.8371   20.9810 C.ar    1  UNL1        0.1177
     11 N          -4.1156  -19.0925   22.1305 N.ar    1  UNL1       -0.2223
     12 C          -5.1862  -18.2517   22.7606 C.ar    1  UNL1        0.1788
     13 N          -6.4596  -18.4767   22.0006 N.ar    1  UNL1       -0.3069
     14 C          -8.6202  -17.1389   22.8298 C.3     1  UNL1        0.0564
     15 O          -7.7403  -14.7794   22.1905 O.3     1  UNL1       -0.3844
     16 C          -7.9652  -15.8471   23.2199 C.3     1  UNL1        0.1127
     17 H          -8.0738  -15.0829   21.3317 H       1  UNL1        0.2103
     18 C          -7.5352  -15.6229   24.6393 C.3     1  UNL1        0.0270
     19 C          -8.5510  -15.6424   25.7427 C.3     1  UNL1        0.0024
     20 C          -8.1209  -15.4182   27.1622 C.3     1  UNL1        0.0001
     21 C          -6.6750  -15.1745   27.4781 C.3     1  UNL1        0.0000
     22 C          -5.6591  -15.1550   26.3747 C.3     1  UNL1        0.0001
     23 C          -6.0891  -15.3792   24.9553 C.3     1  UNL1        0.0024
@<TRIPOS>BOND
     1    15    16    1
     2    16    14    1
     3    14     1    1
     4     1     2    1
     5     2     3   ar
     6     3     4    1
     7     3     5   ar
     8     5     6   ar
     9     6     7   ar
    10     7     8   ar
    11     8     9    1
    12     9    10   ar
    13    10    11   ar
    14    11    12   ar
    15    12    13   ar
    16    16    18    1
    17    18    19    1
    18    19    20    1
    19    20    21    1
    20    21    22    1
    21    22    23    1
    22    13     1    1
    23    23    18    1
    24     8     2   ar
    25    13     9   ar
    26    15    17    1
@<TRIPOS>MOLECULE
*****
 23 26 0 0 0
SMALL
GASTEIGER

@<TRIPOS>ATOM
      1 C          -6.6619  -18.7198   22.0668 C.3     1  UNL1        0.1127
      2 C          -7.5588  -19.2292   20.9777 C.ar    1  UNL1        0.0104
      3 C          -7.3869  -20.3224   19.9650 C.ar    1  UNL1        0.0555
      4 CL         -6.1218  -21.1277   19.9382 Cl      1  UNL1       -0.0825
      5 C          -8.4803  -20.6102   18.9792 C.ar    1  UNL1        0.0111
      6 C          -9.7454  -19.8048   19.0061 C.ar    1  UNL1        0.0009
      7 C          -9.9173  -18.7117   20.0188 C.ar    1  UNL1        0.0013
      8 C          -8.8240  -18.4238   21.0046 C.ar    1  UNL1        0.0160
      9 C          -8.7090  -17.4167   22.1102 C.ar    1  UNL1        0.0804
     10 C          -9.4199  -16.2966   22.8101 C.ar    1  UNL1        0.1177
     11 N          -8.5230  -15.7872   23.8992 N.ar    1  UNL1       -0.2223
     12 C          -7.2578  -16.5925   23.8723 C.ar    1  UNL1        0.1788
     13 N          -7.3728  -17.5996   22.7667 N.ar    1  UNL1       -0.3069
     14 C          -5.2942  -19.2393   22.3978 C.3     1  UNL1        0.0564
     15 O          -3.9731  -17.5332   23.8448 O.3     1  UNL1       -0.3844
     16 C          -4.1481  -18.2851   22.5587 C.3     1  UNL1        0.1127
     17 H          -4.6806  -17.7782   24.4614 H       1  UNL1        0.2103
     18 C          -3.1770  -18.0828   21.4335 C.3     1  UNL1        0.0270
     19 C          -3.3412  -18.8486   20.1542 C.3     1  UNL1        0.0024
     20 C          -2.3701  -18.6464   19.0291 C.3     1  UNL1        0.0001
     21 C          -1.2348  -17.6783   19.1831 C.3     1  UNL1        0.0000
     22 C          -1.0705  -16.9124   20.4625 C.3     1  UNL1        0.0001
     23 C          -2.0416  -17.1147   21.5876 C.3     1  UNL1        0.0024
@<TRIPOS>BOND
     1    15    16    1
     2    16    14    1
     3    14     1    1
     4     1     2    1
     5     2     3   ar
     6     3     4    1
     7     3     5   ar
     8     5     6   ar
     9     6     7   ar
    10     7     8   ar
    11     8     9    1
    12     9    10   ar
    13    10    11   ar
    14    11    12   ar
    15    12    13   ar
    16    16    18    1
    17    18    19    1
    18    19    20    1
    19    20    21    1
    20    21    22    1
    21    22    23    1
    22    13     1    1
    23    23    18    1
    24     8     2   ar
    25    13     9   ar
    26    15    17    1
@<TRIPOS>MOLECULE
*****
 23 26 0 0 0
SMALL
GASTEIGER

@<TRIPOS>ATOM
      1 C          -7.9739  -17.7462   21.6522 C.3     1  UNL1        0.1127
      2 C          -6.8227  -18.6763   21.4076 C.ar    1  UNL1        0.0104
      3 C          -5.4208  -18.7000   21.9407 C.ar    1  UNL1        0.0555
      4 CL         -4.9683  -17.6466   22.9078 Cl      1  UNL1       -0.0825
      5 C          -4.4715  -19.7773   21.5065 C.ar    1  UNL1        0.0111
      6 C          -4.9242  -20.8307   20.5394 C.ar    1  UNL1        0.0009
      7 C          -6.3261  -20.8069   20.0063 C.ar    1  UNL1        0.0013
      8 C          -7.2754  -19.7297   20.4404 C.ar    1  UNL1        0.0160
      9 C          -8.7063  -19.4507   20.0872 C.ar    1  UNL1        0.0804
     10 C          -9.8703  -19.9294   19.2712 C.ar    1  UNL1        0.1177
     11 N         -11.0214  -18.9993   19.5158 N.ar    1  UNL1       -0.2223
     12 C         -10.5688  -17.9458   20.4829 C.ar    1  UNL1        0.1788
     13 N          -9.1380  -18.2248   20.8361 N.ar    1  UNL1       -0.3069
     14 C          -7.9630  -16.5479   22.5543 C.3     1  UNL1        0.0564
     15 O         -10.1213  -17.0718   23.9024 O.3     1  UNL1       -0.3844
     16 C          -8.7035  -16.5840   23.8583 C.3     1  UNL1        0.1127
     17 H         -10.4046  -17.3233   23.0094 H       1  UNL1        0.2103
     18 C          -8.0263  -16.1322   25.1182 C.3     1  UNL1        0.0270
     19 C          -6.6548  -15.5279   25.0572 C.3     1  UNL1        0.0024
     20 C          -5.9776  -15.0761   26.3171 C.3     1  UNL1        0.0001
     21 C          -6.6719  -15.2287   27.6379 C.3     1  UNL1        0.0000
     22 C          -8.0434  -15.8331   27.6989 C.3     1  UNL1        0.0001
     23 C          -8.7207  -16.2848   26.4390 C.3     1  UNL1        0.0024
@<TRIPOS>BOND
     1    15    16    1
     2    16    14    1
     3    14     1    1
     4     1     2    1
     5     2     3   ar
     6     3     4    1
     7     3     5   ar
     8     5     6   ar
     9     6     7   ar
    10     7     8   ar
    11     8     9    1
    12     9    10   ar
    13    10    11   ar
    14    11    12   ar
    15    12    13   ar
    16    16    18    1
    17    18    19    1
    18    19    20    1
    19    20    21    1
    20    21    22    1
    21    22    23    1
    22    13     1    1
    23    23    18    1
    24     8     2   ar
    25    13     9   ar
    26    15    17    1
