@<TRIPOS>MOLECULE
*****
 27 30 0 0 0
SMALL
GASTEIGER

@<TRIPOS>ATOM
      1 C         -13.7895   -2.5022   18.2492 C.ar    1  UNL1        0.2035
      2 N         -14.6770   -1.3604   18.6473 N.ar    1  UNL1       -0.2133
      3 C         -14.1566    0.0456   18.6006 C.ar    1  UNL1        0.1065
      4 C         -12.7486    0.3099   18.1558 C.ar    1  UNL1        0.0815
      5 C         -11.8611   -0.8320   17.7577 C.ar    1  UNL1        0.2646
      6 O         -10.4531   -0.5678   17.3129 O.2     1  UNL1       -0.2668
      7 N         -12.3815   -2.2381   17.8044 N.ar    1  UNL1       -0.2667
      8 C         -11.4940   -3.3799   17.4063 C.3     1  UNL1        0.1363
      9 C         -13.7651   -4.0257   20.8335 C.3     1  UNL1        0.0233
     10 C         -14.2977   -4.6700   19.5880 C.3     1  UNL1        0.0953
     11 C         -14.8182   -6.0760   19.6347 C.3     1  UNL1        0.1106
     12 N         -15.3508   -6.7204   18.3893 N.pl3   1  UNL1       -0.3029
     13 C         -15.3630   -5.9587   17.0971 C.3     1  UNL1        0.1124
     14 C         -14.8426   -4.5527   17.0505 C.3     1  UNL1        0.1149
     15 N         -14.3099   -3.9083   18.2959 N.pl3   1  UNL1       -0.2777
     16 C         -15.8713   -8.1265   18.4360 C.ar    1  UNL1        0.0674
     17 C         -17.3121   -8.3823   18.7654 C.ar    1  UNL1        0.0177
     18 C         -17.8326   -9.7883   18.8122 C.ar    1  UNL1        0.0219
     19 C         -16.9122  -10.9385   18.5294 C.ar    1  UNL1        0.0990
     20 N         -15.4714  -10.6827   18.2000 N.ar    1  UNL1       -0.2410
     21 C         -14.9509   -9.2766   18.1533 C.ar    1  UNL1        0.1133
     22 C         -15.0441    1.1875   18.9987 C.ar    1  UNL1        0.1024
     23 C         -16.3153    0.9228   19.7497 C.ar    1  UNL1        0.0414
     24 C         -17.2029    2.0646   20.1478 C.ar    1  UNL1        0.1023
     25 N         -16.8192    3.4711   19.7949 N.ar    1  UNL1       -0.2224
     26 C         -15.5479    3.7358   19.0439 C.ar    1  UNL1        0.1989
     27 N         -14.6604    2.5940   18.6458 N.ar    1  UNL1       -0.2224
@<TRIPOS>BOND
     1    10     9    1
     2    10    11    1
     3    11    12    1
     4    12    16    1
     5    16    17   ar
     6    17    18   ar
     7    18    19   ar
     8    19    20   ar
     9    20    21   ar
    10    12    13    1
    11    13    14    1
    12    14    15    1
    13    15     1    1
    14     1     2   ar
    15     2     3   ar
    16     3    22    1
    17    22    23   ar
    18    23    24   ar
    19    24    25   ar
    20    25    26   ar
    21    26    27   ar
    22     3     4   ar
    23     4     5   ar
    24     5     6    2
    25     5     7   ar
    26     7     8    1
    27    15    10    1
    28     7     1   ar
    29    21    16   ar
    30    27    22   ar
@<TRIPOS>MOLECULE
*****
 27 30 0 0 0
SMALL
GASTEIGER

@<TRIPOS>ATOM
      1 C         -13.5468   -4.5091   18.4977 C.ar    1  UNL1        0.2035
      2 N         -13.7759   -3.0492   18.2400 N.ar    1  UNL1       -0.2133
      3 C         -12.6266   -2.0874   18.3013 C.ar    1  UNL1        0.1065
      4 C         -11.2480   -2.5853   18.6203 C.ar    1  UNL1        0.0815
      5 C         -11.0189   -4.0451   18.8780 C.ar    1  UNL1        0.2646
      6 O          -9.6404   -4.5431   19.1969 O.2     1  UNL1       -0.2668
      7 N         -12.1683   -5.0070   18.8167 N.ar    1  UNL1       -0.2667
      8 C         -11.9392   -6.4669   19.0744 C.3     1  UNL1        0.1363
      9 C         -14.0762   -6.0556   15.9821 C.3     1  UNL1        0.0233
     10 C         -14.9609   -6.2442   17.1787 C.3     1  UNL1        0.0953
     11 C         -16.1102   -7.2060   17.1174 C.3     1  UNL1        0.1106
     12 N         -16.9950   -7.3946   18.3140 N.pl3   1  UNL1       -0.3029
     13 C         -16.7303   -6.6214   19.5717 C.3     1  UNL1        0.1124
     14 C         -15.5809   -5.6595   19.6330 C.3     1  UNL1        0.1149
     15 N         -14.6962   -5.4709   18.4364 N.pl3   1  UNL1       -0.2777
     16 C         -18.1444   -8.3565   18.2527 C.ar    1  UNL1        0.0674
     17 C         -19.0915   -8.4681   19.4105 C.ar    1  UNL1        0.0177
     18 C         -20.2408   -9.4299   19.3493 C.ar    1  UNL1        0.0219
     19 C         -20.4432  -10.2802   18.1302 C.ar    1  UNL1        0.0990
     20 N         -19.4961  -10.1685   16.9723 N.ar    1  UNL1       -0.2410
     21 C         -18.3467   -9.2066   17.0336 C.ar    1  UNL1        0.1133
     22 C         -12.8558   -0.6275   18.0436 C.ar    1  UNL1        0.1024
     23 C         -14.1105    0.0326   18.5333 C.ar    1  UNL1        0.0414
     24 C         -14.3396    1.4924   18.2756 C.ar    1  UNL1        0.1023
     25 N         -13.3141    2.2921   17.5283 N.ar    1  UNL1       -0.2224
     26 C         -12.0592    1.6320   17.0385 C.ar    1  UNL1        0.1989
     27 N         -11.8301    0.1722   17.2962 N.ar    1  UNL1       -0.2224
@<TRIPOS>BOND
     1    10     9    1
     2    10    11    1
     3    11    12    1
     4    12    16    1
     5    16    17   ar
     6    17    18   ar
     7    18    19   ar
     8    19    20   ar
     9    20    21   ar
    10    12    13    1
    11    13    14    1
    12    14    15    1
    13    15     1    1
    14     1     2   ar
    15     2     3   ar
    16     3    22    1
    17    22    23   ar
    18    23    24   ar
    19    24    25   ar
    20    25    26   ar
    21    26    27   ar
    22     3     4   ar
    23     4     5   ar
    24     5     6    2
    25     5     7   ar
    26     7     8    1
    27    15    10    1
    28     7     1   ar
    29    21    16   ar
    30    27    22   ar
@<TRIPOS>MOLECULE
*****
 27 30 0 0 0
SMALL
GASTEIGER

@<TRIPOS>ATOM
      1 C          -1.9455    3.2269   26.4022 C.ar    1  UNL1        0.2035
      2 N          -3.2277    3.8907   26.8090 N.ar    1  UNL1       -0.2133
      3 C          -4.1418    4.4598   25.7648 C.ar    1  UNL1        0.1065
      4 C          -3.7738    4.3651   24.3137 C.ar    1  UNL1        0.0815
      5 C          -2.4917    3.7013   23.9068 C.ar    1  UNL1        0.2646
      6 O          -2.1237    3.6066   22.4558 O.2     1  UNL1       -0.2668
      7 N          -1.5775    3.1322   24.9512 N.ar    1  UNL1       -0.2667
      8 C          -0.2954    2.4685   24.5443 C.3     1  UNL1        0.1363
      9 C           0.2051    4.9373   27.6063 C.3     1  UNL1        0.0233
     10 C           0.0439    3.5130   28.0485 C.3     1  UNL1        0.0953
     11 C           0.9580    2.9440   29.0928 C.3     1  UNL1        0.1106
     12 N           0.7969    1.5197   29.5350 N.pl3   1  UNL1       -0.3029
     13 C          -0.2784    0.6646   28.9330 C.3     1  UNL1        0.1124
     14 C          -1.1925    1.2336   27.8888 C.3     1  UNL1        0.1149
     15 N          -1.0313    2.6579   27.4465 N.pl3   1  UNL1       -0.2777
     16 C           1.7111    0.9506   30.5793 C.ar    1  UNL1        0.0674
     17 C           2.0626    1.7620   31.7910 C.ar    1  UNL1        0.0177
     18 C           2.9767    1.1930   32.8353 C.ar    1  UNL1        0.0219
     19 C           3.5394   -0.1874   32.6679 C.ar    1  UNL1        0.0990
     20 N           3.1878   -0.9988   31.4563 N.ar    1  UNL1       -0.2410
     21 C           2.2737   -0.4297   30.4120 C.ar    1  UNL1        0.1133
     22 C          -5.4240    5.1235   26.1716 C.ar    1  UNL1        0.1024
     23 C          -6.5012    5.3606   25.1551 C.ar    1  UNL1        0.0414
     24 C          -7.7833    6.0244   25.5619 C.ar    1  UNL1        0.1023
     25 N          -7.9883    6.4511   26.9853 N.ar    1  UNL1       -0.2224
     26 C          -6.9110    6.2140   28.0019 C.ar    1  UNL1        0.1989
     27 N          -5.6289    5.5502   27.5950 N.ar    1  UNL1       -0.2224
@<TRIPOS>BOND
     1    10     9    1
     2    10    11    1
     3    11    12    1
     4    12    16    1
     5    16    17   ar
     6    17    18   ar
     7    18    19   ar
     8    19    20   ar
     9    20    21   ar
    10    12    13    1
    11    13    14    1
    12    14    15    1
    13    15     1    1
    14     1     2   ar
    15     2     3   ar
    16     3    22    1
    17    22    23   ar
    18    23    24   ar
    19    24    25   ar
    20    25    26   ar
    21    26    27   ar
    22     3     4   ar
    23     4     5   ar
    24     5     6    2
    25     5     7   ar
    26     7     8    1
    27    15    10    1
    28     7     1   ar
    29    21    16   ar
    30    27    22   ar
@<TRIPOS>MOLECULE
*****
 27 30 0 0 0
SMALL
GASTEIGER

@<TRIPOS>ATOM
      1 C          -0.9321    2.7179   20.8129 C.ar    1  UNL1        0.2035
      2 N          -2.1081    2.9937   19.9235 N.ar    1  UNL1       -0.2133
      3 C          -3.1950    3.9197   20.3830 C.ar    1  UNL1        0.1065
      4 C          -3.1060    4.5699   21.7319 C.ar    1  UNL1        0.0815
      5 C          -1.9301    4.2940   22.6213 C.ar    1  UNL1        0.2646
      6 O          -1.8410    4.9440   23.9701 O.2     1  UNL1       -0.2668
      7 N          -0.8431    3.3679   22.1617 N.ar    1  UNL1       -0.2667
      8 C           0.3329    3.0921   23.0511 C.3     1  UNL1        0.1363
      9 C           1.4161    3.7994   19.2910 C.3     1  UNL1        0.0233
     10 C           1.3289    2.3326   19.5925 C.3     1  UNL1        0.0953
     11 C           2.4158    1.4066   19.1330 C.3     1  UNL1        0.1106
     12 N           2.3286   -0.0602   19.4344 N.pl3   1  UNL1       -0.3029
     13 C           1.1545   -0.6010   20.1953 C.3     1  UNL1        0.1124
     14 C           0.0676    0.3250   20.6548 C.3     1  UNL1        0.1149
     15 N           0.1548    1.7918   20.3534 N.pl3   1  UNL1       -0.2777
     16 C           3.4155   -0.9862   18.9749 C.ar    1  UNL1        0.0674
     17 C           3.5340   -2.3577   19.5708 C.ar    1  UNL1        0.0177
     18 C           4.6209   -3.2837   19.1113 C.ar    1  UNL1        0.0219
     19 C           5.5893   -2.8383   18.0559 C.ar    1  UNL1        0.0990
     20 N           5.4708   -1.4668   17.4600 N.ar    1  UNL1       -0.2410
     21 C           4.3839   -0.5408   17.9196 C.ar    1  UNL1        0.1133
     22 C          -4.3710    4.1956   19.4936 C.ar    1  UNL1        0.1024
     23 C          -5.6442    3.4232   19.6726 C.ar    1  UNL1        0.0414
     24 C          -6.8202    3.6991   18.7832 C.ar    1  UNL1        0.1023
     25 N          -6.7229    4.7474   17.7148 N.ar    1  UNL1       -0.2224
     26 C          -5.4496    5.5199   17.5357 C.ar    1  UNL1        0.1989
     27 N          -4.2736    5.2440   18.4251 N.ar    1  UNL1       -0.2224
@<TRIPOS>BOND
     1    10     9    1
     2    10    11    1
     3    11    12    1
     4    12    16    1
     5    16    17   ar
     6    17    18   ar
     7    18    19   ar
     8    19    20   ar
     9    20    21   ar
    10    12    13    1
    11    13    14    1
    12    14    15    1
    13    15     1    1
    14     1     2   ar
    15     2     3   ar
    16     3    22    1
    17    22    23   ar
    18    23    24   ar
    19    24    25   ar
    20    25    26   ar
    21    26    27   ar
    22     3     4   ar
    23     4     5   ar
    24     5     6    2
    25     5     7   ar
    26     7     8    1
    27    15    10    1
    28     7     1   ar
    29    21    16   ar
    30    27    22   ar
@<TRIPOS>MOLECULE
*****
 27 30 0 0 0
SMALL
GASTEIGER

@<TRIPOS>ATOM
      1 C           4.3311   -1.2405   20.3425 C.ar    1  UNL1        0.2035
      2 N           4.8911   -2.0649   21.4635 N.ar    1  UNL1       -0.2133
      3 C           6.0591   -2.9728   21.2159 C.ar    1  UNL1        0.1065
      4 C           6.6672   -3.0564   19.8472 C.ar    1  UNL1        0.0815
      5 C           6.1071   -2.2320   18.7261 C.ar    1  UNL1        0.2646
      6 O           6.7151   -2.3155   17.3574 O.2     1  UNL1       -0.2668
      7 N           4.9390   -1.3240   18.9738 N.ar    1  UNL1       -0.2667
      8 C           4.3790   -0.4996   17.8528 C.3     1  UNL1        0.1363
      9 C           4.7901    1.5745   21.2727 C.3     1  UNL1        0.0233
     10 C           3.3925    1.0749   21.0553 C.3     1  UNL1        0.0953
     11 C           2.2245    1.9828   21.3029 C.3     1  UNL1        0.1106
     12 N           0.8269    1.4832   21.0855 N.pl3   1  UNL1       -0.3029
     13 C           0.5974    0.0758   20.6205 C.3     1  UNL1        0.1124
     14 C           1.7654   -0.8321   20.3728 C.3     1  UNL1        0.1149
     15 N           3.1630   -0.3325   20.5902 N.pl3   1  UNL1       -0.2777
     16 C          -0.3412    2.3912   21.3332 C.ar    1  UNL1        0.0674
     17 C          -0.6012    2.9193   22.7129 C.ar    1  UNL1        0.0177
     18 C          -1.7692    3.8272   22.9606 C.ar    1  UNL1        0.0219
     19 C          -2.6772    4.2071   21.8287 C.ar    1  UNL1        0.0990
     20 N          -2.4172    3.6790   20.4490 N.ar    1  UNL1       -0.2410
     21 C          -1.2491    2.7710   20.2013 C.ar    1  UNL1        0.1133
     22 C           6.6191   -3.7972   22.3370 C.ar    1  UNL1        0.1024
     23 C           6.1174   -3.5993   23.7366 C.ar    1  UNL1        0.0414
     24 C           6.6775   -4.4237   24.8577 C.ar    1  UNL1        0.1023
     25 N           7.7392   -5.4460   24.5790 N.ar    1  UNL1       -0.2224
     26 C           8.2410   -5.6439   23.1793 C.ar    1  UNL1        0.1989
     27 N           7.6809   -4.8195   22.0583 N.ar    1  UNL1       -0.2224
@<TRIPOS>BOND
     1    10     9    1
     2    10    11    1
     3    11    12    1
     4    12    16    1
     5    16    17   ar
     6    17    18   ar
     7    18    19   ar
     8    19    20   ar
     9    20    21   ar
    10    12    13    1
    11    13    14    1
    12    14    15    1
    13    15     1    1
    14     1     2   ar
    15     2     3   ar
    16     3    22    1
    17    22    23   ar
    18    23    24   ar
    19    24    25   ar
    20    25    26   ar
    21    26    27   ar
    22     3     4   ar
    23     4     5   ar
    24     5     6    2
    25     5     7   ar
    26     7     8    1
    27    15    10    1
    28     7     1   ar
    29    21    16   ar
    30    27    22   ar
@<TRIPOS>MOLECULE
*****
 27 30 0 0 0
SMALL
GASTEIGER

@<TRIPOS>ATOM
      1 C          -0.4287    2.5048   20.1339 C.ar    1  UNL1        0.2035
      2 N          -1.7419    2.6331   20.8474 N.ar    1  UNL1       -0.2133
      3 C          -2.7374    3.6649   20.4065 C.ar    1  UNL1        0.1065
      4 C          -2.4197    4.5684   19.2520 C.ar    1  UNL1        0.0815
      5 C          -1.1066    4.4401   18.5385 C.ar    1  UNL1        0.2646
      6 O          -0.7889    5.3436   17.3840 O.2     1  UNL1       -0.2668
      7 N          -0.1111    3.4083   18.9794 N.ar    1  UNL1       -0.2667
      8 C           1.2021    3.2800   18.2659 C.3     1  UNL1        0.1363
      9 C           1.4772    3.1178   22.3681 C.3     1  UNL1        0.0233
     10 C           1.5197    1.7795   21.6919 C.3     1  UNL1        0.0953
     11 C           2.5151    0.7477   22.1328 C.3     1  UNL1        0.1106
     12 N           2.5576   -0.5906   21.4567 N.pl3   1  UNL1       -0.3029
     13 C           1.6047   -0.8971   20.3396 C.3     1  UNL1        0.1124
     14 C           0.6092    0.1347   19.8987 C.3     1  UNL1        0.1149
     15 N           0.5668    1.4730   20.5749 N.pl3   1  UNL1       -0.2777
     16 C           3.5531   -1.6224   21.8977 C.ar    1  UNL1        0.0674
     17 C           3.9762   -1.6902   23.3352 C.ar    1  UNL1        0.0177
     18 C           4.9716   -2.7220   23.7762 C.ar    1  UNL1        0.0219
     19 C           5.5441   -3.6860   22.7796 C.ar    1  UNL1        0.0990
     20 N           5.1210   -3.6182   21.3421 N.ar    1  UNL1       -0.2410
     21 C           4.1255   -2.5864   20.9011 C.ar    1  UNL1        0.1133
     22 C          -4.0506    3.7932   21.1200 C.ar    1  UNL1        0.1024
     23 C          -5.2638    4.2703   20.3782 C.ar    1  UNL1        0.0414
     24 C          -6.5769    4.3986   21.0917 C.ar    1  UNL1        0.1023
     25 N          -6.6769    4.0498   22.5471 N.ar    1  UNL1       -0.2224
     26 C          -5.4636    3.5726   23.2891 C.ar    1  UNL1        0.1989
     27 N          -4.1505    3.4443   22.5755 N.ar    1  UNL1       -0.2224
@<TRIPOS>BOND
     1    10     9    1
     2    10    11    1
     3    11    12    1
     4    12    16    1
     5    16    17   ar
     6    17    18   ar
     7    18    19   ar
     8    19    20   ar
     9    20    21   ar
    10    12    13    1
    11    13    14    1
    12    14    15    1
    13    15     1    1
    14     1     2   ar
    15     2     3   ar
    16     3    22    1
    17    22    23   ar
    18    23    24   ar
    19    24    25   ar
    20    25    26   ar
    21    26    27   ar
    22     3     4   ar
    23     4     5   ar
    24     5     6    2
    25     5     7   ar
    26     7     8    1
    27    15    10    1
    28     7     1   ar
    29    21    16   ar
    30    27    22   ar
@<TRIPOS>MOLECULE
*****
 27 30 0 0 0
SMALL
GASTEIGER

@<TRIPOS>ATOM
      1 C          -0.5563    2.5568   20.8456 C.ar    1  UNL1        0.2035
      2 N          -1.2609    2.6452   22.1669 N.ar    1  UNL1       -0.2133
      3 C          -2.3978    3.6067   22.3478 C.ar    1  UNL1        0.1065
      4 C          -2.8302    4.4800   21.2073 C.ar    1  UNL1        0.0815
      5 C          -2.1256    4.3917   19.8861 C.ar    1  UNL1        0.2646
      6 O          -2.5580    5.2649   18.7457 O.2     1  UNL1       -0.2668
      7 N          -0.9886    3.4300   19.7052 N.ar    1  UNL1       -0.2667
      8 C          -0.2840    3.3417   18.3840 C.3     1  UNL1        0.1363
      9 C           2.2656    3.4676   21.3012 C.3     1  UNL1        0.0233
     10 C           1.9916    2.0506   20.8926 C.3     1  UNL1        0.0953
     11 C           3.1285    1.0890   20.7118 C.3     1  UNL1        0.1106
     12 N           2.8545   -0.3280   20.3031 N.pl3   1  UNL1       -0.3029
     13 C           1.4436   -0.7834   20.0753 C.3     1  UNL1        0.1124
     14 C           0.3067    0.1782   20.2562 C.3     1  UNL1        0.1149
     15 N           0.5807    1.5952   20.6648 N.pl3   1  UNL1       -0.2777
     16 C           3.9914   -1.2896   20.1223 C.ar    1  UNL1        0.0674
     17 C           3.7386   -2.6491   19.5410 C.ar    1  UNL1        0.0177
     18 C           4.8755   -3.6107   19.3602 C.ar    1  UNL1        0.0219
     19 C           6.2653   -3.2129   19.7606 C.ar    1  UNL1        0.0990
     20 N           6.5181   -1.8534   20.3419 N.ar    1  UNL1       -0.2410
     21 C           5.3811   -0.8917   20.5227 C.ar    1  UNL1        0.1133
     22 C          -3.1024    3.6951   23.6690 C.ar    1  UNL1        0.1024
     23 C          -2.3123    3.6667   24.9437 C.ar    1  UNL1        0.0414
     24 C          -3.0169    3.7551   26.2650 C.ar    1  UNL1        0.1023
     25 N          -4.5116    3.8718   26.3115 N.ar    1  UNL1       -0.2224
     26 C          -5.3018    3.9002   25.0368 C.ar    1  UNL1        0.1989
     27 N          -4.5972    3.8118   23.7155 N.ar    1  UNL1       -0.2224
@<TRIPOS>BOND
     1    10     9    1
     2    10    11    1
     3    11    12    1
     4    12    16    1
     5    16    17   ar
     6    17    18   ar
     7    18    19   ar
     8    19    20   ar
     9    20    21   ar
    10    12    13    1
    11    13    14    1
    12    14    15    1
    13    15     1    1
    14     1     2   ar
    15     2     3   ar
    16     3    22    1
    17    22    23   ar
    18    23    24   ar
    19    24    25   ar
    20    25    26   ar
    21    26    27   ar
    22     3     4   ar
    23     4     5   ar
    24     5     6    2
    25     5     7   ar
    26     7     8    1
    27    15    10    1
    28     7     1   ar
    29    21    16   ar
    30    27    22   ar
@<TRIPOS>MOLECULE
*****
 27 30 0 0 0
SMALL
GASTEIGER

@<TRIPOS>ATOM
      1 C           4.0813   -1.1407   20.1259 C.ar    1  UNL1        0.2035
      2 N           2.9944   -0.1614   20.4574 N.ar    1  UNL1       -0.2133
      3 C           2.2478    0.5315   19.3564 C.ar    1  UNL1        0.1065
      4 C           2.5879    0.2451   17.9237 C.ar    1  UNL1        0.0815
      5 C           3.6747   -0.7341   17.5922 C.ar    1  UNL1        0.2646
      6 O           4.0148   -1.0205   16.1596 O.2     1  UNL1       -0.2668
      7 N           4.4214   -1.4270   18.6933 N.ar    1  UNL1       -0.2667
      8 C           5.5082   -2.4063   18.3618 C.3     1  UNL1        0.1363
      9 C           6.5389    0.1203   21.2964 C.3     1  UNL1        0.0233
     10 C           6.0567   -1.2031   21.8122 C.3     1  UNL1        0.0953
     11 C           6.8034   -1.8960   22.9133 C.3     1  UNL1        0.1106
     12 N           6.3212   -3.2194   23.4291 N.pl3   1  UNL1       -0.3029
     13 C           5.0924   -3.8499   22.8439 C.3     1  UNL1        0.1124
     14 C           4.3458   -3.1570   21.7428 C.3     1  UNL1        0.1149
     15 N           4.8280   -1.8336   21.2270 N.pl3   1  UNL1       -0.2777
     16 C           7.0679   -3.9123   24.5302 C.ar    1  UNL1        0.0674
     17 C           7.6572   -5.2718   24.2968 C.ar    1  UNL1        0.0177
     18 C           8.4039   -5.9647   25.3978 C.ar    1  UNL1        0.0219
     19 C           8.5613   -5.2981   26.7324 C.ar    1  UNL1        0.0990
     20 N           7.9720   -3.9387   26.9658 N.ar    1  UNL1       -0.2410
     21 C           7.2253   -3.2457   25.8647 C.ar    1  UNL1        0.1133
     22 C           1.1609    1.5107   19.6879 C.ar    1  UNL1        0.1024
     23 C           0.5620    2.3608   18.6069 C.ar    1  UNL1        0.0414
     24 C          -0.5248    3.3401   18.9385 C.ar    1  UNL1        0.1023
     25 N          -1.0127    3.4692   20.3510 N.ar    1  UNL1       -0.2224
     26 C          -0.4138    2.6191   21.4320 C.ar    1  UNL1        0.1989
     27 N           0.6730    1.6398   21.1005 N.ar    1  UNL1       -0.2224
@<TRIPOS>BOND
     1    10     9    1
     2    10    11    1
     3    11    12    1
     4    12    16    1
     5    16    17   ar
     6    17    18   ar
     7    18    19   ar
     8    19    20   ar
     9    20    21   ar
    10    12    13    1
    11    13    14    1
    12    14    15    1
    13    15     1    1
    14     1     2   ar
    15     2     3   ar
    16     3    22    1
    17    22    23   ar
    18    23    24   ar
    19    24    25   ar
    20    25    26   ar
    21    26    27   ar
    22     3     4   ar
    23     4     5   ar
    24     5     6    2
    25     5     7   ar
    26     7     8    1
    27    15    10    1
    28     7     1   ar
    29    21    16   ar
    30    27    22   ar
@<TRIPOS>MOLECULE
*****
 27 30 0 0 0
SMALL
GASTEIGER

@<TRIPOS>ATOM
      1 C           4.6612    1.2291   34.5351 C.ar    1  UNL1        0.2035
      2 N           3.7766    0.9745   35.7194 N.ar    1  UNL1       -0.2133
      3 C           3.3321    2.1176   36.5830 C.ar    1  UNL1        0.1065
      4 C           3.7724    3.5153   36.2624 C.ar    1  UNL1        0.0815
      5 C           4.6570    3.7699   35.0781 C.ar    1  UNL1        0.2646
      6 O           5.0973    5.1675   34.7575 O.2     1  UNL1       -0.2668
      7 N           5.1015    2.6268   34.2145 N.ar    1  UNL1       -0.2667
      8 C           5.9861    2.8814   33.0302 C.3     1  UNL1        0.1363
      9 C           7.3237   -0.0672   35.0155 C.3     1  UNL1        0.0233
     10 C           6.4369   -0.5621   33.9116 C.3     1  UNL1        0.0953
     11 C           6.8812   -1.7051   33.0479 C.3     1  UNL1        0.1106
     12 N           5.9944   -2.2000   31.9440 N.pl3   1  UNL1       -0.3029
     13 C           4.6632   -1.5519   31.7038 C.3     1  UNL1        0.1124
     14 C           4.2188   -0.4088   32.5675 C.3     1  UNL1        0.1149
     15 N           5.1057    0.0860   33.6714 N.pl3   1  UNL1       -0.2777
     16 C           6.4388   -3.3431   31.0804 C.ar    1  UNL1        0.0674
     17 C           6.8588   -4.6388   31.7087 C.ar    1  UNL1        0.0177
     18 C           7.3032   -5.7818   30.8451 C.ar    1  UNL1        0.0219
     19 C           7.3276   -5.6293   29.3531 C.ar    1  UNL1        0.0990
     20 N           6.9077   -4.3336   28.7247 N.ar    1  UNL1       -0.2410
     21 C           6.4632   -3.1905   29.5884 C.ar    1  UNL1        0.1133
     22 C           2.4475    1.8630   37.7673 C.ar    1  UNL1        0.1024
     23 C           2.6191    0.6117   38.5765 C.ar    1  UNL1        0.0414
     24 C           1.7344    0.3571   39.7608 C.ar    1  UNL1        0.1023
     25 N           0.6782    1.3538   40.1359 N.ar    1  UNL1       -0.2224
     26 C           0.5065    2.6051   39.3268 C.ar    1  UNL1        0.1989
     27 N           1.3911    2.8597   38.1425 N.ar    1  UNL1       -0.2224
@<TRIPOS>BOND
     1    10     9    1
     2    10    11    1
     3    11    12    1
     4    12    16    1
     5    16    17   ar
     6    17    18   ar
     7    18    19   ar
     8    19    20   ar
     9    20    21   ar
    10    12    13    1
    11    13    14    1
    12    14    15    1
    13    15     1    1
    14     1     2   ar
    15     2     3   ar
    16     3    22    1
    17    22    23   ar
    18    23    24   ar
    19    24    25   ar
    20    25    26   ar
    21    26    27   ar
    22     3     4   ar
    23     4     5   ar
    24     5     6    2
    25     5     7   ar
    26     7     8    1
    27    15    10    1
    28     7     1   ar
    29    21    16   ar
    30    27    22   ar
