@<TRIPOS>MOLECULE
*****
 22 24 0 0 0
SMALL
GASTEIGER

@<TRIPOS>ATOM
      1 C          -8.7700  -18.8112   21.5551 C.ar    1  UNL1        0.0428
      2 C          -9.3490  -19.5203   20.3668 C.ar    1  UNL1        0.0077
      3 C         -10.4409  -18.8743   19.5665 C.ar    1  UNL1        0.0006
      4 C         -10.9538  -17.5192   19.9546 C.ar    1  UNL1        0.0013
      5 C         -10.3749  -16.8101   21.1429 C.ar    1  UNL1        0.0150
      6 C          -9.2830  -17.4561   21.9431 C.ar    1  UNL1        0.0540
      7 N          -8.7040  -16.7471   23.1314 N.pl3   1  UNL1       -0.3043
      8 C          -9.1772  -17.0895   24.5130 C.3     1  UNL1        0.1079
      9 C          -8.5983  -16.3804   25.7013 C.3     1  UNL1        0.0903
     10 N          -7.5461  -15.3289   25.5080 N.3     1  UNL1       -0.2946
     11 C          -7.0729  -14.9865   24.1263 C.3     1  UNL1        0.0903
     12 C          -7.6519  -15.6956   22.9380 C.3     1  UNL1        0.1079
     13 H          -6.7262  -15.6327   26.0332 H       1  UNL1        0.1233
     14 S          -7.6781  -19.4573   22.3553 S.3     1  UNL1       -0.0848
     15 C          -1.9616  -18.9167   20.6150 C.3     1  UNL1        0.0311
     16 C          -3.3907  -19.0518   21.0501 C.ar    1  UNL1       -0.0210
     17 C          -3.9158  -18.2075   22.1732 C.ar    1  UNL1       -0.0037
     18 C          -5.3450  -18.3427   22.6082 C.ar    1  UNL1        0.0070
     19 C          -6.2490  -19.3221   21.9202 C.ar    1  UNL1        0.0400
     20 C          -5.7239  -20.1664   20.7972 C.ar    1  UNL1        0.0633
     21 CL         -6.6279  -21.1459   20.1091 Cl      1  UNL1       -0.0817
     22 C          -4.2947  -20.0313   20.3621 C.ar    1  UNL1        0.0076
@<TRIPOS>BOND
     1    15    16    1
     2    16    17   ar
     3    17    18   ar
     4    18    19   ar
     5    19    14    1
     6    14     1    1
     7     1     2   ar
     8     2     3   ar
     9     3     4   ar
    10     4     5   ar
    11     5     6   ar
    12     6     7    1
    13     7     8    1
    14     8     9    1
    15     9    10    1
    16    10    11    1
    17    11    12    1
    18    19    20   ar
    19    20    21    1
    20    20    22   ar
    21    22    16   ar
    22     6     1   ar
    23    12     7    1
    24    10    13    1
@<TRIPOS>MOLECULE
*****
 22 24 0 0 0
SMALL
GASTEIGER

@<TRIPOS>ATOM
      1 C          -7.8550  -18.8268   21.4680 C.ar    1  UNL1        0.0428
      2 C          -8.1861  -19.6706   20.2729 C.ar    1  UNL1        0.0077
      3 C          -9.4508  -19.4213   19.5058 C.ar    1  UNL1        0.0006
      4 C         -10.3844  -18.3281   19.9339 C.ar    1  UNL1        0.0013
      5 C         -10.0534  -17.4842   21.1289 C.ar    1  UNL1        0.0150
      6 C          -8.7887  -17.7336   21.8961 C.ar    1  UNL1        0.0540
      7 N          -8.4577  -16.8897   23.0912 N.pl3   1  UNL1       -0.3043
      8 C          -7.5294  -15.7200   22.9495 C.3     1  UNL1        0.1079
      9 C          -7.1984  -14.8761   24.1446 C.3     1  UNL1        0.0903
     10 N          -7.7956  -15.2020   25.4815 N.3     1  UNL1       -0.2946
     11 C          -8.7239  -16.3717   25.6232 C.3     1  UNL1        0.0903
     12 C          -9.0549  -17.2156   24.4280 C.3     1  UNL1        0.1079
     13 H          -8.3143  -14.3765   25.7814 H       1  UNL1        0.1233
     14 S          -6.5904  -19.0761   22.2351 S.3     1  UNL1       -0.0848
     15 C          -1.2672  -18.2940   19.5795 C.3     1  UNL1        0.0311
     16 C          -2.5980  -18.4895   20.2434 C.ar    1  UNL1       -0.0210
     17 C          -3.6855  -19.2427   19.5363 C.ar    1  UNL1       -0.0037
     18 C          -5.0163  -19.4382   20.2002 C.ar    1  UNL1        0.0070
     19 C          -5.2596  -18.8806   21.5712 C.ar    1  UNL1        0.0400
     20 C          -4.1721  -18.1275   22.2784 C.ar    1  UNL1        0.0633
     21 CL         -4.4154  -17.5698   23.6495 Cl      1  UNL1       -0.0817
     22 C          -2.8413  -17.9319   21.6145 C.ar    1  UNL1        0.0076
@<TRIPOS>BOND
     1    15    16    1
     2    16    17   ar
     3    17    18   ar
     4    18    19   ar
     5    19    14    1
     6    14     1    1
     7     1     2   ar
     8     2     3   ar
     9     3     4   ar
    10     4     5   ar
    11     5     6   ar
    12     6     7    1
    13     7     8    1
    14     8     9    1
    15     9    10    1
    16    10    11    1
    17    11    12    1
    18    19    20   ar
    19    20    21    1
    20    20    22   ar
    21    22    16   ar
    22     6     1   ar
    23    12     7    1
    24    10    13    1
@<TRIPOS>MOLECULE
*****
 22 24 0 0 0
SMALL
GASTEIGER

@<TRIPOS>ATOM
      1 C          -9.2610  -19.2929   22.3123 C.ar    1  UNL1        0.0428
      2 C          -9.0595  -20.3442   23.3631 C.ar    1  UNL1        0.0077
      3 C          -9.9130  -20.3450   24.5966 C.ar    1  UNL1        0.0006
      4 C         -10.9681  -19.2946   24.7793 C.ar    1  UNL1        0.0013
      5 C         -11.1697  -18.2433   23.7285 C.ar    1  UNL1        0.0150
      6 C         -10.3161  -18.2425   22.4950 C.ar    1  UNL1        0.0540
      7 N         -10.5177  -17.1912   21.4442 N.pl3   1  UNL1       -0.3043
      8 C         -11.5244  -17.4048   20.3529 C.3     1  UNL1        0.1079
      9 C         -11.7259  -16.3535   19.3022 C.3     1  UNL1        0.0903
     10 N         -10.9207  -15.0886   19.3426 N.3     1  UNL1       -0.2946
     11 C          -9.9140  -14.8749   20.4339 C.3     1  UNL1        0.0903
     12 C          -9.7125  -15.9263   21.4847 C.3     1  UNL1        0.1079
     13 H         -11.5862  -14.3177   19.4009 H       1  UNL1        0.1233
     14 S          -8.4075  -19.2920   21.0788 S.3     1  UNL1       -0.0848
     15 C          -2.4467  -19.7850   21.5550 C.3     1  UNL1        0.0311
     16 C          -3.9369  -19.6618   21.4359 C.ar    1  UNL1       -0.0210
     17 C          -4.6948  -20.5790   20.5225 C.ar    1  UNL1       -0.0037
     18 C          -6.1849  -20.4557   20.4035 C.ar    1  UNL1        0.0070
     19 C          -6.9173  -19.4153   21.1979 C.ar    1  UNL1        0.0400
     20 C          -6.1595  -18.4981   22.1113 C.ar    1  UNL1        0.0633
     21 CL         -6.8918  -17.4576   22.9058 Cl      1  UNL1       -0.0817
     22 C          -4.6693  -18.6214   22.2304 C.ar    1  UNL1        0.0076
@<TRIPOS>BOND
     1    15    16    1
     2    16    17   ar
     3    17    18   ar
     4    18    19   ar
     5    19    14    1
     6    14     1    1
     7     1     2   ar
     8     2     3   ar
     9     3     4   ar
    10     4     5   ar
    11     5     6   ar
    12     6     7    1
    13     7     8    1
    14     8     9    1
    15     9    10    1
    16    10    11    1
    17    11    12    1
    18    19    20   ar
    19    20    21    1
    20    20    22   ar
    21    22    16   ar
    22     6     1   ar
    23    12     7    1
    24    10    13    1
@<TRIPOS>MOLECULE
*****
 22 24 0 0 0
SMALL
GASTEIGER

@<TRIPOS>ATOM
      1 C          -7.2896  -16.1206   24.8786 C.ar    1  UNL1        0.0428
      2 C          -6.3207  -15.3843   25.7557 C.ar    1  UNL1        0.0077
      3 C          -6.6175  -15.2044   27.2150 C.ar    1  UNL1        0.0006
      4 C          -7.8830  -15.7607   27.7972 C.ar    1  UNL1        0.0013
      5 C          -8.8518  -16.4970   26.9201 C.ar    1  UNL1        0.0150
      6 C          -8.5551  -16.6770   25.4608 C.ar    1  UNL1        0.0540
      7 N          -9.5239  -17.4132   24.5837 N.pl3   1  UNL1       -0.3043
      8 C          -9.7109  -18.8923   24.7493 C.3     1  UNL1        0.1079
      9 C         -10.6797  -19.6286   23.8722 C.3     1  UNL1        0.0903
     10 N         -11.4615  -18.8858   22.8295 N.3     1  UNL1       -0.2946
     11 C         -11.2745  -17.4067   22.6639 C.3     1  UNL1        0.0903
     12 C         -10.3056  -16.6705   23.5411 C.3     1  UNL1        0.1079
     13 H         -12.4484  -19.0362   23.0387 H       1  UNL1        0.1233
     14 S          -6.9928  -16.3006   23.4193 S.3     1  UNL1       -0.0848
     15 C          -2.4911  -19.8711   21.6912 C.3     1  UNL1        0.0311
     16 C          -3.6165  -18.9784   22.1233 C.ar    1  UNL1       -0.0210
     17 C          -3.3291  -17.7439   22.9252 C.ar    1  UNL1       -0.0037
     18 C          -4.4546  -16.8513   23.3573 C.ar    1  UNL1        0.0070
     19 C          -5.8674  -17.1932   22.9873 C.ar    1  UNL1        0.0400
     20 C          -6.1548  -18.4278   22.1853 C.ar    1  UNL1        0.0633
     21 CL         -7.5677  -18.7698   21.8153 Cl      1  UNL1       -0.0817
     22 C          -5.0294  -19.3204   21.7533 C.ar    1  UNL1        0.0076
@<TRIPOS>BOND
     1    15    16    1
     2    16    17   ar
     3    17    18   ar
     4    18    19   ar
     5    19    14    1
     6    14     1    1
     7     1     2   ar
     8     2     3   ar
     9     3     4   ar
    10     4     5   ar
    11     5     6   ar
    12     6     7    1
    13     7     8    1
    14     8     9    1
    15     9    10    1
    16    10    11    1
    17    11    12    1
    18    19    20   ar
    19    20    21    1
    20    20    22   ar
    21    22    16   ar
    22     6     1   ar
    23    12     7    1
    24    10    13    1
@<TRIPOS>MOLECULE
*****
 22 24 0 0 0
SMALL
GASTEIGER

@<TRIPOS>ATOM
      1 C          -7.3894  -16.0722   24.6182 C.ar    1  UNL1        0.0428
      2 C          -6.3177  -15.4106   25.4328 C.ar    1  UNL1        0.0077
      3 C          -6.4417  -15.3481   26.9264 C.ar    1  UNL1        0.0006
      4 C          -7.6375  -15.9473   27.6053 C.ar    1  UNL1        0.0013
      5 C          -8.7093  -16.6089   26.7908 C.ar    1  UNL1        0.0150
      6 C          -8.5853  -16.6714   25.2972 C.ar    1  UNL1        0.0540
      7 N          -9.6570  -17.3330   24.4826 N.pl3   1  UNL1       -0.3043
      8 C         -10.5190  -16.5127   23.5693 C.3     1  UNL1        0.1079
      9 C         -11.5907  -17.1743   22.7548 C.3     1  UNL1        0.0903
     10 N         -11.8006  -18.6564   22.8535 N.3     1  UNL1       -0.2946
     11 C         -10.9386  -19.4767   23.7668 C.3     1  UNL1        0.0903
     12 C          -9.8668  -18.8150   24.5814 C.3     1  UNL1        0.1079
     13 H         -11.6775  -19.0344   21.9141 H       1  UNL1        0.1233
     14 S          -7.2654  -16.1347   23.1247 S.3     1  UNL1       -0.0848
     15 C          -5.8389  -21.3109   20.4466 C.3     1  UNL1        0.0311
     16 C          -6.1955  -20.0168   21.1161 C.ar    1  UNL1       -0.0210
     17 C          -7.5750  -19.4482   20.9626 C.ar    1  UNL1       -0.0037
     18 C          -7.9316  -18.1541   21.6321 C.ar    1  UNL1        0.0070
     19 C          -6.9088  -17.4287   22.4552 C.ar    1  UNL1        0.0400
     20 C          -5.5293  -17.9973   22.6087 C.ar    1  UNL1        0.0633
     21 CL         -4.5063  -17.2719   23.4317 Cl      1  UNL1       -0.0817
     22 C          -5.1726  -19.2914   21.9391 C.ar    1  UNL1        0.0076
@<TRIPOS>BOND
     1    15    16    1
     2    16    17   ar
     3    17    18   ar
     4    18    19   ar
     5    19    14    1
     6    14     1    1
     7     1     2   ar
     8     2     3   ar
     9     3     4   ar
    10     4     5   ar
    11     5     6   ar
    12     6     7    1
    13     7     8    1
    14     8     9    1
    15     9    10    1
    16    10    11    1
    17    11    12    1
    18    19    20   ar
    19    20    21    1
    20    20    22   ar
    21    22    16   ar
    22     6     1   ar
    23    12     7    1
    24    10    13    1
@<TRIPOS>MOLECULE
*****
 22 24 0 0 0
SMALL
GASTEIGER

@<TRIPOS>ATOM
      1 C          -7.3397  -16.9048   23.0341 C.ar    1  UNL1        0.0428
      2 C          -7.6930  -15.7720   23.9517 C.ar    1  UNL1        0.0077
      3 C          -6.6416  -15.1637   24.8317 C.ar    1  UNL1        0.0006
      4 C          -5.2368  -15.6882   24.7942 C.ar    1  UNL1        0.0013
      5 C          -4.8834  -16.8210   23.8767 C.ar    1  UNL1        0.0150
      6 C          -5.9349  -17.4293   22.9966 C.ar    1  UNL1        0.0540
      7 N          -5.5815  -18.5621   22.0791 N.pl3   1  UNL1       -0.3043
      8 C          -4.2529  -18.5768   21.3829 C.3     1  UNL1        0.1079
      9 C          -3.8995  -19.7096   20.4653 C.3     1  UNL1        0.0903
     10 N          -4.8747  -20.8277   20.2440 N.3     1  UNL1       -0.2946
     11 C          -6.2033  -20.8129   20.9401 C.3     1  UNL1        0.0903
     12 C          -6.5566  -19.6801   21.8577 C.3     1  UNL1        0.1079
     13 H          -4.4047  -21.6883   20.5247 H       1  UNL1        0.1233
     14 S          -8.3911  -17.5130   22.1540 S.3     1  UNL1       -0.0848
     15 C         -14.0113  -18.1103   24.1681 C.3     1  UNL1        0.0311
     16 C         -12.6062  -17.9610   23.6646 C.ar    1  UNL1       -0.0210
     17 C         -11.5087  -18.8040   24.2430 C.ar    1  UNL1       -0.0037
     18 C         -10.1036  -18.6547   23.7395 C.ar    1  UNL1        0.0070
     19 C          -9.7961  -17.6623   22.6575 C.ar    1  UNL1        0.0400
     20 C         -10.8937  -16.8193   22.0791 C.ar    1  UNL1        0.0633
     21 CL        -10.5862  -15.8269   20.9971 Cl      1  UNL1       -0.0817
     22 C         -12.2987  -16.9686   22.5826 C.ar    1  UNL1        0.0076
@<TRIPOS>BOND
     1    15    16    1
     2    16    17   ar
     3    17    18   ar
     4    18    19   ar
     5    19    14    1
     6    14     1    1
     7     1     2   ar
     8     2     3   ar
     9     3     4   ar
    10     4     5   ar
    11     5     6   ar
    12     6     7    1
    13     7     8    1
    14     8     9    1
    15     9    10    1
    16    10    11    1
    17    11    12    1
    18    19    20   ar
    19    20    21    1
    20    20    22   ar
    21    22    16   ar
    22     6     1   ar
    23    12     7    1
    24    10    13    1
@<TRIPOS>MOLECULE
*****
 22 24 0 0 0
SMALL
GASTEIGER

@<TRIPOS>ATOM
      1 C          -6.7914  -16.4872   23.9297 C.ar    1  UNL1        0.0428
      2 C          -7.8116  -15.9403   24.8838 C.ar    1  UNL1        0.0077
      3 C          -7.3732  -15.3304   26.1822 C.ar    1  UNL1        0.0006
      4 C          -5.9146  -15.2675   26.5266 C.ar    1  UNL1        0.0013
      5 C          -4.8944  -15.8144   25.5726 C.ar    1  UNL1        0.0150
      6 C          -5.3328  -16.4243   24.2741 C.ar    1  UNL1        0.0540
      7 N          -4.3127  -16.9712   23.3201 N.pl3   1  UNL1       -0.3043
      8 C          -4.2563  -18.4448   23.0460 C.3     1  UNL1        0.1079
      9 C          -3.2361  -18.9917   22.0920 C.3     1  UNL1        0.0903
     10 N          -2.2723  -18.0649   21.4121 N.3     1  UNL1       -0.2946
     11 C          -2.3287  -16.5913   21.6862 C.3     1  UNL1        0.0903
     12 C          -3.3489  -16.0444   22.6403 C.3     1  UNL1        0.1079
     13 H          -2.4085  -18.1831   20.4082 H       1  UNL1        0.1233
     14 S          -7.2298  -17.0970   22.6313 S.3     1  UNL1       -0.0848
     15 C         -13.0720  -17.8574   21.4952 C.3     1  UNL1        0.0311
     16 C         -11.6114  -17.6673   21.7793 C.ar    1  UNL1       -0.0210
     17 C         -10.9758  -16.3244   21.5728 C.ar    1  UNL1       -0.0037
     18 C          -9.5153  -16.1344   21.8568 C.ar    1  UNL1        0.0070
     19 C          -8.6903  -17.2871   22.3473 C.ar    1  UNL1        0.0400
     20 C          -9.3260  -18.6300   22.5538 C.ar    1  UNL1        0.0633
     21 CL         -8.5011  -19.7828   23.0443 Cl      1  UNL1       -0.0817
     22 C         -10.7865  -18.8200   22.2697 C.ar    1  UNL1        0.0076
@<TRIPOS>BOND
     1    15    16    1
     2    16    17   ar
     3    17    18   ar
     4    18    19   ar
     5    19    14    1
     6    14     1    1
     7     1     2   ar
     8     2     3   ar
     9     3     4   ar
    10     4     5   ar
    11     5     6   ar
    12     6     7    1
    13     7     8    1
    14     8     9    1
    15     9    10    1
    16    10    11    1
    17    11    12    1
    18    19    20   ar
    19    20    21    1
    20    20    22   ar
    21    22    16   ar
    22     6     1   ar
    23    12     7    1
    24    10    13    1
@<TRIPOS>MOLECULE
*****
 22 24 0 0 0
SMALL
GASTEIGER

@<TRIPOS>ATOM
      1 C         -12.4278   -3.8857   19.2500 C.ar    1  UNL1        0.0428
      2 C         -12.8477   -2.4578   19.4365 C.ar    1  UNL1        0.0077
      3 C         -12.1135   -1.3609   18.7240 C.ar    1  UNL1        0.0006
      4 C         -10.9593   -1.6919   17.8250 C.ar    1  UNL1        0.0013
      5 C         -10.5393   -3.1197   17.6384 C.ar    1  UNL1        0.0150
      6 C         -11.2736   -4.2167   18.3509 C.ar    1  UNL1        0.0540
      7 N         -10.8536   -5.6445   18.1644 N.pl3   1  UNL1       -0.3043
      8 C         -11.4817   -6.4762   17.0856 C.3     1  UNL1        0.1079
      9 C         -11.0617   -7.9040   16.8990 C.3     1  UNL1        0.0903
     10 N         -10.0136   -8.5003   17.7913 N.3     1  UNL1       -0.2946
     11 C          -9.3856   -7.6686   18.8701 C.3     1  UNL1        0.0903
     12 C          -9.8056   -6.2407   19.0567 C.3     1  UNL1        0.1079
     13 H          -9.2567   -8.8171   17.1855 H       1  UNL1        0.1233
     14 S         -13.1620   -4.9826   19.9625 S.3     1  UNL1       -0.0848
     15 C         -19.0822   -5.6083   19.2144 C.3     1  UNL1        0.0311
     16 C         -17.6022   -5.4519   19.4014 C.ar    1  UNL1       -0.0210
     17 C         -17.0481   -4.1775   19.9661 C.ar    1  UNL1       -0.0037
     18 C         -15.5680   -4.0211   20.1532 C.ar    1  UNL1        0.0070
     19 C         -14.6421   -5.1390   19.7755 C.ar    1  UNL1        0.0400
     20 C         -15.1961   -6.4134   19.2107 C.ar    1  UNL1        0.0633
     21 CL        -14.2701   -7.5314   18.8330 Cl      1  UNL1       -0.0817
     22 C         -16.6762   -6.5698   19.0237 C.ar    1  UNL1        0.0076
@<TRIPOS>BOND
     1    15    16    1
     2    16    17   ar
     3    17    18   ar
     4    18    19   ar
     5    19    14    1
     6    14     1    1
     7     1     2   ar
     8     2     3   ar
     9     3     4   ar
    10     4     5   ar
    11     5     6   ar
    12     6     7    1
    13     7     8    1
    14     8     9    1
    15     9    10    1
    16    10    11    1
    17    11    12    1
    18    19    20   ar
    19    20    21    1
    20    20    22   ar
    21    22    16   ar
    22     6     1   ar
    23    12     7    1
    24    10    13    1
@<TRIPOS>MOLECULE
*****
 22 24 0 0 0
SMALL
GASTEIGER

@<TRIPOS>ATOM
      1 C          -6.6851  -17.3888   23.1771 C.ar    1  UNL1        0.0428
      2 C          -5.7325  -16.3912   23.7666 C.ar    1  UNL1        0.0077
      3 C          -6.2588  -15.1556   24.4345 C.ar    1  UNL1        0.0006
      4 C          -7.7377  -14.9174   24.5130 C.ar    1  UNL1        0.0013
      5 C          -8.6903  -15.9149   23.9235 C.ar    1  UNL1        0.0150
      6 C          -8.1640  -17.1506   23.2555 C.ar    1  UNL1        0.0540
      7 N          -9.1166  -18.1481   22.6661 N.pl3   1  UNL1       -0.3043
      8 C          -9.7040  -19.2251   23.5292 C.3     1  UNL1        0.1079
      9 C         -10.6566  -20.2226   22.9398 C.3     1  UNL1        0.0903
     10 N         -11.0219  -20.1431   21.4870 N.3     1  UNL1       -0.2946
     11 C         -10.4345  -19.0661   20.6239 C.3     1  UNL1        0.0903
     12 C          -9.4819  -18.0686   21.2134 C.3     1  UNL1        0.1079
     13 H         -12.0352  -20.0353   21.4437 H       1  UNL1        0.1233
     14 S          -6.1588  -18.6244   22.5091 S.3     1  UNL1       -0.0848
     15 C          -0.7701  -18.5454   19.8718 C.3     1  UNL1        0.0311
     16 C          -2.1173  -18.5651   20.5312 C.ar    1  UNL1       -0.0210
     17 C          -2.2335  -18.3252   22.0072 C.ar    1  UNL1       -0.0037
     18 C          -3.5807  -18.3449   22.6666 C.ar    1  UNL1        0.0070
     19 C          -4.8117  -18.6046   21.8498 C.ar    1  UNL1        0.0400
     20 C          -4.6955  -18.8446   20.3737 C.ar    1  UNL1        0.0633
     21 CL         -5.9265  -19.1044   19.5569 Cl      1  UNL1       -0.0817
     22 C          -3.3483  -18.8249   19.7144 C.ar    1  UNL1        0.0076
@<TRIPOS>BOND
     1    15    16    1
     2    16    17   ar
     3    17    18   ar
     4    18    19   ar
     5    19    14    1
     6    14     1    1
     7     1     2   ar
     8     2     3   ar
     9     3     4   ar
    10     4     5   ar
    11     5     6   ar
    12     6     7    1
    13     7     8    1
    14     8     9    1
    15     9    10    1
    16    10    11    1
    17    11    12    1
    18    19    20   ar
    19    20    21    1
    20    20    22   ar
    21    22    16   ar
    22     6     1   ar
    23    12     7    1
    24    10    13    1
