@<TRIPOS>MOLECULE
*****
 28 30 0 0 0
SMALL
GASTEIGER

@<TRIPOS>ATOM
      1 C         -10.6580  -17.9744   21.2413 C.3     1  UNL1        0.1139
      2 C         -11.5074  -18.1607   22.4635 C.ar    1  UNL1       -0.0029
      3 C         -10.9275  -18.8021   23.6892 C.ar    1  UNL1       -0.0026
      4 C         -11.7769  -18.9884   24.9114 C.ar    1  UNL1       -0.0003
      5 C         -13.2062  -18.5333   24.9079 C.ar    1  UNL1       -0.0000
      6 C         -13.7861  -17.8919   23.6822 C.ar    1  UNL1       -0.0003
      7 C         -12.9367  -17.7056   22.4600 C.ar    1  UNL1       -0.0026
      8 C         -11.4725  -16.2143   19.5125 C.3     1  UNL1        0.1152
      9 N         -10.5360  -16.6181   20.6124 N.am    1  UNL1       -0.2729
     10 C          -9.4774  -15.6655   21.0834 C.2     1  UNL1        0.2459
     11 O          -9.3553  -14.3092   20.4546 O.2     1  UNL1       -0.2730
     12 C          -8.5408  -16.0692   22.1834 C.3     1  UNL1        0.1738
     13 N          -7.7764  -15.0232   22.9393 N.pl3   1  UNL1       -0.3253
     14 H          -7.4803  -14.2032   22.4819 H       1  UNL1        0.1473
     15 C          -7.4631  -15.2264   24.3921 C.ar    1  UNL1        0.0450
     16 C          -8.5718  -15.4805   25.3700 C.ar    1  UNL1        0.0143
     17 C          -8.2585  -15.6837   26.8227 C.ar    1  UNL1        0.0013
     18 C          -6.8366  -15.6327   27.2976 C.ar    1  UNL1        0.0001
     19 C          -5.7279  -15.3786   26.3198 C.ar    1  UNL1        0.0013
     20 C          -6.0412  -15.1754   24.8670 C.ar    1  UNL1        0.0143
     21 C          -9.9308  -19.1444   20.6479 C.3     1  UNL1        0.0968
     22 N          -8.4608  -19.3161   20.8922 N.3     1  UNL1       -0.2689
     23 C          -7.8195  -19.6637   22.2029 C.3     1  UNL1        0.0748
     24 C          -6.3364  -19.7328   21.9895 C.3     1  UNL1        0.0480
     25 C          -6.0610  -19.4278   20.5469 C.3     1  UNL1        0.1278
     26 O          -4.7099  -19.3874   19.8965 O.3     1  UNL1       -0.3830
     27 C          -7.3739  -19.1702   19.8687 C.3     1  UNL1        0.1017
     28 H          -4.8097  -19.1667   18.9572 H       1  UNL1        0.2104
@<TRIPOS>BOND
     1     8     9    1
     2     9    10   am
     3    10    11    2
     4    10    12    1
     5    12    13    1
     6    13    15    1
     7    15    16   ar
     8    16    17   ar
     9    17    18   ar
    10    18    19   ar
    11    19    20   ar
    12     9     1    1
    13     1    21    1
    14    21    22    1
    15    22    23    1
    16    23    24    1
    17    24    25    1
    18    25    26    1
    19    25    27    1
    20     1     2    1
    21     2     3   ar
    22     3     4   ar
    23     4     5   ar
    24     5     6   ar
    25     6     7   ar
    26    20    15   ar
    27    27    22    1
    28     7     2   ar
    29    13    14    1
    30    26    28    1
@<TRIPOS>MOLECULE
*****
 28 30 0 0 0
SMALL
GASTEIGER

@<TRIPOS>ATOM
      1 C          -9.2131  -16.8756   24.3044 C.3     1  UNL1        0.1139
      2 C          -8.0381  -16.2920   25.0316 C.ar    1  UNL1       -0.0029
      3 C          -6.8117  -15.8845   24.2700 C.ar    1  UNL1       -0.0026
      4 C          -5.6367  -15.3009   24.9973 C.ar    1  UNL1       -0.0003
      5 C          -5.6881  -15.1248   26.4860 C.ar    1  UNL1       -0.0000
      6 C          -6.9145  -15.5323   27.2475 C.ar    1  UNL1       -0.0003
      7 C          -8.0894  -16.1159   26.5204 C.ar    1  UNL1       -0.0026
      8 C          -9.9632  -19.2690   24.9816 C.3     1  UNL1        0.1152
      9 N          -9.2659  -18.3483   24.0246 N.am    1  UNL1       -0.2729
     10 C          -8.6214  -18.9003   22.7878 C.2     1  UNL1        0.2459
     11 O          -8.6742  -20.3730   22.5079 O.2     1  UNL1       -0.2730
     12 C          -7.9240  -17.9796   21.8307 C.3     1  UNL1        0.1738
     13 N          -7.0554  -18.5435   20.7456 N.pl3   1  UNL1       -0.3253
     14 H          -7.4188  -18.6686   19.8392 H       1  UNL1        0.1473
     15 C          -5.6330  -18.9169   21.0414 C.ar    1  UNL1        0.0450
     16 C          -5.0163  -18.5395   22.3557 C.ar    1  UNL1        0.0143
     17 C          -3.5940  -18.9129   22.6515 C.ar    1  UNL1        0.0013
     18 C          -2.7883  -19.6636   21.6330 C.ar    1  UNL1        0.0001
     19 C          -3.4049  -20.0409   20.3187 C.ar    1  UNL1        0.0013
     20 C          -4.8273  -19.6676   20.0230 C.ar    1  UNL1        0.0143
     21 C         -10.3352  -15.9865   23.8571 C.3     1  UNL1        0.0968
     22 N         -11.1592  -16.3626   22.6615 N.3     1  UNL1       -0.2689
     23 C         -12.2976  -17.3393   22.6471 C.3     1  UNL1        0.0748
     24 C         -12.8314  -17.4084   21.2470 C.3     1  UNL1        0.0480
     25 C         -12.0230  -16.4745   20.3961 C.3     1  UNL1        0.1278
     26 O         -12.2143  -16.2298   18.9286 O.3     1  UNL1       -0.3830
     27 C         -10.9895  -15.8281   21.2702 C.3     1  UNL1        0.1017
     28 H         -11.5616  -15.5816   18.6210 H       1  UNL1        0.2104
@<TRIPOS>BOND
     1     8     9    1
     2     9    10   am
     3    10    11    2
     4    10    12    1
     5    12    13    1
     6    13    15    1
     7    15    16   ar
     8    16    17   ar
     9    17    18   ar
    10    18    19   ar
    11    19    20   ar
    12     9     1    1
    13     1    21    1
    14    21    22    1
    15    22    23    1
    16    23    24    1
    17    24    25    1
    18    25    26    1
    19    25    27    1
    20     1     2    1
    21     2     3   ar
    22     3     4   ar
    23     4     5   ar
    24     5     6   ar
    25     6     7   ar
    26    20    15   ar
    27    27    22    1
    28     7     2   ar
    29    13    14    1
    30    26    28    1
@<TRIPOS>MOLECULE
*****
 28 30 0 0 0
SMALL
GASTEIGER

@<TRIPOS>ATOM
      1 C          -9.1878  -19.4939   22.1149 C.3     1  UNL1        0.1139
      2 C          -7.7821  -19.3519   21.6112 C.ar    1  UNL1       -0.0029
      3 C          -7.4773  -19.5887   20.1617 C.ar    1  UNL1       -0.0026
      4 C          -6.0714  -19.4468   19.6580 C.ar    1  UNL1       -0.0003
      5 C          -4.9706  -19.0680   20.6038 C.ar    1  UNL1       -0.0000
      6 C          -5.2754  -18.8312   22.0533 C.ar    1  UNL1       -0.0003
      7 C          -6.6811  -18.9732   22.5570 C.ar    1  UNL1       -0.0026
      8 C          -9.4493  -20.8457   24.3181 C.3     1  UNL1        0.1152
      9 N          -9.4554  -19.5342   23.5903 N.am    1  UNL1       -0.2729
     10 C          -9.7290  -18.2629   24.3379 C.2     1  UNL1        0.2459
     11 O          -9.9966  -18.3032   25.8132 O.2     1  UNL1       -0.2730
     12 C          -9.7351  -16.9512   23.6101 C.3     1  UNL1        0.1738
     13 N          -9.3314  -15.6954   24.3241 N.pl3   1  UNL1       -0.3253
     14 H          -9.9648  -14.9453   24.3969 H       1  UNL1        0.1473
     15 C          -7.9626  -15.5826   24.9272 C.ar    1  UNL1        0.0450
     16 C          -6.7550  -15.5182   24.0399 C.ar    1  UNL1        0.0143
     17 C          -5.3863  -15.4053   24.6430 C.ar    1  UNL1        0.0013
     18 C          -5.2251  -15.3568   26.1335 C.ar    1  UNL1        0.0001
     19 C          -6.4327  -15.4212   27.0209 C.ar    1  UNL1        0.0013
     20 C          -7.8015  -15.5341   26.4178 C.ar    1  UNL1        0.0143
     21 C         -10.3260  -19.5956   21.1432 C.3     1  UNL1        0.0968
     22 N         -11.1809  -18.3958   20.8613 N.3     1  UNL1       -0.2689
     23 C         -12.3401  -17.9250   21.6889 C.3     1  UNL1        0.0748
     24 C         -12.9024  -16.6944   21.0414 C.3     1  UNL1        0.0480
     25 C         -12.0909  -16.4045   19.8137 C.3     1  UNL1        0.1278
     26 O         -12.3055  -15.2634   18.8640 O.3     1  UNL1       -0.3830
     27 C         -11.0269  -17.4560   19.7023 C.3     1  UNL1        0.1017
     28 H         -11.6451  -15.3045   18.1547 H       1  UNL1        0.2104
@<TRIPOS>BOND
     1     8     9    1
     2     9    10   am
     3    10    11    2
     4    10    12    1
     5    12    13    1
     6    13    15    1
     7    15    16   ar
     8    16    17   ar
     9    17    18   ar
    10    18    19   ar
    11    19    20   ar
    12     9     1    1
    13     1    21    1
    14    21    22    1
    15    22    23    1
    16    23    24    1
    17    24    25    1
    18    25    26    1
    19    25    27    1
    20     1     2    1
    21     2     3   ar
    22     3     4   ar
    23     4     5   ar
    24     5     6   ar
    25     6     7   ar
    26    20    15   ar
    27    27    22    1
    28     7     2   ar
    29    13    14    1
    30    26    28    1
@<TRIPOS>MOLECULE
*****
 28 30 0 0 0
SMALL
GASTEIGER

@<TRIPOS>ATOM
      1 C          -8.0830  -16.9715   23.1657 C.3     1  UNL1        0.1139
      2 C          -7.6306  -16.3838   24.4694 C.ar    1  UNL1       -0.0029
      3 C          -6.2276  -15.8735   24.6155 C.ar    1  UNL1       -0.0026
      4 C          -5.7753  -15.2857   25.9194 C.ar    1  UNL1       -0.0003
      5 C          -6.7259  -15.2082   27.0771 C.ar    1  UNL1       -0.0000
      6 C          -8.1289  -15.7184   26.9310 C.ar    1  UNL1       -0.0003
      7 C          -8.5812  -16.3062   25.6272 C.ar    1  UNL1       -0.0026
      8 C          -9.3118  -19.2458   23.4258 C.3     1  UNL1        0.1152
      9 N          -8.1127  -18.4602   22.9842 N.am    1  UNL1       -0.2729
     10 C          -6.9434  -19.1633   22.3612 C.2     1  UNL1        0.2459
     11 O          -6.9731  -20.6520   22.1798 O.2     1  UNL1       -0.2730
     12 C          -5.7442  -18.3777   21.9196 C.3     1  UNL1        0.1738
     13 N          -4.3757  -18.7682   22.3936 N.pl3   1  UNL1       -0.3253
     14 H          -4.2754  -19.3640   23.1709 H       1  UNL1        0.1473
     15 C          -3.1600  -18.2509   21.6832 C.ar    1  UNL1        0.0450
     16 C          -2.4900  -19.0894   20.6354 C.ar    1  UNL1        0.0143
     17 C          -1.2744  -18.5721   19.9251 C.ar    1  UNL1        0.0013
     18 C          -0.7287  -17.2163   20.2626 C.ar    1  UNL1        0.0001
     19 C          -1.3987  -16.3777   21.3104 C.ar    1  UNL1        0.0013
     20 C          -2.6143  -16.8950   22.0207 C.ar    1  UNL1        0.0143
     21 C          -8.5056  -16.0706   22.0433 C.3     1  UNL1        0.0968
     22 N          -9.9240  -16.0946   21.5558 N.3     1  UNL1       -0.2689
     23 C         -11.1228  -16.5181   22.3517 C.3     1  UNL1        0.0748
     24 C         -12.3323  -16.3845   21.4745 C.3     1  UNL1        0.0480
     25 C         -11.8810  -15.8785   20.1366 C.3     1  UNL1        0.1278
     26 O         -12.7631  -15.6005   18.9557 O.3     1  UNL1       -0.3830
     27 C         -10.3925  -15.6993   20.1867 C.3     1  UNL1        0.1017
     28 H         -12.2223  -15.2823   18.2159 H       1  UNL1        0.2104
@<TRIPOS>BOND
     1     8     9    1
     2     9    10   am
     3    10    11    2
     4    10    12    1
     5    12    13    1
     6    13    15    1
     7    15    16   ar
     8    16    17   ar
     9    17    18   ar
    10    18    19   ar
    11    19    20   ar
    12     9     1    1
    13     1    21    1
    14    21    22    1
    15    22    23    1
    16    23    24    1
    17    24    25    1
    18    25    26    1
    19    25    27    1
    20     1     2    1
    21     2     3   ar
    22     3     4   ar
    23     4     5   ar
    24     5     6   ar
    25     6     7   ar
    26    20    15   ar
    27    27    22    1
    28     7     2   ar
    29    13    14    1
    30    26    28    1
@<TRIPOS>MOLECULE
*****
 28 30 0 0 0
SMALL
GASTEIGER

@<TRIPOS>ATOM
      1 C          -9.1866  -17.7243   21.8272 C.3     1  UNL1        0.1139
      2 C         -10.4099  -17.9929   22.6526 C.ar    1  UNL1       -0.0029
      3 C         -10.3435  -18.9562   23.8005 C.ar    1  UNL1       -0.0026
      4 C         -11.5668  -19.2249   24.6259 C.ar    1  UNL1       -0.0003
      5 C         -12.8566  -18.5302   24.3035 C.ar    1  UNL1       -0.0000
      6 C         -12.9230  -17.5669   23.1556 C.ar    1  UNL1       -0.0003
      7 C         -11.6997  -17.2982   22.3302 C.ar    1  UNL1       -0.0026
      8 C          -9.5490  -19.1791   19.7054 C.3     1  UNL1        0.1152
      9 N          -8.6908  -18.7599   20.8620 N.am    1  UNL1       -0.2729
     10 C          -7.3369  -19.3764   21.0533 C.2     1  UNL1        0.2459
     11 O          -6.8411  -20.4120   20.0881 O.2     1  UNL1       -0.2730
     12 C          -6.4786  -18.9572   22.2099 C.3     1  UNL1        0.1738
     13 N          -5.0676  -19.4551   22.3161 N.pl3   1  UNL1       -0.3253
     14 H          -4.8759  -20.2919   22.7981 H       1  UNL1        0.1473
     15 C          -3.9488  -18.6782   21.6877 C.ar    1  UNL1        0.0450
     16 C          -3.2448  -17.6103   22.4712 C.ar    1  UNL1        0.0143
     17 C          -2.1261  -16.8335   21.8428 C.ar    1  UNL1        0.0013
     18 C          -1.7114  -17.1246   20.4310 C.ar    1  UNL1        0.0001
     19 C          -2.4154  -18.1925   19.6475 C.ar    1  UNL1        0.0013
     20 C          -3.5341  -18.9693   20.2759 C.ar    1  UNL1        0.0143
     21 C          -8.4591  -16.4200   21.9670 C.3     1  UNL1        0.0968
     22 N          -8.0180  -15.9487   23.3210 N.3     1  UNL1       -0.2689
     23 C          -8.8755  -15.8679   24.5491 C.3     1  UNL1        0.0748
     24 C          -8.0294  -15.3446   25.6717 C.3     1  UNL1        0.0480
     25 C          -6.6490  -15.1019   25.1375 C.3     1  UNL1        0.1278
     26 O          -5.4807  -14.5780   25.9188 O.3     1  UNL1       -0.3830
     27 C          -6.6418  -15.4752   23.6846 C.3     1  UNL1        0.1017
     28 H          -4.7060  -14.5142   25.3385 H       1  UNL1        0.2104
@<TRIPOS>BOND
     1     8     9    1
     2     9    10   am
     3    10    11    2
     4    10    12    1
     5    12    13    1
     6    13    15    1
     7    15    16   ar
     8    16    17   ar
     9    17    18   ar
    10    18    19   ar
    11    19    20   ar
    12     9     1    1
    13     1    21    1
    14    21    22    1
    15    22    23    1
    16    23    24    1
    17    24    25    1
    18    25    26    1
    19    25    27    1
    20     1     2    1
    21     2     3   ar
    22     3     4   ar
    23     4     5   ar
    24     5     6   ar
    25     6     7   ar
    26    20    15   ar
    27    27    22    1
    28     7     2   ar
    29    13    14    1
    30    26    28    1
@<TRIPOS>MOLECULE
*****
 28 30 0 0 0
SMALL
GASTEIGER

@<TRIPOS>ATOM
      1 C          -9.3491  -18.3691   21.9533 C.3     1  UNL1        0.1139
      2 C         -10.6887  -17.9105   22.4483 C.ar    1  UNL1       -0.0029
      3 C         -11.2169  -16.5656   22.0456 C.ar    1  UNL1       -0.0026
      4 C         -12.5566  -16.1070   22.5407 C.ar    1  UNL1       -0.0003
      5 C         -13.3680  -16.9934   23.4385 C.ar    1  UNL1       -0.0000
      6 C         -12.8398  -18.3383   23.8412 C.ar    1  UNL1       -0.0003
      7 C         -11.5002  -18.7969   23.3461 C.ar    1  UNL1       -0.0026
      8 C         -10.4372  -19.1758   19.7363 C.3     1  UNL1        0.1152
      9 N          -9.2365  -19.0628   20.6282 N.am    1  UNL1       -0.2729
     10 C          -7.9232  -19.6436   20.1949 C.2     1  UNL1        0.2459
     11 O          -7.8106  -20.3374   18.8697 O.2     1  UNL1       -0.2730
     12 C          -6.7223  -19.5307   21.0868 C.3     1  UNL1        0.1738
     13 N          -5.4841  -20.3201   20.7810 N.pl3   1  UNL1       -0.3253
     14 H          -5.5451  -21.2900   20.6233 H       1  UNL1        0.1473
     15 C          -4.1529  -19.6318   20.7156 C.ar    1  UNL1        0.0450
     16 C          -3.6681  -19.0584   19.4171 C.ar    1  UNL1        0.0143
     17 C          -2.3369  -18.3702   19.3517 C.ar    1  UNL1        0.0013
     18 C          -1.4906  -18.2553   20.5848 C.ar    1  UNL1        0.0001
     19 C          -1.9754  -18.8287   21.8833 C.ar    1  UNL1        0.0013
     20 C          -3.3066  -19.5170   21.9487 C.ar    1  UNL1        0.0143
     21 C          -8.1221  -18.1339   22.7834 C.3     1  UNL1        0.0968
     22 N          -8.0348  -16.9249   23.6670 N.3     1  UNL1       -0.2689
     23 C          -7.4809  -15.5864   23.2777 C.3     1  UNL1        0.0748
     24 C          -7.5898  -14.6764   24.4652 C.3     1  UNL1        0.0480
     25 C          -8.2110  -15.4525   25.5885 C.3     1  UNL1        0.1278
     26 O          -8.5055  -14.9307   26.9636 O.3     1  UNL1       -0.3830
     27 C          -8.4861  -16.8422   25.0952 C.3     1  UNL1        0.1017
     28 H          -8.9067  -15.6343   27.4973 H       1  UNL1        0.2104
@<TRIPOS>BOND
     1     8     9    1
     2     9    10   am
     3    10    11    2
     4    10    12    1
     5    12    13    1
     6    13    15    1
     7    15    16   ar
     8    16    17   ar
     9    17    18   ar
    10    18    19   ar
    11    19    20   ar
    12     9     1    1
    13     1    21    1
    14    21    22    1
    15    22    23    1
    16    23    24    1
    17    24    25    1
    18    25    26    1
    19    25    27    1
    20     1     2    1
    21     2     3   ar
    22     3     4   ar
    23     4     5   ar
    24     5     6   ar
    25     6     7   ar
    26    20    15   ar
    27    27    22    1
    28     7     2   ar
    29    13    14    1
    30    26    28    1
@<TRIPOS>MOLECULE
*****
 28 30 0 0 0
SMALL
GASTEIGER

@<TRIPOS>ATOM
      1 C          -7.8561  -18.0887   21.5090 C.3     1  UNL1        0.1139
      2 C          -6.4525  -18.6140   21.4466 C.ar    1  UNL1       -0.0029
      3 C          -5.5875  -18.5901   22.6718 C.ar    1  UNL1       -0.0026
      4 C          -4.1838  -19.1154   22.6093 C.ar    1  UNL1       -0.0003
      5 C          -3.6452  -19.6646   21.3216 C.ar    1  UNL1       -0.0000
      6 C          -4.5102  -19.6885   20.0964 C.ar    1  UNL1       -0.0003
      7 C          -5.9138  -19.1632   20.1588 C.ar    1  UNL1       -0.0026
      8 C          -9.4939  -19.0822   19.7539 C.3     1  UNL1        0.1152
      9 N          -9.0087  -18.9867   21.1700 N.am    1  UNL1       -0.2729
     10 C          -9.6763  -19.7893   22.2471 C.2     1  UNL1        0.2459
     11 O         -10.8289  -20.6873   21.9081 O.2     1  UNL1       -0.2730
     12 C          -9.1912  -19.6939   23.6634 C.3     1  UNL1        0.1738
     13 N         -10.1121  -19.2014   24.7401 N.pl3   1  UNL1       -0.3253
     14 H          -9.8501  -19.2799   25.6858 H       1  UNL1        0.1473
     15 C         -11.4324  -18.5895   24.3758 C.ar    1  UNL1        0.0450
     16 C         -12.6742  -18.9901   25.1155 C.ar    1  UNL1        0.0143
     17 C         -13.9944  -18.3781   24.7512 C.ar    1  UNL1        0.0013
     18 C         -14.0726  -17.3657   23.6472 C.ar    1  UNL1        0.0001
     19 C         -12.8307  -16.9651   22.9075 C.ar    1  UNL1        0.0013
     20 C         -11.5106  -17.5770   23.2718 C.ar    1  UNL1        0.0143
     21 C          -8.1070  -16.6654   21.9105 C.3     1  UNL1        0.0968
     22 N          -7.6951  -16.1861   23.2709 N.3     1  UNL1       -0.2689
     23 C          -8.4728  -16.3637   24.5412 C.3     1  UNL1        0.0748
     24 C          -7.6915  -15.7324   25.6552 C.3     1  UNL1        0.0480
     25 C          -6.4309  -15.1646   25.0734 C.3     1  UNL1        0.1278
     26 O          -5.3566  -14.4430   25.8319 O.3     1  UNL1       -0.3830
     27 C          -6.4330  -15.4449   23.5998 C.3     1  UNL1        0.1017
     28 H          -4.6509  -14.1792   25.2209 H       1  UNL1        0.2104
@<TRIPOS>BOND
     1     8     9    1
     2     9    10   am
     3    10    11    2
     4    10    12    1
     5    12    13    1
     6    13    15    1
     7    15    16   ar
     8    16    17   ar
     9    17    18   ar
    10    18    19   ar
    11    19    20   ar
    12     9     1    1
    13     1    21    1
    14    21    22    1
    15    22    23    1
    16    23    24    1
    17    24    25    1
    18    25    26    1
    19    25    27    1
    20     1     2    1
    21     2     3   ar
    22     3     4   ar
    23     4     5   ar
    24     5     6   ar
    25     6     7   ar
    26    20    15   ar
    27    27    22    1
    28     7     2   ar
    29    13    14    1
    30    26    28    1
@<TRIPOS>MOLECULE
*****
 28 30 0 0 0
SMALL
GASTEIGER

@<TRIPOS>ATOM
      1 C          -8.0720  -17.6145   22.6902 C.3     1  UNL1        0.1139
      2 C          -8.8493  -18.6268   23.4781 C.ar    1  UNL1       -0.0029
      3 C          -8.5642  -20.0896   23.3078 C.ar    1  UNL1       -0.0026
      4 C          -9.3417  -21.1020   24.0958 C.ar    1  UNL1       -0.0003
      5 C         -10.4041  -20.6515   25.0541 C.ar    1  UNL1       -0.0000
      6 C         -10.6891  -19.1887   25.2244 C.ar    1  UNL1       -0.0003
      7 C          -9.9118  -18.1764   24.4365 C.ar    1  UNL1       -0.0026
      8 C          -9.7718  -17.3976   20.7374 C.3     1  UNL1        0.1152
      9 N          -8.7644  -16.7749   21.6580 N.am    1  UNL1       -0.2729
     10 C          -8.4496  -15.3126   21.5462 C.2     1  UNL1        0.2459
     11 O          -9.1420  -14.4730   20.5140 O.2     1  UNL1       -0.2730
     12 C          -7.4422  -14.6899   22.4668 C.3     1  UNL1        0.1738
     13 N          -7.8753  -14.1494   23.7973 N.pl3   1  UNL1       -0.3253
     14 H          -8.4157  -13.3277   23.8425 H       1  UNL1        0.1473
     15 C          -7.4850  -14.8608   25.0589 C.ar    1  UNL1        0.0450
     16 C          -8.5440  -15.3649   25.9940 C.ar    1  UNL1        0.0143
     17 C          -8.1538  -16.0763   27.2556 C.ar    1  UNL1        0.0013
     18 C          -6.7045  -16.2836   27.5820 C.ar    1  UNL1        0.0001
     19 C          -5.6455  -15.7796   26.6470 C.ar    1  UNL1        0.0013
     20 C          -6.0358  -15.0682   25.3854 C.ar    1  UNL1        0.0143
     21 C          -6.6021  -17.4418   22.9345 C.3     1  UNL1        0.0968
     22 N          -5.6191  -18.3646   22.2773 N.3     1  UNL1       -0.2689
     23 C          -4.2250  -18.6505   22.7515 C.3     1  UNL1        0.0748
     24 C          -3.6018  -19.6261   21.7978 C.3     1  UNL1        0.0480
     25 C          -4.6107  -19.9433   20.7340 C.3     1  UNL1        0.1278
     26 O          -4.4084  -20.8762   19.5770 O.3     1  UNL1       -0.3830
     27 C          -5.8574  -19.1636   21.0303 C.3     1  UNL1        0.1017
     28 H          -5.2147  -20.9030   19.0384 H       1  UNL1        0.2104
@<TRIPOS>BOND
     1     8     9    1
     2     9    10   am
     3    10    11    2
     4    10    12    1
     5    12    13    1
     6    13    15    1
     7    15    16   ar
     8    16    17   ar
     9    17    18   ar
    10    18    19   ar
    11    19    20   ar
    12     9     1    1
    13     1    21    1
    14    21    22    1
    15    22    23    1
    16    23    24    1
    17    24    25    1
    18    25    26    1
    19    25    27    1
    20     1     2    1
    21     2     3   ar
    22     3     4   ar
    23     4     5   ar
    24     5     6   ar
    25     6     7   ar
    26    20    15   ar
    27    27    22    1
    28     7     2   ar
    29    13    14    1
    30    26    28    1
@<TRIPOS>MOLECULE
*****
 28 30 0 0 0
SMALL
GASTEIGER

@<TRIPOS>ATOM
      1 C          -7.4551  -19.1130   21.9792 C.3     1  UNL1        0.1139
      2 C          -7.1452  -17.7162   22.4294 C.ar    1  UNL1       -0.0029
      3 C          -7.9062  -16.5574   21.8567 C.ar    1  UNL1       -0.0026
      4 C          -7.5963  -15.1605   22.3070 C.ar    1  UNL1       -0.0003
      5 C          -6.5254  -14.9225   23.3300 C.ar    1  UNL1       -0.0000
      6 C          -5.7644  -16.0813   23.9027 C.ar    1  UNL1       -0.0003
      7 C          -6.0743  -17.4781   23.4525 C.ar    1  UNL1       -0.0026
      8 C          -9.2894  -19.4203   20.1651 C.3     1  UNL1        0.1152
      9 N          -8.8580  -19.4850   21.6002 N.am    1  UNL1       -0.2729
     10 C          -9.8294  -19.9218   22.6564 C.2     1  UNL1        0.2459
     11 O         -11.2322  -20.2939   22.2774 O.2     1  UNL1       -0.2730
     12 C          -9.3979  -19.9866   24.0916 C.3     1  UNL1        0.1738
     13 N         -10.1265  -19.1868   25.1306 N.pl3   1  UNL1       -0.3253
     14 H         -10.9667  -19.5274   25.5142 H       1  UNL1        0.1473
     15 C          -9.5747  -17.8681   25.5851 C.ar    1  UNL1        0.0450
     16 C          -9.7241  -16.6535   24.7176 C.ar    1  UNL1        0.0143
     17 C          -9.1724  -15.3349   25.1721 C.ar    1  UNL1        0.0013
     18 C          -8.4713  -15.2307   26.4941 C.ar    1  UNL1        0.0001
     19 C          -8.3219  -16.4453   27.3616 C.ar    1  UNL1        0.0013
     20 C          -8.8736  -17.7639   26.9071 C.ar    1  UNL1        0.0143
     21 C          -6.3622  -20.1378   21.9079 C.3     1  UNL1        0.0968
     22 N          -4.9939  -19.7435   21.4363 N.3     1  UNL1       -0.2689
     23 C          -3.7497  -19.7056   22.2734 C.3     1  UNL1        0.0748
     24 C          -2.6164  -19.2566   21.3993 C.3     1  UNL1        0.0480
     25 C          -3.1601  -19.0169   20.0220 C.3     1  UNL1        0.1278
     26 O          -2.3728  -18.5570   18.8310 O.3     1  UNL1       -0.3830
     27 C          -4.6295  -19.3179   20.0448 C.3     1  UNL1        0.1017
     28 H          -2.9616  -18.4810   18.0639 H       1  UNL1        0.2104
@<TRIPOS>BOND
     1     8     9    1
     2     9    10   am
     3    10    11    2
     4    10    12    1
     5    12    13    1
     6    13    15    1
     7    15    16   ar
     8    16    17   ar
     9    17    18   ar
    10    18    19   ar
    11    19    20   ar
    12     9     1    1
    13     1    21    1
    14    21    22    1
    15    22    23    1
    16    23    24    1
    17    24    25    1
    18    25    26    1
    19    25    27    1
    20     1     2    1
    21     2     3   ar
    22     3     4   ar
    23     4     5   ar
    24     5     6   ar
    25     6     7   ar
    26    20    15   ar
    27    27    22    1
    28     7     2   ar
    29    13    14    1
    30    26    28    1
