@<TRIPOS>MOLECULE
*****
 32 35 0 0 0
SMALL
GASTEIGER

@<TRIPOS>ATOM
      1 O          -8.1702  -19.2899   21.6206 O.3     1  UNL1       -0.3470
      2 C          -9.0930  -18.7663   22.6809 C.3     1  UNL1        0.1467
      3 C         -12.4934  -15.8709   19.0898 C.3     1  UNL1        0.0896
      4 N         -11.6504  -16.4402   20.1922 N.3     1  UNL1       -0.2715
      5 C         -11.5330  -15.7126   21.4987 C.3     1  UNL1        0.0725
      6 C         -10.6900  -16.2819   22.6010 C.3     1  UNL1        0.0238
      7 C          -9.9644  -17.5788   22.3970 C.3     1  UNL1        0.0489
      8 C         -10.0819  -18.3064   21.0905 C.3     1  UNL1        0.0238
      9 C         -10.9249  -17.7370   19.9882 C.3     1  UNL1        0.0725
     10 C          -9.5443  -17.2636   23.8021 C.ar    1  UNL1       -0.0202
     11 C          -8.9287  -15.9333   24.1202 C.ar    1  UNL1       -0.0019
     12 C          -8.5086  -15.6181   25.5252 C.ar    1  UNL1        0.0293
     13 C          -8.7041  -16.6332   26.6121 C.ar    1  UNL1        0.1401
     14 F          -8.2839  -16.3180   28.0172 F       1  UNL1       -0.2042
     15 C          -9.3197  -17.9636   26.2940 C.ar    1  UNL1        0.0293
     16 C          -9.7398  -18.2788   24.8889 C.ar    1  UNL1       -0.0019
     17 C          -6.7904  -19.7499   21.9876 C.3     1  UNL1        0.1875
     18 C          -5.7233  -18.7437   22.3019 C.ar    1  UNL1        0.0901
     19 C          -5.9311  -17.7503   23.4065 C.ar    1  UNL1        0.0212
     20 C          -4.8639  -16.7441   23.7207 C.ar    1  UNL1        0.0754
     21 C          -3.5891  -16.7312   22.9305 C.ar    1  UNL1        0.0382
     22 C          -3.3813  -17.7246   21.8259 C.ar    1  UNL1        0.1318
     23 N          -4.4484  -18.7309   21.5116 N.ar    1  UNL1       -0.2325
     24 N          -2.1064  -17.7118   21.0357 N.pl3   1  UNL1       -0.2851
     25 C          -1.1874  -16.5387   20.8638 C.3     1  UNL1        0.1187
     26 C          -0.0397  -16.9715   20.0005 C.2     1  UNL1       -0.0076
     27 C          -0.2493  -18.4121   19.6388 C.2     1  UNL1       -0.0076
     28 C          -1.5266  -18.8696   20.2785 C.3     1  UNL1        0.1187
     29 C          -5.0716  -15.7506   24.8253 C.3     1  UNL1        0.4187
     30 F          -5.2793  -14.7572   25.9297 F       1  UNL1       -0.1659
     31 F          -5.6504  -14.7776   23.8412 F       1  UNL1       -0.1659
     32 F          -4.4928  -16.7237   25.8092 F       1  UNL1       -0.1659
@<TRIPOS>BOND
     1     3     4    1
     2     4     5    1
     3     5     6    1
     4     6     7    1
     5     7     2    1
     6     2     1    1
     7     1    17    1
     8    17    18    1
     9    18    19   ar
    10    19    20   ar
    11    20    29    1
    12    29    30    1
    13    29    31    1
    14    29    32    1
    15    20    21   ar
    16    21    22   ar
    17    22    24    1
    18    24    25    1
    19    25    26    1
    20    26    27    2
    21    27    28    1
    22    22    23   ar
    23     7    10    1
    24    10    11   ar
    25    11    12   ar
    26    12    13   ar
    27    13    14    1
    28    13    15   ar
    29    15    16   ar
    30     7     8    1
    31     8     9    1
    32     9     4    1
    33    23    18   ar
    34    16    10   ar
    35    28    24    1
@<TRIPOS>MOLECULE
*****
 32 35 0 0 0
SMALL
GASTEIGER

@<TRIPOS>ATOM
      1 O          -9.2243  -16.3152   21.1113 O.3     1  UNL1       -0.3470
      2 C         -10.3105  -17.3341   20.9329 C.3     1  UNL1        0.1467
      3 C         -13.9479  -18.5250   25.1982 C.3     1  UNL1        0.0896
      4 N         -12.8706  -18.4191   24.1599 N.3     1  UNL1       -0.2715
      5 C         -11.7663  -19.4334   24.1187 C.3     1  UNL1        0.0725
      6 C         -10.6890  -19.3275   23.0804 C.3     1  UNL1        0.0238
      7 C         -10.7160  -18.2073   22.0832 C.3     1  UNL1        0.0489
      8 C         -11.8203  -17.1931   22.1243 C.3     1  UNL1        0.0238
      9 C         -12.8976  -17.2989   23.1627 C.3     1  UNL1        0.0725
     10 C          -9.4708  -18.9184   21.6425 C.ar    1  UNL1       -0.0202
     11 C          -9.2176  -19.1526   20.1828 C.ar    1  UNL1       -0.0019
     12 C          -7.9726  -19.8636   19.7421 C.ar    1  UNL1        0.0293
     13 C          -6.9807  -20.3403   20.7613 C.ar    1  UNL1        0.1401
     14 F          -5.7355  -21.0514   20.3206 F       1  UNL1       -0.2042
     15 C          -7.2338  -20.1062   22.2211 C.ar    1  UNL1        0.0293
     16 C          -8.4789  -19.3951   22.6617 C.ar    1  UNL1       -0.0019
     17 C          -9.0803  -15.5934   22.4183 C.3     1  UNL1        0.1875
     18 C          -7.8494  -15.7910   23.2525 C.ar    1  UNL1        0.0901
     19 C          -7.8076  -15.2770   24.6612 C.ar    1  UNL1        0.0212
     20 C          -6.5767  -15.4747   25.4953 C.ar    1  UNL1        0.0754
     21 C          -5.3876  -16.1861   24.9209 C.ar    1  UNL1        0.0382
     22 C          -5.4294  -16.7000   23.5123 C.ar    1  UNL1        0.1318
     23 N          -6.6603  -16.5024   22.6781 N.ar    1  UNL1       -0.2325
     24 N          -4.2404  -17.4114   22.9379 N.pl3   1  UNL1       -0.2851
     25 C          -4.1221  -18.8895   22.7111 C.3     1  UNL1        0.1187
     26 C          -2.7695  -19.1614   22.1225 C.2     1  UNL1       -0.0076
     27 C          -2.0518  -17.8514   21.9855 C.2     1  UNL1       -0.0076
     28 C          -2.9608  -16.7699   22.4895 C.3     1  UNL1        0.1187
     29 C          -6.5348  -14.9608   26.9040 C.3     1  UNL1        0.4187
     30 F          -6.4929  -14.4469   28.3126 F       1  UNL1       -0.1659
     31 F          -7.8721  -15.5854   27.1715 F       1  UNL1       -0.1659
     32 F          -5.1975  -14.3362   26.6363 F       1  UNL1       -0.1659
@<TRIPOS>BOND
     1     3     4    1
     2     4     5    1
     3     5     6    1
     4     6     7    1
     5     7     2    1
     6     2     1    1
     7     1    17    1
     8    17    18    1
     9    18    19   ar
    10    19    20   ar
    11    20    29    1
    12    29    30    1
    13    29    31    1
    14    29    32    1
    15    20    21   ar
    16    21    22   ar
    17    22    24    1
    18    24    25    1
    19    25    26    1
    20    26    27    2
    21    27    28    1
    22    22    23   ar
    23     7    10    1
    24    10    11   ar
    25    11    12   ar
    26    12    13   ar
    27    13    14    1
    28    13    15   ar
    29    15    16   ar
    30     7     8    1
    31     8     9    1
    32     9     4    1
    33    23    18   ar
    34    16    10   ar
    35    28    24    1
@<TRIPOS>MOLECULE
*****
 32 35 0 0 0
SMALL
GASTEIGER

@<TRIPOS>ATOM
      1 O         -14.0333   -2.7900   20.3136 O.3     1  UNL1       -0.3470
      2 C         -14.0698   -2.5901   18.8274 C.3     1  UNL1        0.1467
      3 C         -14.7599    3.0094   17.8219 C.3     1  UNL1        0.0896
      4 N         -14.3617    1.5697   17.9580 N.3     1  UNL1       -0.2715
      5 C         -13.0720    1.0886   17.3620 C.3     1  UNL1        0.0725
      6 C         -12.6738   -0.3511   17.4981 C.3     1  UNL1        0.0238
      7 C         -13.5653   -1.3099   18.2302 C.3     1  UNL1        0.0489
      8 C         -14.8550   -0.8288   18.8262 C.3     1  UNL1        0.0238
      9 C         -15.2532    0.6109   18.6901 C.3     1  UNL1        0.0725
     10 C         -12.4508   -2.2355   17.8416 C.ar    1  UNL1       -0.0202
     11 C         -11.1943   -2.2816   18.6596 C.ar    1  UNL1       -0.0019
     12 C         -10.0798   -3.2072   18.2710 C.ar    1  UNL1        0.0293
     13 C         -10.2218   -4.0868   17.0643 C.ar    1  UNL1        0.1401
     14 F          -9.1072   -5.0124   16.6757 F       1  UNL1       -0.2042
     15 C         -11.4782   -4.0408   16.2462 C.ar    1  UNL1        0.0293
     16 C         -12.5927   -3.1151   16.6349 C.ar    1  UNL1       -0.0019
     17 C         -14.1629   -4.1695   20.8882 C.3     1  UNL1        0.1875
     18 C         -13.9586   -5.3693   20.0115 C.ar    1  UNL1        0.0901
     19 C         -12.5787   -5.7356   19.5511 C.ar    1  UNL1        0.0212
     20 C         -12.3744   -6.9354   18.6745 C.ar    1  UNL1        0.0754
     21 C         -13.5499   -7.7690   18.2581 C.ar    1  UNL1        0.0382
     22 C         -14.9298   -7.4028   18.7185 C.ar    1  UNL1        0.1318
     23 N         -15.1341   -6.2030   19.5952 N.ar    1  UNL1       -0.2325
     24 N         -16.1052   -8.2364   18.3022 N.pl3   1  UNL1       -0.2851
     25 C         -16.5287   -9.5352   18.9219 C.3     1  UNL1        0.1187
     26 C         -17.7487  -10.0192   18.1959 C.2     1  UNL1       -0.0076
     27 C         -18.0793   -9.0196   17.1274 C.2     1  UNL1       -0.0076
     28 C         -17.0635   -7.9178   17.1932 C.3     1  UNL1        0.1187
     29 C         -10.9946   -7.3018   18.2140 C.3     1  UNL1        0.4187
     30 F          -9.6148   -7.6680   17.7537 F       1  UNL1       -0.1659
     31 F         -10.4067   -6.4882   19.3288 F       1  UNL1       -0.1659
     32 F         -11.5825   -8.1152   17.0993 F       1  UNL1       -0.1659
@<TRIPOS>BOND
     1     3     4    1
     2     4     5    1
     3     5     6    1
     4     6     7    1
     5     7     2    1
     6     2     1    1
     7     1    17    1
     8    17    18    1
     9    18    19   ar
    10    19    20   ar
    11    20    29    1
    12    29    30    1
    13    29    31    1
    14    29    32    1
    15    20    21   ar
    16    21    22   ar
    17    22    24    1
    18    24    25    1
    19    25    26    1
    20    26    27    2
    21    27    28    1
    22    22    23   ar
    23     7    10    1
    24    10    11   ar
    25    11    12   ar
    26    12    13   ar
    27    13    14    1
    28    13    15   ar
    29    15    16   ar
    30     7     8    1
    31     8     9    1
    32     9     4    1
    33    23    18   ar
    34    16    10   ar
    35    28    24    1
@<TRIPOS>MOLECULE
*****
 32 35 0 0 0
SMALL
GASTEIGER

@<TRIPOS>ATOM
      1 O          -8.8643  -19.5229   23.1109 O.3     1  UNL1       -0.3470
      2 C         -10.0096  -18.6212   23.4647 C.3     1  UNL1        0.1467
      3 C          -8.0062  -15.3335   27.7096 C.3     1  UNL1        0.0896
      4 N          -8.5854  -15.9750   26.4836 N.3     1  UNL1       -0.2715
      5 C          -9.1142  -15.1216   25.3692 C.3     1  UNL1        0.0725
      6 C          -9.6933  -15.7632   24.1432 C.3     1  UNL1        0.0238
      7 C          -9.7436  -17.2582   24.0316 C.3     1  UNL1        0.0489
      8 C          -9.2148  -18.1116   25.1461 C.3     1  UNL1        0.0238
      9 C          -8.6356  -17.4700   26.3720 C.3     1  UNL1        0.0725
     10 C         -10.3649  -16.8781   22.7203 C.ar    1  UNL1       -0.0202
     11 C          -9.6439  -15.9476   21.7905 C.ar    1  UNL1       -0.0019
     12 C         -10.2651  -15.5675   20.4792 C.ar    1  UNL1        0.0293
     13 C         -11.6073  -16.1180   20.0976 C.ar    1  UNL1        0.1401
     14 F         -12.2286  -15.7379   18.7863 F       1  UNL1       -0.2042
     15 C         -12.3283  -17.0484   21.0274 C.ar    1  UNL1        0.0293
     16 C         -11.7070  -17.4285   22.3387 C.ar    1  UNL1       -0.0019
     17 C          -7.9395  -19.1554   21.9885 C.3     1  UNL1        0.1875
     18 C          -6.6670  -18.4155   22.2769 C.ar    1  UNL1        0.0901
     19 C          -6.5950  -17.4731   23.4418 C.ar    1  UNL1        0.0212
     20 C          -5.3225  -16.7332   23.7302 C.ar    1  UNL1        0.0754
     21 C          -4.1220  -16.9355   22.8539 C.ar    1  UNL1        0.0382
     22 C          -4.1941  -17.8779   21.6890 C.ar    1  UNL1        0.1318
     23 N          -5.4666  -18.6179   21.4005 N.ar    1  UNL1       -0.2325
     24 N          -2.9936  -18.0803   20.8127 N.pl3   1  UNL1       -0.2851
     25 C          -1.6114  -18.4312   21.2780 C.3     1  UNL1        0.1187
     26 C          -0.7281  -18.5350   20.0702 C.2     1  UNL1       -0.0076
     27 C          -1.5644  -18.2483   18.8584 C.2     1  UNL1       -0.0076
     28 C          -2.9645  -17.9672   19.3173 C.3     1  UNL1        0.1187
     29 C          -5.2503  -15.7908   24.8951 C.3     1  UNL1        0.4187
     30 F          -5.1782  -14.8484   26.0598 F       1  UNL1       -0.1659
     31 F          -6.0929  -14.8010   24.1464 F       1  UNL1       -0.1659
     32 F          -4.4078  -16.7806   25.6436 F       1  UNL1       -0.1659
@<TRIPOS>BOND
     1     3     4    1
     2     4     5    1
     3     5     6    1
     4     6     7    1
     5     7     2    1
     6     2     1    1
     7     1    17    1
     8    17    18    1
     9    18    19   ar
    10    19    20   ar
    11    20    29    1
    12    29    30    1
    13    29    31    1
    14    29    32    1
    15    20    21   ar
    16    21    22   ar
    17    22    24    1
    18    24    25    1
    19    25    26    1
    20    26    27    2
    21    27    28    1
    22    22    23   ar
    23     7    10    1
    24    10    11   ar
    25    11    12   ar
    26    12    13   ar
    27    13    14    1
    28    13    15   ar
    29    15    16   ar
    30     7     8    1
    31     8     9    1
    32     9     4    1
    33    23    18   ar
    34    16    10   ar
    35    28    24    1
@<TRIPOS>MOLECULE
*****
 32 35 0 0 0
SMALL
GASTEIGER

@<TRIPOS>ATOM
      1 O         -10.1736  -19.8467   22.8065 O.3     1  UNL1       -0.3470
      2 C         -10.9993  -18.7022   23.3148 C.3     1  UNL1        0.1467
      3 C          -7.9730  -16.0874   27.4193 C.3     1  UNL1        0.0896
      4 N          -8.7579  -16.5479   26.2268 N.3     1  UNL1       -0.2715
      5 C          -9.0556  -15.5917   25.1101 C.3     1  UNL1        0.0725
      6 C          -9.8405  -16.0522   23.9177 C.3     1  UNL1        0.0238
      7 C         -10.3277  -17.4688   23.8420 C.3     1  UNL1        0.0489
      8 C         -10.0300  -18.4250   24.9587 C.3     1  UNL1        0.0238
      9 C          -9.2451  -17.9645   26.1511 C.3     1  UNL1        0.0725
     10 C         -10.8587  -16.9410   22.5421 C.ar    1  UNL1       -0.0202
     11 C          -9.9762  -16.1196   21.6497 C.ar    1  UNL1       -0.0019
     12 C         -10.5071  -15.5917   20.3499 C.ar    1  UNL1        0.0293
     13 C         -11.9205  -15.8853   19.9426 C.ar    1  UNL1        0.1401
     14 F         -12.4515  -15.3575   18.6428 F       1  UNL1       -0.2042
     15 C         -12.8031  -16.7067   20.8350 C.ar    1  UNL1        0.0293
     16 C         -12.2721  -17.2346   22.1348 C.ar    1  UNL1       -0.0019
     17 C          -9.3515  -19.6840   21.5624 C.3     1  UNL1        0.1875
     18 C          -7.9070  -19.2929   21.6639 C.ar    1  UNL1        0.0901
     19 C          -6.8943  -19.9199   20.7520 C.ar    1  UNL1        0.0212
     20 C          -5.4498  -19.5287   20.8535 C.ar    1  UNL1        0.0754
     21 C          -5.0179  -18.5106   21.8668 C.ar    1  UNL1        0.0382
     22 C          -6.0305  -17.8836   22.7788 C.ar    1  UNL1        0.1318
     23 N          -7.4750  -18.2747   22.6773 N.ar    1  UNL1       -0.2325
     24 N          -5.5985  -16.8655   23.7921 N.pl3   1  UNL1       -0.2851
     25 C          -6.0121  -15.4240   23.8252 C.3     1  UNL1        0.1187
     26 C          -5.3464  -14.7777   25.0037 C.2     1  UNL1       -0.0076
     27 C          -4.5213  -15.8197   25.6990 C.2     1  UNL1       -0.0076
     28 C          -4.6771  -17.1101   24.9501 C.3     1  UNL1        0.1187
     29 C          -4.4371  -20.1557   19.9416 C.3     1  UNL1        0.4187
     30 F          -3.4245  -20.7827   19.0298 F       1  UNL1       -0.1659
     31 F          -5.1264  -21.4801   20.0870 F       1  UNL1       -0.1659
     32 F          -3.7480  -18.8313   19.7964 F       1  UNL1       -0.1659
@<TRIPOS>BOND
     1     3     4    1
     2     4     5    1
     3     5     6    1
     4     6     7    1
     5     7     2    1
     6     2     1    1
     7     1    17    1
     8    17    18    1
     9    18    19   ar
    10    19    20   ar
    11    20    29    1
    12    29    30    1
    13    29    31    1
    14    29    32    1
    15    20    21   ar
    16    21    22   ar
    17    22    24    1
    18    24    25    1
    19    25    26    1
    20    26    27    2
    21    27    28    1
    22    22    23   ar
    23     7    10    1
    24    10    11   ar
    25    11    12   ar
    26    12    13   ar
    27    13    14    1
    28    13    15   ar
    29    15    16   ar
    30     7     8    1
    31     8     9    1
    32     9     4    1
    33    23    18   ar
    34    16    10   ar
    35    28    24    1
@<TRIPOS>MOLECULE
*****
 32 35 0 0 0
SMALL
GASTEIGER

@<TRIPOS>ATOM
      1 O          -8.4943  -19.3807   20.9222 O.3     1  UNL1       -0.3470
      2 C          -9.1236  -18.8077   22.1574 C.3     1  UNL1        0.1467
      3 C         -12.8404  -15.7790   19.0182 C.3     1  UNL1        0.0896
      4 N         -11.9287  -16.4124   20.0269 N.3     1  UNL1       -0.2715
      5 C         -11.8544  -15.8623   21.4204 C.3     1  UNL1        0.0725
      6 C         -10.9427  -16.4957   22.4292 C.3     1  UNL1        0.0238
      7 C         -10.1053  -17.6791   22.0445 C.3     1  UNL1        0.0489
      8 C         -10.1795  -18.2292   20.6510 C.3     1  UNL1        0.0238
      9 C         -11.0912  -17.5959   19.6423 C.3     1  UNL1        0.0725
     10 C          -9.6901  -17.5210   23.4772 C.ar    1  UNL1       -0.0202
     11 C          -8.9759  -16.2779   23.9183 C.ar    1  UNL1       -0.0019
     12 C          -8.5607  -16.1196   25.3509 C.ar    1  UNL1        0.0293
     13 C          -8.8598  -17.2046   26.3426 C.ar    1  UNL1        0.1401
     14 F          -8.4446  -17.0464   27.7753 F       1  UNL1       -0.2042
     15 C          -9.5740  -18.4478   25.9016 C.ar    1  UNL1        0.0293
     16 C          -9.9892  -18.6059   24.4689 C.ar    1  UNL1       -0.0019
     17 C          -7.1510  -20.0432   21.0031 C.3     1  UNL1        0.1875
     18 C          -5.9550  -19.2606   21.4583 C.ar    1  UNL1        0.0901
     19 C          -4.6354  -19.4379   20.7674 C.ar    1  UNL1        0.0212
     20 C          -3.4395  -18.6553   21.2226 C.ar    1  UNL1        0.0754
     21 C          -3.5631  -17.6953   22.3685 C.ar    1  UNL1        0.0382
     22 C          -4.8827  -17.5180   23.0594 C.ar    1  UNL1        0.1318
     23 N          -6.0787  -18.3006   22.6042 N.ar    1  UNL1       -0.2325
     24 N          -5.0063  -16.5580   24.2053 N.pl3   1  UNL1       -0.2851
     25 C          -5.3031  -15.0915   24.0988 C.3     1  UNL1        0.1187
     26 C          -5.3351  -14.5231   25.4865 C.2     1  UNL1       -0.0076
     27 C          -5.0580  -15.6383   26.4507 C.2     1  UNL1       -0.0076
     28 C          -4.8548  -16.8959   25.6588 C.3     1  UNL1        0.1187
     29 C          -2.1198  -18.8325   20.5318 C.3     1  UNL1        0.4187
     30 F          -0.8002  -19.0098   19.8410 F       1  UNL1       -0.1659
     31 F          -2.3337  -17.5448   19.7928 F       1  UNL1       -0.1659
     32 F          -1.9060  -20.1202   21.2708 F       1  UNL1       -0.1659
@<TRIPOS>BOND
     1     3     4    1
     2     4     5    1
     3     5     6    1
     4     6     7    1
     5     7     2    1
     6     2     1    1
     7     1    17    1
     8    17    18    1
     9    18    19   ar
    10    19    20   ar
    11    20    29    1
    12    29    30    1
    13    29    31    1
    14    29    32    1
    15    20    21   ar
    16    21    22   ar
    17    22    24    1
    18    24    25    1
    19    25    26    1
    20    26    27    2
    21    27    28    1
    22    22    23   ar
    23     7    10    1
    24    10    11   ar
    25    11    12   ar
    26    12    13   ar
    27    13    14    1
    28    13    15   ar
    29    15    16   ar
    30     7     8    1
    31     8     9    1
    32     9     4    1
    33    23    18   ar
    34    16    10   ar
    35    28    24    1
@<TRIPOS>MOLECULE
*****
 32 35 0 0 0
SMALL
GASTEIGER

@<TRIPOS>ATOM
      1 O           1.9855    0.2230   22.3064 O.3     1  UNL1       -0.3470
      2 C           3.3986    0.1227   22.7992 C.3     1  UNL1        0.1467
      3 C           2.5048   -0.1786   28.4518 C.3     1  UNL1        0.0896
      4 N           2.8990   -0.2925   27.0090 N.3     1  UNL1       -0.2715
      5 C           3.8918   -1.3329   26.5826 C.3     1  UNL1        0.0725
      6 C           4.2859   -1.4467   25.1398 C.3     1  UNL1        0.0238
      7 C           3.6873   -0.5201   24.1234 C.3     1  UNL1        0.0489
      8 C           2.6945    0.5203   24.5498 C.3     1  UNL1        0.0238
      9 C           2.3003    0.6341   25.9926 C.3     1  UNL1        0.0725
     10 C           4.5799   -1.3373   23.2371 C.ar    1  UNL1       -0.0202
     11 C           5.6249   -0.6631   22.3985 C.ar    1  UNL1       -0.0019
     12 C           6.5175   -1.4802   21.5122 C.ar    1  UNL1        0.0293
     13 C           6.3650   -2.9717   21.4645 C.ar    1  UNL1        0.1401
     14 F           7.2576   -3.7889   20.5782 F       1  UNL1       -0.2042
     15 C           5.3199   -3.6460   22.3030 C.ar    1  UNL1        0.0293
     16 C           4.4274   -2.8288   23.1893 C.ar    1  UNL1       -0.0019
     17 C           1.6565   -0.1491   20.8910 C.3     1  UNL1        0.1875
     18 C           2.7433   -0.6072   19.9641 C.ar    1  UNL1        0.0901
     19 C           2.9967   -2.0731   19.7719 C.ar    1  UNL1        0.0212
     20 C           4.0834   -2.5311   18.8450 C.ar    1  UNL1        0.0754
     21 C           4.9167   -1.5233   18.1102 C.ar    1  UNL1        0.0382
     22 C           4.6633   -0.0573   18.3024 C.ar    1  UNL1        0.1318
     23 N           3.5766    0.4007   19.2293 N.ar    1  UNL1       -0.2325
     24 N           5.4966    0.9504   17.5676 N.pl3   1  UNL1       -0.2851
     25 C           5.3963    2.4414   17.6990 C.3     1  UNL1        0.1187
     26 C           6.4142    3.0567   16.7851 C.2     1  UNL1       -0.0076
     27 C           7.1435    1.9462   16.0889 C.2     1  UNL1       -0.0076
     28 C           6.5764    0.6444   16.5725 C.3     1  UNL1        0.1187
     29 C           4.3369   -3.9970   18.6528 C.3     1  UNL1        0.4187
     30 F           4.5903   -5.4629   18.4606 F       1  UNL1       -0.1659
     31 F           2.9732   -4.3041   19.1968 F       1  UNL1       -0.1659
     32 F           5.7006   -3.6899   18.1087 F       1  UNL1       -0.1659
@<TRIPOS>BOND
     1     3     4    1
     2     4     5    1
     3     5     6    1
     4     6     7    1
     5     7     2    1
     6     2     1    1
     7     1    17    1
     8    17    18    1
     9    18    19   ar
    10    19    20   ar
    11    20    29    1
    12    29    30    1
    13    29    31    1
    14    29    32    1
    15    20    21   ar
    16    21    22   ar
    17    22    24    1
    18    24    25    1
    19    25    26    1
    20    26    27    2
    21    27    28    1
    22    22    23   ar
    23     7    10    1
    24    10    11   ar
    25    11    12   ar
    26    12    13   ar
    27    13    14    1
    28    13    15   ar
    29    15    16   ar
    30     7     8    1
    31     8     9    1
    32     9     4    1
    33    23    18   ar
    34    16    10   ar
    35    28    24    1
@<TRIPOS>MOLECULE
*****
 32 35 0 0 0
SMALL
GASTEIGER

@<TRIPOS>ATOM
      1 O           0.9898   -0.1983   19.8178 O.3     1  UNL1       -0.3470
      2 C           1.6204    0.2539   18.5342 C.3     1  UNL1        0.1467
      3 C           1.0743    5.9586   18.5260 C.3     1  UNL1        0.0896
      4 N           1.4648    4.5106   18.4988 N.3     1  UNL1       -0.2715
      5 C           2.9052    4.1251   18.3360 C.3     1  UNL1        0.0725
      6 C           3.2956    2.6771   18.3088 C.3     1  UNL1        0.0238
      7 C           2.2456    1.6145   18.4444 C.3     1  UNL1        0.0489
      8 C           0.8052    2.0000   18.6071 C.3     1  UNL1        0.0238
      9 C           0.4148    3.4480   18.6344 C.3     1  UNL1        0.0725
     10 C           3.4690    0.7565   18.3128 C.ar    1  UNL1       -0.0202
     11 C           4.6551    1.0008   19.1978 C.ar    1  UNL1       -0.0019
     12 C           5.8785    0.1429   19.0663 C.ar    1  UNL1        0.0293
     13 C           5.9156   -0.9594   18.0497 C.ar    1  UNL1        0.1401
     14 F           7.1390   -1.8174   17.9181 F       1  UNL1       -0.2042
     15 C           4.7295   -1.2038   17.1646 C.ar    1  UNL1        0.0293
     16 C           3.5061   -0.3458   17.2961 C.ar    1  UNL1       -0.0019
     17 C           1.8010   -0.2379   21.0789 C.3     1  UNL1        0.1875
     18 C           2.8042   -1.3327   21.2913 C.ar    1  UNL1        0.0901
     19 C           3.1015   -2.3023   20.1860 C.ar    1  UNL1        0.0212
     20 C           4.1047   -3.3970   20.3985 C.ar    1  UNL1        0.0754
     21 C           4.8106   -3.5222   21.7160 C.ar    1  UNL1        0.0382
     22 C           4.5133   -2.5526   22.8213 C.ar    1  UNL1        0.1318
     23 N           3.5101   -1.4578   22.6089 N.ar    1  UNL1       -0.2325
     24 N           5.2192   -2.6778   24.1389 N.pl3   1  UNL1       -0.2851
     25 C           6.2343   -3.7216   24.4996 C.3     1  UNL1        0.1187
     26 C           6.6764   -3.4702   25.9106 C.2     1  UNL1       -0.0076
     27 C           5.9346   -2.2710   26.4221 C.2     1  UNL1       -0.0076
     28 C           5.0340   -1.7812   25.3271 C.3     1  UNL1        0.1187
     29 C           4.4021   -4.3667   19.2933 C.3     1  UNL1        0.4187
     30 F           4.6995   -5.3362   18.1881 F       1  UNL1       -0.1659
     31 F           5.8713   -4.1275   19.4789 F       1  UNL1       -0.1659
     32 F           2.9329   -4.6057   19.1077 F       1  UNL1       -0.1659
@<TRIPOS>BOND
     1     3     4    1
     2     4     5    1
     3     5     6    1
     4     6     7    1
     5     7     2    1
     6     2     1    1
     7     1    17    1
     8    17    18    1
     9    18    19   ar
    10    19    20   ar
    11    20    29    1
    12    29    30    1
    13    29    31    1
    14    29    32    1
    15    20    21   ar
    16    21    22   ar
    17    22    24    1
    18    24    25    1
    19    25    26    1
    20    26    27    2
    21    27    28    1
    22    22    23   ar
    23     7    10    1
    24    10    11   ar
    25    11    12   ar
    26    12    13   ar
    27    13    14    1
    28    13    15   ar
    29    15    16   ar
    30     7     8    1
    31     8     9    1
    32     9     4    1
    33    23    18   ar
    34    16    10   ar
    35    28    24    1
@<TRIPOS>MOLECULE
*****
 32 35 0 0 0
SMALL
GASTEIGER

@<TRIPOS>ATOM
      1 O         -12.9607   -1.5948   17.6248 O.3     1  UNL1       -0.3470
      2 C         -14.4605   -1.6182   17.6210 C.3     1  UNL1        0.1467
      3 C         -15.9027    3.3247   20.1370 C.3     1  UNL1        0.0896
      4 N         -15.6767    1.9238   19.6508 N.3     1  UNL1       -0.2715
      5 C         -16.3602    0.7746   20.3306 C.3     1  UNL1        0.0725
      6 C         -16.1343   -0.6263   19.8444 C.3     1  UNL1        0.0238
      7 C         -15.2248   -0.8781   18.6785 C.3     1  UNL1        0.0489
      8 C         -14.5413    0.2711   17.9987 C.3     1  UNL1        0.0238
      9 C         -14.7673    1.6720   18.4849 C.3     1  UNL1        0.0725
     10 C         -15.6429   -2.2844   18.9911 C.ar    1  UNL1       -0.0202
     11 C         -14.8864   -3.0826   20.0110 C.ar    1  UNL1       -0.0019
     12 C         -15.3044   -4.4888   20.3237 C.ar    1  UNL1        0.0293
     13 C         -16.4790   -5.0968   19.6162 C.ar    1  UNL1        0.1401
     14 F         -16.8971   -6.5030   19.9288 F       1  UNL1       -0.2042
     15 C         -17.2357   -4.2986   18.5962 C.ar    1  UNL1        0.0293
     16 C         -16.8176   -2.8923   18.2836 C.ar    1  UNL1       -0.0019
     17 C         -12.1923   -2.6491   16.8845 C.3     1  UNL1        0.1875
     18 C         -12.1376   -4.0503   17.4172 C.ar    1  UNL1        0.0901
     19 C         -10.8983   -4.5440   18.1031 C.ar    1  UNL1        0.0212
     20 C         -10.8436   -5.9452   18.6357 C.ar    1  UNL1        0.0754
     21 C         -12.0281   -6.8526   18.4825 C.ar    1  UNL1        0.0382
     22 C         -13.2674   -6.3588   17.7966 C.ar    1  UNL1        0.1318
     23 N         -13.3222   -4.9577   17.2639 N.ar    1  UNL1       -0.2325
     24 N         -14.4519   -7.2663   17.6434 N.pl3   1  UNL1       -0.2851
     25 C         -15.6067   -7.0585   16.7088 C.3     1  UNL1        0.1187
     26 C         -16.5581   -8.2045   16.8855 C.2     1  UNL1       -0.0076
     27 C         -15.9914   -9.1206   17.9294 C.2     1  UNL1       -0.0076
     28 C         -14.6897   -8.5407   18.3977 C.3     1  UNL1        0.1187
     29 C          -9.6044   -6.4390   19.3217 C.3     1  UNL1        0.4187
     30 F          -8.3652   -6.9328   20.0076 F       1  UNL1       -0.1659
     31 F          -9.2413   -5.0286   19.6809 F       1  UNL1       -0.1659
     32 F          -9.9675   -7.8493   18.9623 F       1  UNL1       -0.1659
@<TRIPOS>BOND
     1     3     4    1
     2     4     5    1
     3     5     6    1
     4     6     7    1
     5     7     2    1
     6     2     1    1
     7     1    17    1
     8    17    18    1
     9    18    19   ar
    10    19    20   ar
    11    20    29    1
    12    29    30    1
    13    29    31    1
    14    29    32    1
    15    20    21   ar
    16    21    22   ar
    17    22    24    1
    18    24    25    1
    19    25    26    1
    20    26    27    2
    21    27    28    1
    22    22    23   ar
    23     7    10    1
    24    10    11   ar
    25    11    12   ar
    26    12    13   ar
    27    13    14    1
    28    13    15   ar
    29    15    16   ar
    30     7     8    1
    31     8     9    1
    32     9     4    1
    33    23    18   ar
    34    16    10   ar
    35    28    24    1
