@<TRIPOS>MOLECULE
*****
 38 42 0 0 0
SMALL
GASTEIGER

@<TRIPOS>ATOM
      1 C           0.3002    2.0086   19.1948 C.ar    1  UNL1        0.1233
      2 C          -0.5249    2.6075   20.2950 C.ar    1  UNL1        0.1181
      3 N          -1.3426    3.7197   19.7083 N.ar    1  UNL1       -0.2208
      4 N          -1.0229    3.8083   18.2454 N.ar    1  UNL1       -0.0633
      5 N          -0.0076    2.7507   17.9281 N.ar    1  UNL1       -0.1287
      6 C           3.2230   -0.5530   18.3914 C.ar    1  UNL1        0.1547
      7 C           2.2593    0.5877   18.2498 C.ar    1  UNL1        0.0400
      8 C           1.2639    0.8678   19.3364 C.ar    1  UNL1        0.0241
      9 C           1.2321    0.0072   20.5645 C.ar    1  UNL1        0.0033
     10 C           2.1958   -1.1335   20.7061 C.ar    1  UNL1        0.0207
     11 C           3.1912   -1.4136   19.6195 C.ar    1  UNL1        0.0994
     12 N           4.1549   -2.5544   19.7611 N.ar    1  UNL1       -0.2839
     13 C           3.8895   -3.9838   19.3920 C.ar    1  UNL1        0.1826
     14 N           5.1237   -4.7788   19.6995 N.ar    1  UNL1       -0.2280
     15 C           6.1521   -3.8407   20.2586 C.ar    1  UNL1        0.0786
     16 C           7.5361   -4.2121   20.7018 C.3     1  UNL1        0.0538
     17 C           5.5533   -2.4659   20.2967 C.ar    1  UNL1        0.0963
     18 C           5.4626   -0.0026   17.1951 C.3     1  UNL1        0.2525
     19 O           4.2184   -0.8331   17.3048 O.3     1  UNL1       -0.4700
     20 C          -2.3102    4.5906   20.4536 C.3     1  UNL1        0.2138
     21 C          -3.5090    3.9816   21.1184 C.2     1  UNL1        0.2510
     22 O          -4.6469    3.4669   20.2873 O.2     1  UNL1       -0.2727
     23 N          -3.5701    3.8872   22.6141 N.am    1  UNL1       -0.2717
     24 C          -2.4322    4.4019   23.4451 C.3     1  UNL1        0.0983
     25 C          -2.0824    5.8603   23.4167 C.3     1  UNL1        0.0264
     26 C          -1.6441    3.4584   24.3044 C.ar    1  UNL1       -0.0043
     27 C          -0.5134    2.6708   23.7118 C.ar    1  UNL1       -0.0027
     28 C           0.2747    1.7272   24.5712 C.ar    1  UNL1       -0.0003
     29 C          -0.0680    1.5712   26.0232 C.ar    1  UNL1       -0.0000
     30 C          -1.1988    2.3587   26.6158 C.ar    1  UNL1       -0.0003
     31 C          -1.9868    3.3023   25.7564 C.ar    1  UNL1       -0.0027
     32 C          -4.7688    3.2782   23.2790 C.3     1  UNL1        0.1204
     33 C          -5.7883    4.1584   23.9392 C.ar    1  UNL1       -0.0023
     34 C          -7.1042    4.4166   23.2670 C.ar    1  UNL1       -0.0026
     35 C          -8.1237    5.2968   23.9273 C.ar    1  UNL1       -0.0003
     36 C          -7.8273    5.9189   25.2596 C.ar    1  UNL1       -0.0000
     37 C          -6.5114    5.6607   25.9318 C.ar    1  UNL1       -0.0003
     38 C          -5.4919    4.7805   25.2715 C.ar    1  UNL1       -0.0026
@<TRIPOS>BOND
     1    18    19    1
     2    19     6    1
     3     6     7   ar
     4     7     8   ar
     5     8     1    1
     6     1     2   ar
     7     2     3   ar
     8     3    20    1
     9    20    21    1
    10    21    22    2
    11    21    23   am
    12    23    32    1
    13    32    33    1
    14    33    34   ar
    15    34    35   ar
    16    35    36   ar
    17    36    37   ar
    18    37    38   ar
    19    23    24    1
    20    24    25    1
    21    24    26    1
    22    26    27   ar
    23    27    28   ar
    24    28    29   ar
    25    29    30   ar
    26    30    31   ar
    27     3     4   ar
    28     4     5   ar
    29     8     9   ar
    30     9    10   ar
    31    10    11   ar
    32    11    12    1
    33    12    13   ar
    34    13    14   ar
    35    14    15   ar
    36    15    16    1
    37    15    17   ar
    38    11     6   ar
    39    17    12   ar
    40     5     1   ar
    41    38    33   ar
    42    31    26   ar
@<TRIPOS>MOLECULE
*****
 38 42 0 0 0
SMALL
GASTEIGER

@<TRIPOS>ATOM
      1 C           1.3041    1.0095   21.9263 C.ar    1  UNL1        0.1233
      2 C           2.3833    1.6204   21.0824 C.ar    1  UNL1        0.1181
      3 N           2.0392    1.3776   19.6427 N.ar    1  UNL1       -0.2208
      4 N           0.7473    0.6166   19.5968 N.ar    1  UNL1       -0.0633
      5 N           0.2930    0.3891   21.0082 N.ar    1  UNL1       -0.1287
      6 C           2.3835    0.5979   25.7231 C.ar    1  UNL1        0.1547
      7 C           2.4414    0.5899   24.2242 C.ar    1  UNL1        0.0400
      8 C           1.2461    1.0175   23.4252 C.ar    1  UNL1        0.0241
      9 C          -0.0070    1.4532   24.1250 C.ar    1  UNL1        0.0033
     10 C          -0.0649    1.4612   25.6238 C.ar    1  UNL1        0.0207
     11 C           1.1303    1.0336   26.4228 C.ar    1  UNL1        0.0994
     12 N           1.0724    1.0416   27.9218 N.ar    1  UNL1       -0.2839
     13 C           0.9529   -0.1642   28.8060 C.ar    1  UNL1        0.1826
     14 N           0.9304    0.3059   30.2302 N.ar    1  UNL1       -0.2280
     15 C           1.0360    1.8022   30.2263 C.ar    1  UNL1        0.0786
     16 C           1.0511    2.6882   31.4365 C.3     1  UNL1        0.0538
     17 C           1.1237    2.2569   28.7996 C.ar    1  UNL1        0.0963
     18 C           3.8822   -1.2884   26.6955 C.3     1  UNL1        0.2525
     19 O           3.5788    0.1703   26.5221 O.3     1  UNL1       -0.4700
     20 C           2.8454    1.8183   18.4570 C.3     1  UNL1        0.2138
     21 C           4.3439    1.7865   18.5153 C.2     1  UNL1        0.2510
     22 O           5.1107    3.0461   18.7908 O.2     1  UNL1       -0.2727
     23 N           5.0757    0.4954   18.2981 N.am    1  UNL1       -0.2717
     24 C           4.3089   -0.7641   18.0226 C.3     1  UNL1        0.0983
     25 C           3.5498   -0.9141   16.7376 C.3     1  UNL1        0.0264
     26 C           4.3012   -1.8735   19.0321 C.ar    1  UNL1       -0.0043
     27 C           3.9709   -1.5808   20.4657 C.ar    1  UNL1       -0.0027
     28 C           3.9632   -2.6903   21.4751 C.ar    1  UNL1       -0.0003
     29 C           4.2859   -4.0925   21.0509 C.ar    1  UNL1       -0.0000
     30 C           4.6163   -4.3851   19.6173 C.ar    1  UNL1       -0.0003
     31 C           4.6239   -3.2756   18.6079 C.ar    1  UNL1       -0.0027
     32 C           6.5742    0.4636   18.3563 C.3     1  UNL1        0.1204
     33 C           7.2699   -0.5434   19.2235 C.ar    1  UNL1       -0.0023
     34 C           7.3401   -0.3346   20.7072 C.ar    1  UNL1       -0.0026
     35 C           8.0358   -1.3416   21.5743 C.ar    1  UNL1       -0.0003
     36 C           8.6613   -2.5575   20.9577 C.ar    1  UNL1       -0.0000
     37 C           8.5911   -2.7664   19.4740 C.ar    1  UNL1       -0.0003
     38 C           7.8955   -1.7594   18.6069 C.ar    1  UNL1       -0.0026
@<TRIPOS>BOND
     1    18    19    1
     2    19     6    1
     3     6     7   ar
     4     7     8   ar
     5     8     1    1
     6     1     2   ar
     7     2     3   ar
     8     3    20    1
     9    20    21    1
    10    21    22    2
    11    21    23   am
    12    23    32    1
    13    32    33    1
    14    33    34   ar
    15    34    35   ar
    16    35    36   ar
    17    36    37   ar
    18    37    38   ar
    19    23    24    1
    20    24    25    1
    21    24    26    1
    22    26    27   ar
    23    27    28   ar
    24    28    29   ar
    25    29    30   ar
    26    30    31   ar
    27     3     4   ar
    28     4     5   ar
    29     8     9   ar
    30     9    10   ar
    31    10    11   ar
    32    11    12    1
    33    12    13   ar
    34    13    14   ar
    35    14    15   ar
    36    15    16    1
    37    15    17   ar
    38    11     6   ar
    39    17    12   ar
    40     5     1   ar
    41    38    33   ar
    42    31    26   ar
@<TRIPOS>MOLECULE
*****
 38 42 0 0 0
SMALL
GASTEIGER

@<TRIPOS>ATOM
      1 C           6.3231   -4.1190   22.9821 C.ar    1  UNL1        0.1233
      2 C           4.9946   -3.7622   22.3840 C.ar    1  UNL1        0.1181
      3 N           5.1298   -3.8130   20.8910 N.ar    1  UNL1       -0.2208
      4 N           6.5419   -4.2011   20.5663 N.ar    1  UNL1       -0.0633
      5 N           7.2794   -4.3903   21.8587 N.ar    1  UNL1       -0.1287
      6 C           6.5235   -3.1590   26.8276 C.ar    1  UNL1        0.1547
      7 C           6.2069   -3.0863   25.3633 C.ar    1  UNL1        0.0400
      8 C           6.6398   -4.1917   24.4465 C.ar    1  UNL1        0.0241
      9 C           7.3895   -5.3699   24.9941 C.ar    1  UNL1        0.0033
     10 C           7.7062   -5.4426   26.4584 C.ar    1  UNL1        0.0207
     11 C           7.2732   -4.3372   27.3752 C.ar    1  UNL1        0.0994
     12 N           7.5899   -4.4099   28.8396 N.ar    1  UNL1       -0.2839
     13 C           6.8842   -5.2613   29.8531 C.ar    1  UNL1        0.1826
     14 N           7.5261   -5.0216   31.1875 N.ar    1  UNL1       -0.2280
     15 C           8.6285   -4.0221   30.9987 C.ar    1  UNL1        0.0786
     16 C           9.5328   -3.4934   32.0724 C.3     1  UNL1        0.0538
     17 C           8.6680   -3.6440   29.5477 C.ar    1  UNL1        0.0963
     18 C           4.7328   -1.4362   27.5859 C.3     1  UNL1        0.2525
     19 O           6.0906   -2.0535   27.7444 O.3     1  UNL1       -0.4700
     20 C           4.0436   -3.5259   19.8971 C.3     1  UNL1        0.2138
     21 C           4.2654   -2.5099   18.8161 C.2     1  UNL1        0.2510
     22 O           5.0910   -2.8617   17.6141 O.2     1  UNL1       -0.2727
     23 N           3.6617   -1.1421   18.9371 N.am    1  UNL1       -0.2717
     24 C           2.8361   -0.7904   20.1391 C.3     1  UNL1        0.0983
     25 C           1.3425   -0.7112   20.0260 C.3     1  UNL1        0.0264
     26 C           3.5041   -0.5179   21.4542 C.ar    1  UNL1       -0.0043
     27 C           4.9525   -0.1299   21.4935 C.ar    1  UNL1       -0.0027
     28 C           5.6205    0.1425   22.8087 C.ar    1  UNL1       -0.0003
     29 C           4.8400    0.0270   24.0845 C.ar    1  UNL1       -0.0000
     30 C           3.3916   -0.3610   24.0451 C.ar    1  UNL1       -0.0003
     31 C           2.7237   -0.6334   22.7300 C.ar    1  UNL1       -0.0027
     32 C           3.8835   -0.1261   17.8562 C.3     1  UNL1        0.1204
     33 C           5.1043    0.7451   17.8847 C.ar    1  UNL1       -0.0023
     34 C           5.0753    2.0531   18.6183 C.ar    1  UNL1       -0.0026
     35 C           6.2961    2.9243   18.6469 C.ar    1  UNL1       -0.0003
     36 C           7.5459    2.4874   17.9419 C.ar    1  UNL1       -0.0000
     37 C           7.5749    1.1794   17.2082 C.ar    1  UNL1       -0.0003
     38 C           6.3541    0.3082   17.1797 C.ar    1  UNL1       -0.0026
@<TRIPOS>BOND
     1    18    19    1
     2    19     6    1
     3     6     7   ar
     4     7     8   ar
     5     8     1    1
     6     1     2   ar
     7     2     3   ar
     8     3    20    1
     9    20    21    1
    10    21    22    2
    11    21    23   am
    12    23    32    1
    13    32    33    1
    14    33    34   ar
    15    34    35   ar
    16    35    36   ar
    17    36    37   ar
    18    37    38   ar
    19    23    24    1
    20    24    25    1
    21    24    26    1
    22    26    27   ar
    23    27    28   ar
    24    28    29   ar
    25    29    30   ar
    26    30    31   ar
    27     3     4   ar
    28     4     5   ar
    29     8     9   ar
    30     9    10   ar
    31    10    11   ar
    32    11    12    1
    33    12    13   ar
    34    13    14   ar
    35    14    15   ar
    36    15    16    1
    37    15    17   ar
    38    11     6   ar
    39    17    12   ar
    40     5     1   ar
    41    38    33   ar
    42    31    26   ar
@<TRIPOS>MOLECULE
*****
 38 42 0 0 0
SMALL
GASTEIGER

@<TRIPOS>ATOM
      1 C           6.2295   -3.7191   22.0895 C.ar    1  UNL1        0.1233
      2 C           4.8613   -3.3849   21.5732 C.ar    1  UNL1        0.1181
      3 N           4.9579   -3.2046   20.0872 N.ar    1  UNL1       -0.2208
      4 N           6.3858   -3.4272   19.6851 N.ar    1  UNL1       -0.0633
      5 N           7.1716   -3.7452   20.9225 N.ar    1  UNL1       -0.1287
      6 C           7.7617   -5.4551   25.3126 C.ar    1  UNL1        0.1547
      7 C           7.3993   -5.1931   23.8809 C.ar    1  UNL1        0.0400
      8 C           6.5919   -3.9811   23.5213 C.ar    1  UNL1        0.0241
      9 C           6.1468   -3.0312   24.5935 C.ar    1  UNL1        0.0033
     10 C           6.5092   -3.2933   26.0252 C.ar    1  UNL1        0.0207
     11 C           7.3166   -4.5052   26.3848 C.ar    1  UNL1        0.0994
     12 N           7.6790   -4.7673   27.8166 N.ar    1  UNL1       -0.2839
     13 C           9.0348   -4.5819   28.4311 C.ar    1  UNL1        0.1826
     14 N           8.9429   -4.9607   29.8796 N.ar    1  UNL1       -0.2280
     15 C           7.5303   -5.3803   30.1603 C.ar    1  UNL1        0.0786
     16 C           6.9932   -5.8389   31.4836 C.3     1  UNL1        0.0538
     17 C           6.7493   -5.2607   28.8853 C.ar    1  UNL1        0.0963
     18 C           7.8813   -7.9126   26.1471 C.3     1  UNL1        0.2525
     19 O           8.5691   -6.6671   25.6722 O.3     1  UNL1       -0.4700
     20 C           3.8255   -2.8617   19.1652 C.3     1  UNL1        0.2138
     21 C           3.8433   -1.5696   18.4036 C.2     1  UNL1        0.2510
     22 O           4.5336   -1.4922   17.0740 O.2     1  UNL1       -0.2727
     23 N           3.1710   -0.3549   18.9713 N.am    1  UNL1       -0.2717
     24 C           2.4808   -0.4324   20.3009 C.3     1  UNL1        0.0983
     25 C           1.0157   -0.7472   20.3682 C.3     1  UNL1        0.0264
     26 C           3.2555   -0.1951   21.5632 C.ar    1  UNL1       -0.0043
     27 C           2.6459   -0.5314   22.8918 C.ar    1  UNL1       -0.0027
     28 C           3.4208   -0.2940   24.1541 C.ar    1  UNL1       -0.0003
     29 C           4.8052    0.2796   24.0877 C.ar    1  UNL1       -0.0000
     30 C           5.4148    0.6159   22.7590 C.ar    1  UNL1       -0.0003
     31 C           4.6399    0.3785   21.4968 C.ar    1  UNL1       -0.0027
     32 C           3.1889    0.9372   18.2097 C.3     1  UNL1        0.1204
     33 C           2.3300    2.0830   18.6564 C.ar    1  UNL1       -0.0023
     34 C           0.8796    2.1259   18.2761 C.ar    1  UNL1       -0.0026
     35 C           0.0207    3.2717   18.7227 C.ar    1  UNL1       -0.0003
     36 C           0.6122    4.3746   19.5496 C.ar    1  UNL1       -0.0000
     37 C           2.0625    4.3317   19.9299 C.ar    1  UNL1       -0.0003
     38 C           2.9214    3.1859   19.4833 C.ar    1  UNL1       -0.0026
@<TRIPOS>BOND
     1    18    19    1
     2    19     6    1
     3     6     7   ar
     4     7     8   ar
     5     8     1    1
     6     1     2   ar
     7     2     3   ar
     8     3    20    1
     9    20    21    1
    10    21    22    2
    11    21    23   am
    12    23    32    1
    13    32    33    1
    14    33    34   ar
    15    34    35   ar
    16    35    36   ar
    17    36    37   ar
    18    37    38   ar
    19    23    24    1
    20    24    25    1
    21    24    26    1
    22    26    27   ar
    23    27    28   ar
    24    28    29   ar
    25    29    30   ar
    26    30    31   ar
    27     3     4   ar
    28     4     5   ar
    29     8     9   ar
    30     9    10   ar
    31    10    11   ar
    32    11    12    1
    33    12    13   ar
    34    13    14   ar
    35    14    15   ar
    36    15    16    1
    37    15    17   ar
    38    11     6   ar
    39    17    12   ar
    40     5     1   ar
    41    38    33   ar
    42    31    26   ar
@<TRIPOS>MOLECULE
*****
 38 42 0 0 0
SMALL
GASTEIGER

@<TRIPOS>ATOM
      1 C           1.2505    1.0639   21.8985 C.ar    1  UNL1        0.1233
      2 C           2.3314    1.6876   21.0662 C.ar    1  UNL1        0.1181
      3 N           2.0387    1.3875   19.6259 N.ar    1  UNL1       -0.2208
      4 N           0.7769    0.5783   19.5681 N.ar    1  UNL1       -0.0633
      5 N           0.2898    0.3784   20.9727 N.ar    1  UNL1       -0.1287
      6 C          -0.1723    1.7572   25.5379 C.ar    1  UNL1        0.1547
      7 C          -0.0700    1.7045   24.0423 C.ar    1  UNL1        0.0400
      8 C           1.1482    1.1166   23.3941 C.ar    1  UNL1        0.0241
      9 C           2.2642    0.5813   24.2415 C.ar    1  UNL1        0.0033
     10 C           2.1619    0.6340   25.7370 C.ar    1  UNL1        0.0207
     11 C           0.9436    1.2219   26.3852 C.ar    1  UNL1        0.0994
     12 N           0.8413    1.2746   27.8809 N.ar    1  UNL1       -0.2839
     13 C           0.5582    0.1130   28.7867 C.ar    1  UNL1        0.1826
     14 N           0.5461    0.6186   30.1988 N.ar    1  UNL1       -0.2280
     15 C           0.8218    2.0927   30.1658 C.ar    1  UNL1        0.0786
     16 C           0.9012    3.0018   31.3563 C.3     1  UNL1        0.0538
     17 C           1.0043    2.4981   28.7332 C.ar    1  UNL1        0.0963
     18 C          -2.1377    3.4562   25.5098 C.3     1  UNL1        0.2525
     19 O          -1.3906    2.3451   26.1861 O.3     1  UNL1       -0.4700
     20 C           2.8631    1.8204   18.4499 C.3     1  UNL1        0.2138
     21 C           4.3603    1.8148   18.5407 C.2     1  UNL1        0.2510
     22 O           5.1002    3.0918   18.8094 O.2     1  UNL1       -0.2727
     23 N           5.1177    0.5324   18.3629 N.am    1  UNL1       -0.2717
     24 C           4.3777   -0.7445   18.0942 C.3     1  UNL1        0.0983
     25 C           3.6420   -0.9269   16.7998 C.3     1  UNL1        0.0264
     26 C           4.3735   -1.8390   19.1198 C.ar    1  UNL1       -0.0043
     27 C           4.7617   -3.2342   18.7294 C.ar    1  UNL1       -0.0027
     28 C           4.7575   -4.3287   19.7551 C.ar    1  UNL1       -0.0003
     29 C           4.3650   -4.0279   21.1713 C.ar    1  UNL1       -0.0000
     30 C           3.9767   -2.6326   21.5617 C.ar    1  UNL1       -0.0003
     31 C           3.9810   -1.5382   20.5360 C.ar    1  UNL1       -0.0027
     32 C           6.6149    0.5267   18.4537 C.3     1  UNL1        0.1204
     33 C           7.3086   -0.4611   19.3442 C.ar    1  UNL1       -0.0023
     34 C           7.9953   -1.6545   18.7489 C.ar    1  UNL1       -0.0026
     35 C           8.6890   -2.6423   19.6395 C.ar    1  UNL1       -0.0003
     36 C           8.6960   -2.4368   21.1253 C.ar    1  UNL1       -0.0000
     37 C           8.0093   -1.2434   21.7206 C.ar    1  UNL1       -0.0003
     38 C           7.3156   -0.2556   20.8300 C.ar    1  UNL1       -0.0026
@<TRIPOS>BOND
     1    18    19    1
     2    19     6    1
     3     6     7   ar
     4     7     8   ar
     5     8     1    1
     6     1     2   ar
     7     2     3   ar
     8     3    20    1
     9    20    21    1
    10    21    22    2
    11    21    23   am
    12    23    32    1
    13    32    33    1
    14    33    34   ar
    15    34    35   ar
    16    35    36   ar
    17    36    37   ar
    18    37    38   ar
    19    23    24    1
    20    24    25    1
    21    24    26    1
    22    26    27   ar
    23    27    28   ar
    24    28    29   ar
    25    29    30   ar
    26    30    31   ar
    27     3     4   ar
    28     4     5   ar
    29     8     9   ar
    30     9    10   ar
    31    10    11   ar
    32    11    12    1
    33    12    13   ar
    34    13    14   ar
    35    14    15   ar
    36    15    16    1
    37    15    17   ar
    38    11     6   ar
    39    17    12   ar
    40     5     1   ar
    41    38    33   ar
    42    31    26   ar
@<TRIPOS>MOLECULE
*****
 38 42 0 0 0
SMALL
GASTEIGER

@<TRIPOS>ATOM
      1 C           7.3271   -3.8298   23.2142 C.ar    1  UNL1        0.1233
      2 C           7.2646   -2.6153   22.3362 C.ar    1  UNL1        0.1181
      3 N           7.2569   -3.0753   20.9085 N.ar    1  UNL1       -0.2208
      4 N           7.3146   -4.5743   20.9042 N.ar    1  UNL1       -0.0633
      5 N           7.3580   -5.0405   22.3292 N.ar    1  UNL1       -0.1287
      6 C           6.3729   -3.0354   26.9837 C.ar    1  UNL1        0.1547
      7 C           6.3461   -3.0321   25.4839 C.ar    1  UNL1        0.0400
      8 C           7.3539   -3.8331   24.7140 C.ar    1  UNL1        0.0241
      9 C           8.3885   -4.6374   25.4439 C.ar    1  UNL1        0.0033
     10 C           8.4153   -4.6407   26.9436 C.ar    1  UNL1        0.0207
     11 C           7.4075   -3.8397   27.7135 C.ar    1  UNL1        0.0994
     12 N           7.4343   -3.8430   29.2133 N.ar    1  UNL1       -0.2839
     13 C           6.9294   -4.9410   30.1017 C.ar    1  UNL1        0.1826
     14 N           7.1538   -4.5255   31.5255 N.ar    1  UNL1       -0.2280
     15 C           7.7975   -3.1706   31.5169 C.ar    1  UNL1        0.0786
     16 C           8.1975   -2.3769   32.7252 C.3     1  UNL1        0.0538
     17 C           7.9708   -2.7488   30.0879 C.ar    1  UNL1        0.0963
     18 C           5.2422   -0.7581   27.5180 C.3     1  UNL1        0.2525
     19 O           5.3651   -2.2344   27.7536 O.3     1  UNL1       -0.4700
     20 C           7.2013   -2.1916   19.6977 C.3     1  UNL1        0.2138
     21 C           5.9300   -2.0782   18.9097 C.2     1  UNL1        0.2510
     22 O           5.6225   -3.0779   17.8344 O.2     1  UNL1       -0.2727
     23 N           4.9663   -0.9653   19.1969 N.am    1  UNL1       -0.2717
     24 C           5.2739    0.0343   20.2722 C.3     1  UNL1        0.0983
     25 C           6.3631    1.0451   20.0672 C.3     1  UNL1        0.0264
     26 C           4.4924    0.0232   21.5524 C.ar    1  UNL1       -0.0043
     27 C           3.9064    1.2973   22.0845 C.ar    1  UNL1       -0.0027
     28 C           3.1248    1.2860   23.3648 C.ar    1  UNL1       -0.0003
     29 C           2.9294    0.0007   24.1130 C.ar    1  UNL1       -0.0000
     30 C           3.5155   -1.2734   23.5809 C.ar    1  UNL1       -0.0003
     31 C           4.2970   -1.2622   22.3006 C.ar    1  UNL1       -0.0027
     32 C           3.6950   -0.8519   18.4089 C.3     1  UNL1        0.1204
     33 C           2.5240   -0.1067   18.9776 C.ar    1  UNL1       -0.0023
     34 C           1.6099   -0.7811   19.9572 C.ar    1  UNL1       -0.0026
     35 C           0.4388   -0.0359   20.5259 C.ar    1  UNL1       -0.0003
     36 C           0.1820    1.3836   20.1151 C.ar    1  UNL1       -0.0000
     37 C           1.0961    2.0580   19.1356 C.ar    1  UNL1       -0.0003
     38 C           2.2672    1.3129   18.5669 C.ar    1  UNL1       -0.0026
@<TRIPOS>BOND
     1    18    19    1
     2    19     6    1
     3     6     7   ar
     4     7     8   ar
     5     8     1    1
     6     1     2   ar
     7     2     3   ar
     8     3    20    1
     9    20    21    1
    10    21    22    2
    11    21    23   am
    12    23    32    1
    13    32    33    1
    14    33    34   ar
    15    34    35   ar
    16    35    36   ar
    17    36    37   ar
    18    37    38   ar
    19    23    24    1
    20    24    25    1
    21    24    26    1
    22    26    27   ar
    23    27    28   ar
    24    28    29   ar
    25    29    30   ar
    26    30    31   ar
    27     3     4   ar
    28     4     5   ar
    29     8     9   ar
    30     9    10   ar
    31    10    11   ar
    32    11    12    1
    33    12    13   ar
    34    13    14   ar
    35    14    15   ar
    36    15    16    1
    37    15    17   ar
    38    11     6   ar
    39    17    12   ar
    40     5     1   ar
    41    38    33   ar
    42    31    26   ar
@<TRIPOS>MOLECULE
*****
 38 42 0 0 0
SMALL
GASTEIGER

@<TRIPOS>ATOM
      1 C           6.0430   -3.6688   22.0113 C.ar    1  UNL1        0.1233
      2 C           6.7605   -2.7830   21.0363 C.ar    1  UNL1        0.1181
      3 N           6.0342   -2.8523   19.7257 N.ar    1  UNL1       -0.2208
      4 N           4.8677   -3.7809   19.8907 N.ar    1  UNL1       -0.0633
      5 N           4.8732   -4.2855   21.3033 N.ar    1  UNL1       -0.1287
      6 C           7.6603   -5.3077   25.2437 C.ar    1  UNL1        0.1547
      7 C           7.2756   -5.0787   23.8121 C.ar    1  UNL1        0.0400
      8 C           6.4277   -3.8977   23.4430 C.ar    1  UNL1        0.0241
      9 C           5.9646   -2.9455   24.5055 C.ar    1  UNL1        0.0033
     10 C           6.3493   -3.1744   25.9371 C.ar    1  UNL1        0.0207
     11 C           7.1972   -4.3555   26.3062 C.ar    1  UNL1        0.0994
     12 N           7.5819   -4.5844   27.7379 N.ar    1  UNL1       -0.2839
     13 C           8.9063   -4.2524   28.3589 C.ar    1  UNL1        0.1826
     14 N           8.8526   -4.6483   29.8047 N.ar    1  UNL1       -0.2280
     15 C           7.4950   -5.2250   30.0773 C.ar    1  UNL1        0.0786
     16 C           7.0082   -5.7492   31.3957 C.3     1  UNL1        0.0538
     17 C           6.7096   -5.1855   28.7999 C.ar    1  UNL1        0.0963
     18 C           7.8655   -7.8145   25.8944 C.3     1  UNL1        0.2525
     19 O           8.5081   -6.4887   25.6129 O.3     1  UNL1       -0.4700
     20 C           6.4086   -2.1213   18.4705 C.3     1  UNL1        0.2138
     21 C           6.6399   -0.6397   18.5060 C.2     1  UNL1        0.2510
     22 O           8.0041   -0.1009   18.8204 O.2     1  UNL1       -0.2727
     23 N           5.5072    0.3032   18.2272 N.am    1  UNL1       -0.2717
     24 C           4.1430   -0.2357   17.9128 C.3     1  UNL1        0.0983
     25 C           3.8894   -0.9153   16.5998 C.3     1  UNL1        0.0264
     26 C           3.0325   -0.0949   18.9112 C.ar    1  UNL1       -0.0043
     27 C           1.7532    0.5832   18.5195 C.ar    1  UNL1       -0.0027
     28 C           0.6428    0.7239   19.5180 C.ar    1  UNL1       -0.0003
     29 C           0.8116    0.1866   20.9082 C.ar    1  UNL1       -0.0000
     30 C           2.0910   -0.4915   21.3000 C.ar    1  UNL1       -0.0003
     31 C           3.2014   -0.6322   20.3014 C.ar    1  UNL1       -0.0027
     32 C           5.7385    1.7848   18.2627 C.3     1  UNL1        0.1204
     33 C           4.7016    2.6918   18.8562 C.ar    1  UNL1       -0.0023
     34 C           4.5254    2.7568   20.3444 C.ar    1  UNL1       -0.0026
     35 C           3.4885    3.6638   20.9380 C.ar    1  UNL1       -0.0003
     36 C           2.6279    4.5057   20.0434 C.ar    1  UNL1       -0.0000
     37 C           2.8041    4.4407   18.5552 C.ar    1  UNL1       -0.0003
     38 C           3.8410    3.5337   17.9616 C.ar    1  UNL1       -0.0026
@<TRIPOS>BOND
     1    18    19    1
     2    19     6    1
     3     6     7   ar
     4     7     8   ar
     5     8     1    1
     6     1     2   ar
     7     2     3   ar
     8     3    20    1
     9    20    21    1
    10    21    22    2
    11    21    23   am
    12    23    32    1
    13    32    33    1
    14    33    34   ar
    15    34    35   ar
    16    35    36   ar
    17    36    37   ar
    18    37    38   ar
    19    23    24    1
    20    24    25    1
    21    24    26    1
    22    26    27   ar
    23    27    28   ar
    24    28    29   ar
    25    29    30   ar
    26    30    31   ar
    27     3     4   ar
    28     4     5   ar
    29     8     9   ar
    30     9    10   ar
    31    10    11   ar
    32    11    12    1
    33    12    13   ar
    34    13    14   ar
    35    14    15   ar
    36    15    16    1
    37    15    17   ar
    38    11     6   ar
    39    17    12   ar
    40     5     1   ar
    41    38    33   ar
    42    31    26   ar
@<TRIPOS>MOLECULE
*****
 38 42 0 0 0
SMALL
GASTEIGER

@<TRIPOS>ATOM
      1 C           6.8049   -3.9881   25.3380 C.ar    1  UNL1        0.1233
      2 C           6.1291   -3.3344   24.1692 C.ar    1  UNL1        0.1181
      3 N           6.4892   -4.1063   22.9345 N.ar    1  UNL1       -0.2208
      4 N           7.3875   -5.2370   23.3402 N.ar    1  UNL1       -0.0633
      5 N           7.5826   -5.1639   24.8256 N.ar    1  UNL1       -0.1287
      6 C           6.6351   -4.1165   29.3009 C.ar    1  UNL1        0.1547
      7 C           6.7218   -4.5607   27.8709 C.ar    1  UNL1        0.0400
      8 C           6.7181   -3.5438   26.7681 C.ar    1  UNL1        0.0241
      9 C           6.6277   -2.0828   27.0955 C.ar    1  UNL1        0.0033
     10 C           6.5410   -1.6387   28.5256 C.ar    1  UNL1        0.0207
     11 C           6.5447   -2.6555   29.6283 C.ar    1  UNL1        0.0994
     12 N           6.4580   -2.2113   31.0584 N.ar    1  UNL1       -0.2839
     13 C           7.6157   -1.8512   31.9416 C.ar    1  UNL1        0.1826
     14 N           7.0716   -1.4666   33.2854 N.ar    1  UNL1       -0.2280
     15 C           5.5774   -1.5890   33.2328 C.ar    1  UNL1        0.0786
     16 C           4.6291   -1.3015   34.3589 C.3     1  UNL1        0.0538
     17 C           5.1983   -2.0492   31.8565 C.ar    1  UNL1        0.0963
     18 C           7.9376   -5.6938   30.9028 C.3     1  UNL1        0.2525
     19 O           6.6388   -5.1334   30.4036 O.3     1  UNL1       -0.4700
     20 C           6.0313   -3.8011   21.5391 C.3     1  UNL1        0.2138
     21 C           6.8788   -2.9495   20.6410 C.2     1  UNL1        0.2510
     22 O           8.2848   -2.6090   21.0381 O.2     1  UNL1       -0.2727
     23 N           6.3207   -2.4385   19.3460 N.am    1  UNL1       -0.2717
     24 C           4.9148   -2.7791   18.9490 C.3     1  UNL1        0.0983
     25 C           4.5970   -4.1425   18.4103 C.3     1  UNL1        0.0264
     26 C           3.8267   -1.7564   19.0906 C.ar    1  UNL1       -0.0043
     27 C           3.5203   -0.8251   17.9554 C.ar    1  UNL1       -0.0027
     28 C           2.4322    0.1976   18.0972 C.ar    1  UNL1       -0.0003
     29 C           1.6505    0.2890   19.3741 C.ar    1  UNL1       -0.0000
     30 C           1.9569   -0.6424   20.5093 C.ar    1  UNL1       -0.0003
     31 C           3.0450   -1.6651   20.3676 C.ar    1  UNL1       -0.0027
     32 C           7.1682   -1.5870   18.4479 C.3     1  UNL1        0.1204
     33 C           6.8245   -0.1415   18.2414 C.ar    1  UNL1       -0.0023
     34 C           6.5314    0.7358   19.4222 C.ar    1  UNL1       -0.0026
     35 C           6.1877    2.1813   19.2156 C.ar    1  UNL1       -0.0003
     36 C           6.1371    2.7493   17.8283 C.ar    1  UNL1       -0.0000
     37 C           6.4302    1.8719   16.6475 C.ar    1  UNL1       -0.0003
     38 C           6.7739    0.4265   16.8541 C.ar    1  UNL1       -0.0026
@<TRIPOS>BOND
     1    18    19    1
     2    19     6    1
     3     6     7   ar
     4     7     8   ar
     5     8     1    1
     6     1     2   ar
     7     2     3   ar
     8     3    20    1
     9    20    21    1
    10    21    22    2
    11    21    23   am
    12    23    32    1
    13    32    33    1
    14    33    34   ar
    15    34    35   ar
    16    35    36   ar
    17    36    37   ar
    18    37    38   ar
    19    23    24    1
    20    24    25    1
    21    24    26    1
    22    26    27   ar
    23    27    28   ar
    24    28    29   ar
    25    29    30   ar
    26    30    31   ar
    27     3     4   ar
    28     4     5   ar
    29     8     9   ar
    30     9    10   ar
    31    10    11   ar
    32    11    12    1
    33    12    13   ar
    34    13    14   ar
    35    14    15   ar
    36    15    16    1
    37    15    17   ar
    38    11     6   ar
    39    17    12   ar
    40     5     1   ar
    41    38    33   ar
    42    31    26   ar
@<TRIPOS>MOLECULE
*****
 38 42 0 0 0
SMALL
GASTEIGER

@<TRIPOS>ATOM
      1 C           7.0225   -4.1892   25.1443 C.ar    1  UNL1        0.1233
      2 C           6.6493   -3.3870   23.9331 C.ar    1  UNL1        0.1181
      3 N           6.9596   -4.2102   22.7182 N.ar    1  UNL1       -0.2208
      4 N           7.5247   -5.5213   23.1786 N.ar    1  UNL1       -0.0633
      5 N           7.5635   -5.5083   24.6780 N.ar    1  UNL1       -0.1287
      6 C           6.6884   -4.3310   29.0964 C.ar    1  UNL1        0.1547
      7 C           6.8312   -4.7705   27.6693 C.ar    1  UNL1        0.0400
      8 C           6.8797   -3.7497   26.5714 C.ar    1  UNL1        0.0241
      9 C           6.7855   -2.2893   26.9005 C.ar    1  UNL1        0.0033
     10 C           6.6427   -1.8498   28.3275 C.ar    1  UNL1        0.0207
     11 C           6.5942   -2.8706   29.4254 C.ar    1  UNL1        0.0994
     12 N           6.4514   -2.4310   30.8525 N.ar    1  UNL1       -0.2839
     13 C           7.5737   -2.2015   31.8208 C.ar    1  UNL1        0.1826
     14 N           6.9772   -1.7724   33.1285 N.ar    1  UNL1       -0.2280
     15 C           5.4861   -1.7368   32.9684 C.ar    1  UNL1        0.0786
     16 C           4.4943   -1.3603   34.0287 C.3     1  UNL1        0.0538
     17 C           5.1612   -2.1439   31.5617 C.ar    1  UNL1        0.0963
     18 C           7.9139   -5.8928   30.7723 C.3     1  UNL1        0.2525
     19 O           6.6398   -5.3519   30.1943 O.3     1  UNL1       -0.4700
     20 C           6.7430   -3.7952   21.2931 C.3     1  UNL1        0.2138
     21 C           5.3501   -3.6833   20.7480 C.2     1  UNL1        0.2510
     22 O           4.3082   -4.6889   21.1400 O.2     1  UNL1       -0.2727
     23 N           4.9988   -2.5659   19.8110 N.am    1  UNL1       -0.2717
     24 C           6.0407   -1.5604   19.4191 C.3     1  UNL1        0.0983
     25 C           7.1015   -1.9284   18.4245 C.3     1  UNL1        0.0264
     26 C           6.0218   -0.1870   20.0218 C.ar    1  UNL1       -0.0043
     27 C           5.7193   -0.0121   21.4805 C.ar    1  UNL1       -0.0027
     28 C           5.7004    1.3613   22.0832 C.ar    1  UNL1       -0.0003
     29 C           5.9840    2.5600   21.2270 C.ar    1  UNL1       -0.0000
     30 C           6.2864    2.3851   19.7683 C.ar    1  UNL1       -0.0003
     31 C           6.3053    1.0117   19.1657 C.ar    1  UNL1       -0.0027
     32 C           3.6059   -2.4540   19.2659 C.3     1  UNL1        0.1204
     33 C           2.8429   -1.1711   19.4151 C.ar    1  UNL1       -0.0023
     34 C           2.8104   -0.1824   18.2876 C.ar    1  UNL1       -0.0026
     35 C           2.0475    1.1005   18.4368 C.ar    1  UNL1       -0.0003
     36 C           1.3170    1.3946   19.7135 C.ar    1  UNL1       -0.0000
     37 C           1.3496    0.4058   20.8410 C.ar    1  UNL1       -0.0003
     38 C           2.1125   -0.8770   20.6918 C.ar    1  UNL1       -0.0026
@<TRIPOS>BOND
     1    18    19    1
     2    19     6    1
     3     6     7   ar
     4     7     8   ar
     5     8     1    1
     6     1     2   ar
     7     2     3   ar
     8     3    20    1
     9    20    21    1
    10    21    22    2
    11    21    23   am
    12    23    32    1
    13    32    33    1
    14    33    34   ar
    15    34    35   ar
    16    35    36   ar
    17    36    37   ar
    18    37    38   ar
    19    23    24    1
    20    24    25    1
    21    24    26    1
    22    26    27   ar
    23    27    28   ar
    24    28    29   ar
    25    29    30   ar
    26    30    31   ar
    27     3     4   ar
    28     4     5   ar
    29     8     9   ar
    30     9    10   ar
    31    10    11   ar
    32    11    12    1
    33    12    13   ar
    34    13    14   ar
    35    14    15   ar
    36    15    16    1
    37    15    17   ar
    38    11     6   ar
    39    17    12   ar
    40     5     1   ar
    41    38    33   ar
    42    31    26   ar
