@<TRIPOS>MOLECULE
*****
 26 29 0 0 0
SMALL
GASTEIGER

@<TRIPOS>ATOM
      1 N          -5.6261  -16.1882   23.8365 N.ar    1  UNL1       -0.2463
      2 N          -6.6622  -16.4338   22.7801 N.ar    1  UNL1       -0.1641
      3 C          -8.0136  -16.2521   23.4051 C.ar    1  UNL1        0.1581
      4 C          -7.8127  -15.8942   24.8479 C.ar    1  UNL1        0.0413
      5 C          -8.7828  -15.5992   25.9533 C.ar    1  UNL1        0.0032
      6 C          -8.2772  -15.2647   27.3253 C.ar    1  UNL1        0.0001
      7 C          -6.8016  -15.2252   27.5919 C.ar    1  UNL1        0.0015
      8 C          -5.8316  -15.5202   26.4865 C.ar    1  UNL1        0.0188
      9 C          -6.3371  -15.8547   25.1145 C.ar    1  UNL1        0.0799
     10 C          -9.3341  -16.4020   22.7096 C.ar    1  UNL1        0.2792
     11 N          -9.5504  -16.4345   21.2257 N.ar    1  UNL1       -0.1884
     12 C         -11.0202  -16.5983   20.9748 C.ar    1  UNL1        0.1965
     13 N         -11.7123  -16.6671   22.3038 N.ar    1  UNL1       -0.0587
     14 O         -10.6703  -16.5457   23.3760 O.2     1  UNL1       -0.3311
     15 C         -11.6816  -16.6792   19.6310 C.3     1  UNL1        0.1355
     16 N         -12.2799  -15.4496   19.0143 N.3     1  UNL1       -0.3147
     17 H         -13.0724  -15.1386   19.5761 H       1  UNL1        0.1192
     18 H         -12.5967  -15.6633   18.0686 H       1  UNL1        0.1192
     19 C          -4.1399  -16.2630   23.6481 C.3     1  UNL1        0.1538
     20 C          -0.6095  -17.8023   20.1599 C.3     1  UNL1        0.0310
     21 C          -1.7808  -18.1096   21.0452 C.ar    1  UNL1       -0.0221
     22 C          -2.3581  -19.4938   21.0717 C.ar    1  UNL1       -0.0043
     23 C          -3.5294  -19.8010   21.9570 C.ar    1  UNL1       -0.0006
     24 C          -4.1233  -18.7241   22.8158 C.ar    1  UNL1       -0.0024
     25 C          -3.5459  -17.3400   22.7893 C.ar    1  UNL1        0.0018
     26 C          -2.3747  -17.0327   21.9040 C.ar    1  UNL1       -0.0066
@<TRIPOS>BOND
     1    20    21    1
     2    21    22   ar
     3    22    23   ar
     4    23    24   ar
     5    24    25   ar
     6    25    19    1
     7    19     1    1
     8     1     2   ar
     9     2     3   ar
    10     3    10    1
    11    10    11   ar
    12    11    12   ar
    13    12    15    1
    14    15    16    1
    15    12    13   ar
    16    13    14   ar
    17     3     4   ar
    18     4     5   ar
    19     5     6   ar
    20     6     7   ar
    21     7     8   ar
    22     8     9   ar
    23    25    26   ar
    24    26    21   ar
    25     9     1   ar
    26    14    10   ar
    27     9     4   ar
    28    16    17    1
    29    16    18    1
@<TRIPOS>MOLECULE
*****
 26 29 0 0 0
SMALL
GASTEIGER

@<TRIPOS>ATOM
      1 N          -5.6201  -16.1595   23.7810 N.ar    1  UNL1       -0.2463
      2 N          -6.6529  -16.4253   22.7262 N.ar    1  UNL1       -0.1641
      3 C          -8.0066  -16.2599   23.3509 C.ar    1  UNL1        0.1581
      4 C          -7.8104  -15.8919   24.7917 C.ar    1  UNL1        0.0413
      5 C          -8.7842  -15.6053   25.8960 C.ar    1  UNL1        0.0032
      6 C          -8.2830  -15.2566   27.2661 C.ar    1  UNL1        0.0001
      7 C          -6.8081  -15.1945   27.5319 C.ar    1  UNL1        0.0015
      8 C          -5.8343  -15.4811   26.4276 C.ar    1  UNL1        0.0188
      9 C          -6.3354  -15.8298   25.0575 C.ar    1  UNL1        0.0799
     10 C          -9.3250  -16.4323   22.6566 C.ar    1  UNL1        0.2792
     11 N         -10.4875  -17.2362   23.1589 N.ar    1  UNL1       -0.1884
     12 C         -11.5935  -17.1318   22.1509 C.ar    1  UNL1        0.1965
     13 N         -11.1144  -16.2633   21.0256 N.ar    1  UNL1       -0.0587
     14 O          -9.7125  -15.8310   21.3382 O.2     1  UNL1       -0.3311
     15 C         -12.9416  -17.7817   22.2506 C.3     1  UNL1        0.1355
     16 N         -13.6041  -17.9334   23.5879 N.3     1  UNL1       -0.3147
     17 H         -13.0617  -18.5761   24.1651 H       1  UNL1        0.1192
     18 H         -14.5461  -18.3031   23.4607 H       1  UNL1        0.1192
     19 C          -4.1330  -16.2138   23.5923 C.3     1  UNL1        0.1538
     20 C          -0.5580  -17.7644   20.1549 C.3     1  UNL1        0.0310
     21 C          -1.7352  -18.0709   21.0326 C.ar    1  UNL1       -0.0221
     22 C          -2.3020  -19.4592   21.0694 C.ar    1  UNL1       -0.0043
     23 C          -3.4791  -19.7657   21.9472 C.ar    1  UNL1       -0.0006
     24 C          -4.0895  -18.6840   22.7881 C.ar    1  UNL1       -0.0024
     25 C          -3.5227  -17.2957   22.7513 C.ar    1  UNL1        0.0018
     26 C          -2.3455  -16.9892   21.8736 C.ar    1  UNL1       -0.0066
@<TRIPOS>BOND
     1    20    21    1
     2    21    22   ar
     3    22    23   ar
     4    23    24   ar
     5    24    25   ar
     6    25    19    1
     7    19     1    1
     8     1     2   ar
     9     2     3   ar
    10     3    10    1
    11    10    11   ar
    12    11    12   ar
    13    12    15    1
    14    15    16    1
    15    12    13   ar
    16    13    14   ar
    17     3     4   ar
    18     4     5   ar
    19     5     6   ar
    20     6     7   ar
    21     7     8   ar
    22     8     9   ar
    23    25    26   ar
    24    26    21   ar
    25     9     1   ar
    26    14    10   ar
    27     9     4   ar
    28    16    17    1
    29    16    18    1
@<TRIPOS>MOLECULE
*****
 26 29 0 0 0
SMALL
GASTEIGER

@<TRIPOS>ATOM
      1 N          -7.8144  -19.2310   22.3877 N.ar    1  UNL1       -0.2463
      2 N          -6.5633  -19.7996   21.7866 N.ar    1  UNL1       -0.1641
      3 C          -5.4387  -18.8488   22.0715 C.ar    1  UNL1        0.1581
      4 C          -5.9947  -17.6926   22.8487 C.ar    1  UNL1        0.0413
      5 C          -5.3538  -16.4553   23.4038 C.ar    1  UNL1        0.0032
      6 C          -6.1811  -15.4542   24.1542 C.ar    1  UNL1        0.0001
      7 C          -7.6494  -15.6904   24.3496 C.ar    1  UNL1        0.0015
      8 C          -8.2904  -16.9278   23.7946 C.ar    1  UNL1        0.0188
      9 C          -7.4631  -17.9289   23.0442 C.ar    1  UNL1        0.0799
     10 C          -4.0089  -19.0235   21.6527 C.ar    1  UNL1        0.2792
     11 N          -3.2376  -18.1101   20.7468 N.ar    1  UNL1       -0.1884
     12 C          -1.8515  -18.6643   20.6005 C.ar    1  UNL1        0.1965
     13 N          -1.7661  -19.9203   21.4162 N.ar    1  UNL1       -0.0587
     14 O          -3.0995  -20.1423   22.0664 O.2     1  UNL1       -0.3311
     15 C          -0.7451  -18.0674   19.7824 C.3     1  UNL1        0.1355
     16 N          -0.9570  -17.7890   18.3237 N.3     1  UNL1       -0.3147
     17 H          -1.0827  -18.6694   17.8243 H       1  UNL1        0.1192
     18 H          -0.1445  -17.2988   17.9496 H       1  UNL1        0.1192
     19 C          -9.1777  -19.8551   22.3407 C.3     1  UNL1        0.1538
     20 C         -13.7450  -17.9056   23.8703 C.3     1  UNL1        0.0310
     21 C         -12.6667  -18.0295   22.8349 C.ar    1  UNL1       -0.0221
     22 C         -12.7938  -17.3027   21.5290 C.ar    1  UNL1       -0.0043
     23 C         -11.7155  -17.4266   20.4936 C.ar    1  UNL1       -0.0006
     24 C         -10.5102  -18.2774   20.7641 C.ar    1  UNL1       -0.0024
     25 C         -10.3831  -19.0042   22.0701 C.ar    1  UNL1        0.0018
     26 C         -11.4613  -18.8803   23.1054 C.ar    1  UNL1       -0.0066
@<TRIPOS>BOND
     1    20    21    1
     2    21    22   ar
     3    22    23   ar
     4    23    24   ar
     5    24    25   ar
     6    25    19    1
     7    19     1    1
     8     1     2   ar
     9     2     3   ar
    10     3    10    1
    11    10    11   ar
    12    11    12   ar
    13    12    15    1
    14    15    16    1
    15    12    13   ar
    16    13    14   ar
    17     3     4   ar
    18     4     5   ar
    19     5     6   ar
    20     6     7   ar
    21     7     8   ar
    22     8     9   ar
    23    25    26   ar
    24    26    21   ar
    25     9     1   ar
    26    14    10   ar
    27     9     4   ar
    28    16    17    1
    29    16    18    1
@<TRIPOS>MOLECULE
*****
 26 29 0 0 0
SMALL
GASTEIGER

@<TRIPOS>ATOM
      1 N          -8.5809  -16.7438   24.0013 N.ar    1  UNL1       -0.2463
      2 N          -7.4617  -17.0402   23.0476 N.ar    1  UNL1       -0.1641
      3 C          -6.1809  -16.5808   23.6791 C.ar    1  UNL1        0.1581
      4 C          -6.5087  -16.0006   25.0229 C.ar    1  UNL1        0.0413
      5 C          -5.6481  -15.3935   26.0910 C.ar    1  UNL1        0.0032
      6 C          -6.2708  -14.8872   27.3582 C.ar    1  UNL1        0.0001
      7 C          -7.7541  -14.9879   27.5573 C.ar    1  UNL1        0.0015
      8 C          -8.6147  -15.5950   26.4892 C.ar    1  UNL1        0.0188
      9 C          -7.9920  -16.1013   25.2220 C.ar    1  UNL1        0.0799
     10 C          -4.8127  -16.6837   23.0731 C.ar    1  UNL1        0.2792
     11 N          -4.1189  -17.9516   22.6723 N.ar    1  UNL1       -0.1884
     12 C          -2.7753  -17.5882   22.1130 C.ar    1  UNL1        0.1965
     13 N          -2.6388  -16.0954   22.1682 N.ar    1  UNL1       -0.0587
     14 O          -3.8979  -15.5364   22.7615 O.2     1  UNL1       -0.3311
     15 C          -1.7487  -18.5487   21.5904 C.3     1  UNL1        0.1355
     16 N          -2.0470  -20.0184   21.5526 N.3     1  UNL1       -0.3147
     17 H          -2.1411  -20.3708   22.5051 H       1  UNL1        0.1192
     18 H          -1.2855  -20.5079   21.0826 H       1  UNL1        0.1192
     19 C         -10.0341  -17.0383   23.7740 C.3     1  UNL1        0.1538
     20 C         -11.7768  -15.6549   19.0783 C.3     1  UNL1        0.0310
     21 C         -11.3892  -16.7234   20.0571 C.ar    1  UNL1       -0.0221
     22 C         -11.4853  -18.1686   19.6671 C.ar    1  UNL1       -0.0043
     23 C         -11.0977  -19.2370   20.6460 C.ar    1  UNL1       -0.0006
     24 C         -10.6140  -18.8603   22.0149 C.ar    1  UNL1       -0.0024
     25 C         -10.5179  -17.4151   22.4050 C.ar    1  UNL1        0.0018
     26 C         -10.9055  -16.3467   21.4261 C.ar    1  UNL1       -0.0066
@<TRIPOS>BOND
     1    20    21    1
     2    21    22   ar
     3    22    23   ar
     4    23    24   ar
     5    24    25   ar
     6    25    19    1
     7    19     1    1
     8     1     2   ar
     9     2     3   ar
    10     3    10    1
    11    10    11   ar
    12    11    12   ar
    13    12    15    1
    14    15    16    1
    15    12    13   ar
    16    13    14   ar
    17     3     4   ar
    18     4     5   ar
    19     5     6   ar
    20     6     7   ar
    21     7     8   ar
    22     8     9   ar
    23    25    26   ar
    24    26    21   ar
    25     9     1   ar
    26    14    10   ar
    27     9     4   ar
    28    16    17    1
    29    16    18    1
@<TRIPOS>MOLECULE
*****
 26 29 0 0 0
SMALL
GASTEIGER

@<TRIPOS>ATOM
      1 N          -8.3474  -17.6337   22.4926 N.ar    1  UNL1       -0.2463
      2 N          -6.8614  -17.8137   22.3969 N.ar    1  UNL1       -0.1641
      3 C          -6.5751  -18.6799   21.2062 C.ar    1  UNL1        0.1581
      4 C          -7.8843  -19.0352   20.5660 C.ar    1  UNL1        0.0413
      5 C          -8.2204  -19.8641   19.3619 C.ar    1  UNL1        0.0032
      6 C          -9.6520  -20.0463   18.9528 C.ar    1  UNL1        0.0001
      7 C         -10.7474  -19.3997   19.7478 C.ar    1  UNL1        0.0015
      8 C         -10.4112  -18.5709   20.9520 C.ar    1  UNL1        0.0188
      9 C          -8.9797  -18.3887   21.3611 C.ar    1  UNL1        0.0799
     10 C          -5.2180  -19.1144   20.7379 C.ar    1  UNL1        0.2792
     11 N          -3.9688  -18.2846   20.7638 N.ar    1  UNL1       -0.1884
     12 C          -2.8505  -19.1124   20.2034 C.ar    1  UNL1        0.1965
     13 N          -3.4086  -20.4540   19.8311 N.ar    1  UNL1       -0.0587
     14 O          -4.8718  -20.4553   20.1615 O.2     1  UNL1       -0.3311
     15 C          -1.4246  -18.6754   20.0434 C.3     1  UNL1        0.1355
     16 N          -0.9930  -17.9668   18.7937 N.3     1  UNL1       -0.3147
     17 H          -1.0668  -18.6026   17.9995 H       1  UNL1        0.1192
     18 H          -0.0257  -17.6591   18.8941 H       1  UNL1        0.1192
     19 C          -9.0739  -16.8384   23.5365 C.3     1  UNL1        0.1538
     20 C          -5.0628  -14.7236   26.0743 C.3     1  UNL1        0.0310
     21 C          -6.3842  -15.4333   26.0942 C.ar    1  UNL1       -0.0221
     22 C          -7.0213  -15.7954   27.4030 C.ar    1  UNL1       -0.0043
     23 C          -8.3427  -16.5051   27.4230 C.ar    1  UNL1       -0.0006
     24 C          -9.0269  -16.8528   26.1342 C.ar    1  UNL1       -0.0024
     25 C          -8.3897  -16.4907   24.8254 C.ar    1  UNL1        0.0018
     26 C          -7.0683  -15.7810   24.8055 C.ar    1  UNL1       -0.0066
@<TRIPOS>BOND
     1    20    21    1
     2    21    22   ar
     3    22    23   ar
     4    23    24   ar
     5    24    25   ar
     6    25    19    1
     7    19     1    1
     8     1     2   ar
     9     2     3   ar
    10     3    10    1
    11    10    11   ar
    12    11    12   ar
    13    12    15    1
    14    15    16    1
    15    12    13   ar
    16    13    14   ar
    17     3     4   ar
    18     4     5   ar
    19     5     6   ar
    20     6     7   ar
    21     7     8   ar
    22     8     9   ar
    23    25    26   ar
    24    26    21   ar
    25     9     1   ar
    26    14    10   ar
    27     9     4   ar
    28    16    17    1
    29    16    18    1
@<TRIPOS>MOLECULE
*****
 26 29 0 0 0
SMALL
GASTEIGER

@<TRIPOS>ATOM
      1 N          -7.7799  -17.8377   22.4374 N.ar    1  UNL1       -0.2463
      2 N          -6.2873  -17.8413   22.5865 N.ar    1  UNL1       -0.1641
      3 C          -5.7134  -18.6807   21.4838 C.ar    1  UNL1        0.1581
      4 C          -6.8513  -19.1959   20.6532 C.ar    1  UNL1        0.0413
      5 C          -6.8894  -20.0721   19.4363 C.ar    1  UNL1        0.0032
      6 C          -8.2047  -20.4273   18.8089 C.ar    1  UNL1        0.0001
      7 C          -9.4819  -19.9063   19.3983 C.ar    1  UNL1        0.0015
      8 C          -9.4438  -19.0301   20.6151 C.ar    1  UNL1        0.0188
      9 C          -8.1284  -18.6749   21.2426 C.ar    1  UNL1        0.0799
     10 C          -4.2573  -18.9565   21.2523 C.ar    1  UNL1        0.2792
     11 N          -3.3352  -18.1540   20.3830 N.ar    1  UNL1       -0.1884
     12 C          -1.9756  -18.7847   20.4428 C.ar    1  UNL1        0.1965
     13 N          -2.0574  -19.9771   21.3492 N.ar    1  UNL1       -0.0587
     14 O          -3.4676  -20.0833   21.8495 O.2     1  UNL1       -0.3311
     15 C          -0.7496  -18.3071   19.7228 C.3     1  UNL1        0.1355
     16 N           0.4588  -17.8792   20.5018 N.3     1  UNL1       -0.3147
     17 H           0.2381  -17.0401   21.0381 H       1  UNL1        0.1192
     18 H           1.2250  -17.6798   19.8586 H       1  UNL1        0.1192
     19 C          -8.7531  -17.1225   23.3270 C.3     1  UNL1        0.1538
     20 C         -13.7945  -18.1594   24.0412 C.3     1  UNL1        0.0310
     21 C         -12.7044  -17.4873   23.2602 C.ar    1  UNL1       -0.0221
     22 C         -13.0450  -16.6616   22.0551 C.ar    1  UNL1       -0.0043
     23 C         -11.9549  -15.9895   21.2740 C.ar    1  UNL1       -0.0006
     24 C         -10.5243  -16.1431   21.6979 C.ar    1  UNL1       -0.0024
     25 C         -10.1838  -16.9688   22.9030 C.ar    1  UNL1        0.0018
     26 C         -11.2738  -17.6409   23.6841 C.ar    1  UNL1       -0.0066
@<TRIPOS>BOND
     1    20    21    1
     2    21    22   ar
     3    22    23   ar
     4    23    24   ar
     5    24    25   ar
     6    25    19    1
     7    19     1    1
     8     1     2   ar
     9     2     3   ar
    10     3    10    1
    11    10    11   ar
    12    11    12   ar
    13    12    15    1
    14    15    16    1
    15    12    13   ar
    16    13    14   ar
    17     3     4   ar
    18     4     5   ar
    19     5     6   ar
    20     6     7   ar
    21     7     8   ar
    22     8     9   ar
    23    25    26   ar
    24    26    21   ar
    25     9     1   ar
    26    14    10   ar
    27     9     4   ar
    28    16    17    1
    29    16    18    1
@<TRIPOS>MOLECULE
*****
 26 29 0 0 0
SMALL
GASTEIGER

@<TRIPOS>ATOM
      1 N          -6.7729  -19.3845   22.0204 N.ar    1  UNL1       -0.2463
      2 N          -7.8060  -18.6335   22.8070 N.ar    1  UNL1       -0.1641
      3 C          -9.0806  -18.6330   22.0162 C.ar    1  UNL1        0.1581
      4 C          -8.8354  -19.3837   20.7410 C.ar    1  UNL1        0.0413
      5 C          -9.7265  -19.7043   19.5778 C.ar    1  UNL1        0.0032
      6 C          -9.1913  -20.4895   18.4171 C.ar    1  UNL1        0.0001
      7 C          -7.7650  -20.9540   18.4197 C.ar    1  UNL1        0.0015
      8 C          -6.8739  -20.6334   19.5829 C.ar    1  UNL1        0.0188
      9 C          -7.4091  -19.8482   20.7435 C.ar    1  UNL1        0.0799
     10 C         -10.3736  -17.9939   22.4284 C.ar    1  UNL1        0.2792
     11 N         -11.5038  -18.6725   23.1438 N.ar    1  UNL1       -0.1884
     12 C         -12.5921  -17.6621   23.3550 C.ar    1  UNL1        0.1965
     13 N         -12.1344  -16.3589   22.7701 N.ar    1  UNL1       -0.0587
     14 O         -10.7633  -16.5639   22.1974 O.2     1  UNL1       -0.3311
     15 C         -13.9071  -17.9111   24.0322 C.3     1  UNL1        0.1355
     16 N         -13.9399  -18.4430   25.4344 N.3     1  UNL1       -0.3147
     17 H         -13.5590  -19.3891   25.4481 H       1  UNL1        0.1192
     18 H         -14.9031  -18.4593   25.7694 H       1  UNL1        0.1192
     19 C          -5.3530  -19.6290   22.4374 C.3     1  UNL1        0.1538
     20 C          -1.9866  -18.1127   18.7811 C.3     1  UNL1        0.0310
     21 C          -2.5827  -17.9462   20.1474 C.ar    1  UNL1       -0.0221
     22 C          -2.0917  -16.8551   21.0521 C.ar    1  UNL1       -0.0043
     23 C          -2.6877  -16.6886   22.4184 C.ar    1  UNL1       -0.0006
     24 C          -3.7748  -17.6132   22.8803 C.ar    1  UNL1       -0.0024
     25 C          -4.2658  -18.7043   21.9756 C.ar    1  UNL1        0.0018
     26 C          -3.6697  -18.8708   20.6093 C.ar    1  UNL1       -0.0066
@<TRIPOS>BOND
     1    20    21    1
     2    21    22   ar
     3    22    23   ar
     4    23    24   ar
     5    24    25   ar
     6    25    19    1
     7    19     1    1
     8     1     2   ar
     9     2     3   ar
    10     3    10    1
    11    10    11   ar
    12    11    12   ar
    13    12    15    1
    14    15    16    1
    15    12    13   ar
    16    13    14   ar
    17     3     4   ar
    18     4     5   ar
    19     5     6   ar
    20     6     7   ar
    21     7     8   ar
    22     8     9   ar
    23    25    26   ar
    24    26    21   ar
    25     9     1   ar
    26    14    10   ar
    27     9     4   ar
    28    16    17    1
    29    16    18    1
@<TRIPOS>MOLECULE
*****
 26 29 0 0 0
SMALL
GASTEIGER

@<TRIPOS>ATOM
      1 N         -13.3923   -4.7269   19.7961 N.ar    1  UNL1       -0.2463
      2 N         -14.5872   -5.6233   19.6596 N.ar    1  UNL1       -0.1641
      3 C         -14.1381   -6.8984   19.0096 C.ar    1  UNL1        0.1581
      4 C         -12.6657   -6.7901   18.7445 C.ar    1  UNL1        0.0413
      5 C         -11.6852   -7.7401   18.1232 C.ar    1  UNL1        0.0032
      6 C         -10.2437   -7.3480   17.9881 C.ar    1  UNL1        0.0001
      7 C          -9.7827   -6.0059   18.4742 C.ar    1  UNL1        0.0015
      8 C         -10.7633   -5.0559   19.0954 C.ar    1  UNL1        0.0188
      9 C         -12.2048   -5.4480   19.2306 C.ar    1  UNL1        0.0799
     10 C         -15.0086   -8.0753   18.6822 C.ar    1  UNL1        0.2792
     11 N         -16.4495   -8.0185   18.2692 N.ar    1  UNL1       -0.1884
     12 C         -16.9225   -9.4237   18.0421 C.ar    1  UNL1        0.1965
     13 N         -15.7738  -10.3491   18.3148 N.ar    1  UNL1       -0.0587
     14 O         -14.5910   -9.5157   18.7104 O.2     1  UNL1       -0.3311
     15 C         -18.3018   -9.8319   17.6171 C.3     1  UNL1        0.1355
     16 N         -18.9467  -11.0420   18.2251 N.3     1  UNL1       -0.3147
     17 H         -18.4294  -11.8771   17.9505 H       1  UNL1        0.1192
     18 H         -19.9097  -11.1153   17.8967 H       1  UNL1        0.1192
     19 C         -13.3860   -3.3509   20.3934 C.3     1  UNL1        0.1538
     20 C         -10.7405   -0.1808   17.2387 C.3     1  UNL1        0.0310
     21 C         -12.0198   -0.5610   17.9235 C.ar    1  UNL1       -0.0221
     22 C         -13.2555    0.2635   17.7158 C.ar    1  UNL1       -0.0043
     23 C         -14.5347   -0.1168   18.4007 C.ar    1  UNL1       -0.0006
     24 C         -14.5783   -1.3216   19.2932 C.ar    1  UNL1       -0.0024
     25 C         -13.3425   -2.1461   19.5008 C.ar    1  UNL1        0.0018
     26 C         -12.0633   -1.7658   18.8160 C.ar    1  UNL1       -0.0066
@<TRIPOS>BOND
     1    20    21    1
     2    21    22   ar
     3    22    23   ar
     4    23    24   ar
     5    24    25   ar
     6    25    19    1
     7    19     1    1
     8     1     2   ar
     9     2     3   ar
    10     3    10    1
    11    10    11   ar
    12    11    12   ar
    13    12    15    1
    14    15    16    1
    15    12    13   ar
    16    13    14   ar
    17     3     4   ar
    18     4     5   ar
    19     5     6   ar
    20     6     7   ar
    21     7     8   ar
    22     8     9   ar
    23    25    26   ar
    24    26    21   ar
    25     9     1   ar
    26    14    10   ar
    27     9     4   ar
    28    16    17    1
    29    16    18    1
@<TRIPOS>MOLECULE
*****
 26 29 0 0 0
SMALL
GASTEIGER

@<TRIPOS>ATOM
      1 N          -5.9344  -18.9659   21.8852 N.ar    1  UNL1       -0.2463
      2 N          -6.9626  -17.9705   22.3345 N.ar    1  UNL1       -0.1641
      3 C          -8.2187  -18.2165   21.5524 C.ar    1  UNL1        0.1581
      4 C          -7.9667  -19.3640   20.6197 C.ar    1  UNL1        0.0413
      5 C          -8.8404  -20.0469   19.6097 C.ar    1  UNL1        0.0032
      6 C          -8.3023  -21.1930   18.8054 C.ar    1  UNL1        0.0001
      7 C          -6.8905  -21.6561   19.0112 C.ar    1  UNL1        0.0015
      8 C          -6.0168  -20.9732   20.0212 C.ar    1  UNL1        0.0188
      9 C          -6.5549  -19.8271   20.8254 C.ar    1  UNL1        0.0799
     10 C          -9.5015  -17.4498   21.6804 C.ar    1  UNL1        0.2792
     11 N         -10.4609  -17.1444   20.5686 N.ar    1  UNL1       -0.1884
     12 C         -11.6026  -16.3596   21.1438 C.ar    1  UNL1        0.1965
     13 N         -11.3486  -16.1800   22.6112 N.ar    1  UNL1       -0.0587
     14 O         -10.0501  -16.8537   22.9429 O.2     1  UNL1       -0.3311
     15 C         -12.7896  -15.8450   20.3849 C.3     1  UNL1        0.1355
     16 N         -12.6385  -15.4203   18.9541 N.3     1  UNL1       -0.3147
     17 H         -12.0354  -14.5992   18.9050 H       1  UNL1        0.1192
     18 H         -13.5550  -15.1927   18.5685 H       1  UNL1        0.1192
     19 C          -4.5318  -19.0800   22.4046 C.3     1  UNL1        0.1538
     20 C          -1.4742  -18.0200   18.3391 C.3     1  UNL1        0.0310
     21 C          -1.9043  -17.7409   19.7487 C.ar    1  UNL1       -0.0221
     22 C          -1.2358  -16.6525   20.5352 C.ar    1  UNL1       -0.0043
     23 C          -1.6660  -16.3733   21.9448 C.ar    1  UNL1       -0.0006
     24 C          -2.7646  -17.1824   22.5680 C.ar    1  UNL1       -0.0024
     25 C          -3.4331  -18.2708   21.7814 C.ar    1  UNL1        0.0018
     26 C          -3.0029  -18.5500   20.3718 C.ar    1  UNL1       -0.0066
@<TRIPOS>BOND
     1    20    21    1
     2    21    22   ar
     3    22    23   ar
     4    23    24   ar
     5    24    25   ar
     6    25    19    1
     7    19     1    1
     8     1     2   ar
     9     2     3   ar
    10     3    10    1
    11    10    11   ar
    12    11    12   ar
    13    12    15    1
    14    15    16    1
    15    12    13   ar
    16    13    14   ar
    17     3     4   ar
    18     4     5   ar
    19     5     6   ar
    20     6     7   ar
    21     7     8   ar
    22     8     9   ar
    23    25    26   ar
    24    26    21   ar
    25     9     1   ar
    26    14    10   ar
    27     9     4   ar
    28    16    17    1
    29    16    18    1
