@<TRIPOS>MOLECULE
*****
 27 29 0 0 0
SMALL
GASTEIGER

@<TRIPOS>ATOM
      1 C          -7.7952  -18.4137   21.4906 C.2     1  UNL1        0.2420
      2 O          -9.2687  -18.6701   21.3767 O.2     1  UNL1       -0.2734
      3 N          -7.2569  -17.6372   22.6556 N.am    1  UNL1       -0.2760
      4 C          -5.7834  -17.3808   22.7695 C.3     1  UNL1        0.0983
      5 C          -5.2450  -16.6044   23.9345 C.3     1  UNL1        0.0476
      6 C          -6.1802  -16.0843   24.9857 C.ar    1  UNL1       -0.0227
      7 C          -5.6419  -15.3078   26.1507 C.ar    1  UNL1       -0.0022
      8 C          -6.5771  -14.7878   27.2019 C.ar    1  UNL1        0.0293
      9 C          -8.0506  -15.0442   27.0880 C.ar    1  UNL1        0.1399
     10 F          -8.9859  -14.5241   28.1392 F       1  UNL1       -0.2042
     11 C          -8.5890  -15.8206   25.9230 C.ar    1  UNL1        0.0267
     12 C          -7.6538  -16.3407   24.8719 C.ar    1  UNL1       -0.0059
     13 C          -8.1921  -17.1172   23.7068 C.3     1  UNL1        0.0976
     14 C          -9.6656  -17.3736   23.5929 C.3     1  UNL1        0.0224
     15 C         -10.2727  -18.5703   24.2633 C.3     1  UNL1        0.0020
     16 C         -11.7462  -18.8267   24.1494 C.3     1  UNL1        0.0001
     17 C         -12.6127  -17.8864   23.3651 C.3     1  UNL1        0.0000
     18 C         -12.0056  -16.6897   22.6948 C.3     1  UNL1        0.0001
     19 C         -10.5321  -16.4333   22.8086 C.3     1  UNL1        0.0020
     20 C          -6.8600  -18.9338   20.4394 C.3     1  UNL1        0.1552
     21 N          -6.1554  -20.2421   20.6435 N.3     1  UNL1       -0.2878
     22 H          -6.1374  -20.4132   21.6488 H       1  UNL1        0.1238
     23 C          -4.7511  -20.4229   20.1482 C.3     1  UNL1        0.0985
     24 C          -2.7628  -19.6204   21.6153 C.3     1  UNL1        0.0332
     25 C          -3.7046  -19.3974   20.4694 C.3     1  UNL1        0.1263
     26 O          -3.6000  -18.1488   19.6446 O.3     1  UNL1       -0.3830
     27 H          -4.2774  -18.1622   18.9504 H       1  UNL1        0.2104
@<TRIPOS>BOND
     1    25    24    1
     2    25    26    1
     3    25    23    1
     4    23    21    1
     5    21    20    1
     6    20     1    1
     7     1     2    2
     8     1     3   am
     9     3     4    1
    10     4     5    1
    11     5     6    1
    12     6     7   ar
    13     7     8   ar
    14     8     9   ar
    15     9    10    1
    16     9    11   ar
    17    11    12   ar
    18    12    13    1
    19    13    14    1
    20    14    15    1
    21    15    16    1
    22    16    17    1
    23    17    18    1
    24    18    19    1
    25    13     3    1
    26    19    14    1
    27    12     6   ar
    28    26    27    1
    29    21    22    1
@<TRIPOS>MOLECULE
*****
 27 29 0 0 0
SMALL
GASTEIGER

@<TRIPOS>ATOM
      1 C          -7.4122  -15.9291   24.0482 C.2     1  UNL1        0.2420
      2 O          -8.8969  -16.1250   23.9621 O.2     1  UNL1       -0.2734
      3 N          -6.4890  -16.8664   23.3276 N.am    1  UNL1       -0.2760
      4 C          -5.0044  -16.6706   23.4137 C.3     1  UNL1        0.0983
      5 C          -4.0812  -17.6078   22.6932 C.3     1  UNL1        0.0476
      6 C          -4.6426  -18.7410   21.8864 C.ar    1  UNL1       -0.0227
      7 C          -3.7194  -19.6782   21.1659 C.ar    1  UNL1       -0.0022
      8 C          -4.2809  -20.8113   20.3592 C.ar    1  UNL1        0.0293
      9 C          -5.7656  -21.0072   20.2730 C.ar    1  UNL1        0.1399
     10 F          -6.3270  -22.1404   19.4663 F       1  UNL1       -0.2042
     11 C          -6.6888  -20.0699   20.9936 C.ar    1  UNL1        0.0267
     12 C          -6.1273  -18.9368   21.8003 C.ar    1  UNL1       -0.0059
     13 C          -7.0505  -17.9995   22.5209 C.3     1  UNL1        0.0976
     14 C          -8.5352  -18.1954   22.4348 C.3     1  UNL1        0.0224
     15 C          -9.3230  -17.4974   21.3660 C.3     1  UNL1        0.0020
     16 C         -10.8076  -17.6932   21.2799 C.3     1  UNL1        0.0001
     17 C         -11.5045  -18.5871   22.2625 C.3     1  UNL1        0.0000
     18 C         -10.7167  -19.2851   23.3312 C.3     1  UNL1        0.0001
     19 C          -9.2320  -19.0892   23.4173 C.3     1  UNL1        0.0020
     20 C          -6.8508  -14.7960   24.8549 C.3     1  UNL1        0.1552
     21 N          -5.9695  -15.0801   26.0350 N.3     1  UNL1       -0.2878
     22 H          -5.2179  -15.6842   25.7025 H       1  UNL1        0.1238
     23 C          -6.5414  -15.7335   27.2581 C.3     1  UNL1        0.0985
     24 C          -8.7956  -17.0248   27.2826 C.3     1  UNL1        0.0332
     25 C          -8.0256  -15.7519   27.4741 C.3     1  UNL1        0.1263
     26 O          -8.7398  -14.4973   27.8816 O.3     1  UNL1       -0.3830
     27 H          -8.1002  -13.7724   27.9609 H       1  UNL1        0.2104
@<TRIPOS>BOND
     1    25    24    1
     2    25    26    1
     3    25    23    1
     4    23    21    1
     5    21    20    1
     6    20     1    1
     7     1     2    2
     8     1     3   am
     9     3     4    1
    10     4     5    1
    11     5     6    1
    12     6     7   ar
    13     7     8   ar
    14     8     9   ar
    15     9    10    1
    16     9    11   ar
    17    11    12   ar
    18    12    13    1
    19    13    14    1
    20    14    15    1
    21    15    16    1
    22    16    17    1
    23    17    18    1
    24    18    19    1
    25    13     3    1
    26    19    14    1
    27    12     6   ar
    28    26    27    1
    29    21    22    1
@<TRIPOS>MOLECULE
*****
 27 29 0 0 0
SMALL
GASTEIGER

@<TRIPOS>ATOM
      1 C         -10.7802  -17.1558   21.7659 C.2     1  UNL1        0.2420
      2 O         -10.6409  -16.2586   22.9599 O.2     1  UNL1       -0.2734
      3 N          -9.6125  -17.9765   21.3042 N.am    1  UNL1       -0.2760
      4 C          -9.7519  -18.8737   20.1102 C.3     1  UNL1        0.0983
      5 C          -8.5843  -19.6944   19.6484 C.3     1  UNL1        0.0476
      6 C          -7.2774  -19.6179   20.3807 C.ar    1  UNL1       -0.0227
      7 C          -6.1099  -20.4386   19.9189 C.ar    1  UNL1       -0.0022
      8 C          -4.8030  -20.3622   20.6512 C.ar    1  UNL1        0.0293
      9 C          -4.6637  -19.4650   21.8452 C.ar    1  UNL1        0.1399
     10 F          -3.3567  -19.3885   22.5775 F       1  UNL1       -0.2042
     11 C          -5.8312  -18.6443   22.3069 C.ar    1  UNL1        0.0267
     12 C          -7.1381  -18.7208   21.5747 C.ar    1  UNL1       -0.0059
     13 C          -8.3057  -17.9000   22.0364 C.3     1  UNL1        0.0976
     14 C          -8.1664  -17.0028   23.2304 C.3     1  UNL1        0.0224
     15 C          -8.6802  -17.4485   24.5674 C.3     1  UNL1        0.0020
     16 C          -8.5409  -16.5513   25.7614 C.3     1  UNL1        0.0001
     17 C          -7.8877  -15.2085   25.6184 C.3     1  UNL1        0.0000
     18 C          -7.3740  -14.7629   24.2815 C.3     1  UNL1        0.0001
     19 C          -7.5133  -15.6601   23.0875 C.3     1  UNL1        0.0020
     20 C         -12.0870  -17.2322   21.0336 C.3     1  UNL1        0.1552
     21 N         -13.2953  -17.8047   21.7136 N.3     1  UNL1       -0.2878
     22 H         -14.0906  -17.6259   21.1004 H       1  UNL1        0.1238
     23 C         -13.6853  -17.3239   23.0799 C.3     1  UNL1        0.0985
     24 C         -12.2578  -18.8532   24.6203 C.3     1  UNL1        0.0332
     25 C         -13.5808  -18.2467   24.2578 C.3     1  UNL1        0.1263
     26 O         -14.7995  -18.5629   25.0732 O.3     1  UNL1       -0.3830
     27 H         -15.5647  -18.0927   24.7067 H       1  UNL1        0.2104
@<TRIPOS>BOND
     1    25    24    1
     2    25    26    1
     3    25    23    1
     4    23    21    1
     5    21    20    1
     6    20     1    1
     7     1     2    2
     8     1     3   am
     9     3     4    1
    10     4     5    1
    11     5     6    1
    12     6     7   ar
    13     7     8   ar
    14     8     9   ar
    15     9    10    1
    16     9    11   ar
    17    11    12   ar
    18    12    13    1
    19    13    14    1
    20    14    15    1
    21    15    16    1
    22    16    17    1
    23    17    18    1
    24    18    19    1
    25    13     3    1
    26    19    14    1
    27    12     6   ar
    28    26    27    1
    29    21    22    1
@<TRIPOS>MOLECULE
*****
 27 29 0 0 0
SMALL
GASTEIGER

@<TRIPOS>ATOM
      1 C          -8.4377  -18.6480   21.4195 C.2     1  UNL1        0.2420
      2 O          -9.9283  -18.8156   21.4178 O.2     1  UNL1       -0.2734
      3 N          -7.7715  -17.8718   22.5167 N.am    1  UNL1       -0.2760
      4 C          -6.2809  -17.7042   22.5183 C.3     1  UNL1        0.0983
      5 C          -5.6146  -16.9280   23.6154 C.3     1  UNL1        0.0476
      6 C          -6.4390  -16.3195   24.7109 C.ar    1  UNL1       -0.0227
      7 C          -5.7728  -15.5433   25.8080 C.ar    1  UNL1       -0.0022
      8 C          -6.5972  -14.9348   26.9035 C.ar    1  UNL1        0.0293
      9 C          -8.0878  -15.1025   26.9019 C.ar    1  UNL1        0.1399
     10 F          -8.9121  -14.4939   27.9974 F       1  UNL1       -0.2042
     11 C          -8.7540  -15.8786   25.8048 C.ar    1  UNL1        0.0267
     12 C          -7.9296  -16.4871   24.7093 C.ar    1  UNL1       -0.0059
     13 C          -8.5958  -17.2633   23.6121 C.3     1  UNL1        0.0976
     14 C         -10.0864  -17.4309   23.6105 C.3     1  UNL1        0.0224
     15 C         -10.9472  -16.4803   22.8324 C.3     1  UNL1        0.0020
     16 C         -12.4378  -16.6479   22.8307 C.3     1  UNL1        0.0001
     17 C         -13.0676  -17.7662   23.6072 C.3     1  UNL1        0.0000
     18 C         -12.2069  -18.7168   24.3853 C.3     1  UNL1        0.0001
     19 C         -10.7163  -18.5492   24.3869 C.3     1  UNL1        0.0020
     20 C          -7.6133  -19.2565   20.3240 C.3     1  UNL1        0.1552
     21 N          -8.0815  -19.1779   18.9011 N.3     1  UNL1       -0.2878
     22 H          -8.3822  -18.2161   18.7428 H       1  UNL1        0.1238
     23 C          -9.1961  -20.0635   18.4282 C.3     1  UNL1        0.0985
     24 C          -7.9080  -22.2827   18.0211 C.3     1  UNL1        0.0332
     25 C          -8.8948  -21.2504   17.5621 C.3     1  UNL1        0.1263
     26 O          -9.5803  -21.4052   16.2369 O.3     1  UNL1       -0.3830
     27 H         -10.1815  -20.6573   16.0945 H       1  UNL1        0.2104
@<TRIPOS>BOND
     1    25    24    1
     2    25    26    1
     3    25    23    1
     4    23    21    1
     5    21    20    1
     6    20     1    1
     7     1     2    2
     8     1     3   am
     9     3     4    1
    10     4     5    1
    11     5     6    1
    12     6     7   ar
    13     7     8   ar
    14     8     9   ar
    15     9    10    1
    16     9    11   ar
    17    11    12   ar
    18    12    13    1
    19    13    14    1
    20    14    15    1
    21    15    16    1
    22    16    17    1
    23    17    18    1
    24    18    19    1
    25    13     3    1
    26    19    14    1
    27    12     6   ar
    28    26    27    1
    29    21    22    1
@<TRIPOS>MOLECULE
*****
 27 29 0 0 0
SMALL
GASTEIGER

@<TRIPOS>ATOM
      1 C          -5.7441  -19.9556   20.8743 C.2     1  UNL1        0.2420
      2 O          -7.0870  -20.4436   20.4180 O.2     1  UNL1       -0.2734
      3 N          -5.6512  -18.8507   21.8846 N.am    1  UNL1       -0.2760
      4 C          -4.3083  -18.3626   22.3410 C.3     1  UNL1        0.0983
      5 C          -4.2154  -17.2578   23.3512 C.3     1  UNL1        0.0476
      6 C          -5.4655  -16.6409   23.9052 C.ar    1  UNL1       -0.0227
      7 C          -5.3726  -15.5361   24.9154 C.ar    1  UNL1       -0.0022
      8 C          -6.6227  -14.9193   25.4693 C.ar    1  UNL1        0.0293
      9 C          -7.9656  -15.4074   25.0130 C.ar    1  UNL1        0.1399
     10 F          -9.2158  -14.7905   25.5669 F       1  UNL1       -0.2042
     11 C          -8.0585  -16.5122   24.0027 C.ar    1  UNL1        0.0267
     12 C          -6.8085  -17.1290   23.4488 C.ar    1  UNL1       -0.0059
     13 C          -6.9013  -18.2339   22.4385 C.3     1  UNL1        0.0976
     14 C          -8.2443  -18.7220   21.9822 C.3     1  UNL1        0.0224
     15 C          -8.8405  -18.1967   20.7098 C.3     1  UNL1        0.0020
     16 C         -10.1834  -18.6848   20.2535 C.3     1  UNL1        0.0001
     17 C         -10.9302  -19.6981   21.0694 C.3     1  UNL1        0.0000
     18 C         -10.3340  -20.2232   22.3417 C.3     1  UNL1        0.0001
     19 C          -8.9910  -19.7352   22.7981 C.3     1  UNL1        0.0020
     20 C          -4.4940  -20.5724   20.3204 C.3     1  UNL1        0.1552
     21 N          -3.2289  -19.7696   20.2509 N.3     1  UNL1       -0.2878
     22 H          -3.2306  -19.1467   21.0586 H       1  UNL1        0.1238
     23 C          -2.9456  -18.9187   19.0484 C.3     1  UNL1        0.0985
     24 C          -1.2669  -17.3979   20.3207 C.3     1  UNL1        0.0332
     25 C          -1.7558  -18.0054   19.0393 C.3     1  UNL1        0.1263
     26 O          -1.0548  -17.6996   17.7489 O.3     1  UNL1       -0.3830
     27 H          -1.4947  -18.1691   17.0229 H       1  UNL1        0.2104
@<TRIPOS>BOND
     1    25    24    1
     2    25    26    1
     3    25    23    1
     4    23    21    1
     5    21    20    1
     6    20     1    1
     7     1     2    2
     8     1     3   am
     9     3     4    1
    10     4     5    1
    11     5     6    1
    12     6     7   ar
    13     7     8   ar
    14     8     9   ar
    15     9    10    1
    16     9    11   ar
    17    11    12   ar
    18    12    13    1
    19    13    14    1
    20    14    15    1
    21    15    16    1
    22    16    17    1
    23    17    18    1
    24    18    19    1
    25    13     3    1
    26    19    14    1
    27    12     6   ar
    28    26    27    1
    29    21    22    1
@<TRIPOS>MOLECULE
*****
 27 29 0 0 0
SMALL
GASTEIGER

@<TRIPOS>ATOM
      1 C          -5.7752  -16.6030   23.4806 C.2     1  UNL1        0.2420
      2 O          -4.4227  -17.1544   23.1390 O.2     1  UNL1       -0.2734
      3 N          -6.9918  -17.0978   22.7559 N.am    1  UNL1       -0.2760
      4 C          -8.3443  -16.5464   23.0975 C.3     1  UNL1        0.0983
      5 C          -9.5608  -17.0411   22.3728 C.3     1  UNL1        0.0476
      6 C          -9.4249  -18.0874   21.3064 C.ar    1  UNL1       -0.0227
      7 C         -10.6415  -18.5821   20.5818 C.ar    1  UNL1       -0.0022
      8 C         -10.5055  -19.6283   19.5155 C.ar    1  UNL1        0.0293
      9 C          -9.1530  -20.1797   19.1739 C.ar    1  UNL1        0.1399
     10 F          -9.0171  -21.2259   18.1075 F       1  UNL1       -0.2042
     11 C          -7.9365  -19.6849   19.8985 C.ar    1  UNL1        0.0267
     12 C          -8.0724  -18.6388   20.9648 C.ar    1  UNL1       -0.0059
     13 C          -6.8558  -18.1440   21.6896 C.3     1  UNL1        0.0976
     14 C          -5.5033  -18.6954   21.3480 C.3     1  UNL1        0.0224
     15 C          -4.8526  -18.3327   20.0460 C.3     1  UNL1        0.0020
     16 C          -3.5001  -18.8842   19.7044 C.3     1  UNL1        0.0001
     17 C          -2.7984  -19.7982   20.6647 C.3     1  UNL1        0.0000
     18 C          -3.4492  -20.1608   21.9666 C.3     1  UNL1        0.0001
     19 C          -4.8017  -19.6094   22.3082 C.3     1  UNL1        0.0020
     20 C          -5.9112  -15.5568   24.5469 C.3     1  UNL1        0.1552
     21 N          -5.6878  -15.9187   25.9853 N.3     1  UNL1       -0.2878
     22 H          -5.9272  -16.9055   26.0813 H       1  UNL1        0.1238
     23 C          -6.4267  -15.1867   27.0663 C.3     1  UNL1        0.0985
     24 C          -8.4659  -16.7890   26.9123 C.3     1  UNL1        0.0332
     25 C          -7.8828  -15.4620   27.2981 C.3     1  UNL1        0.1263
     26 O          -8.7559  -14.4101   27.9157 O.3     1  UNL1       -0.3830
     27 H          -8.2263  -13.6194   28.1030 H       1  UNL1        0.2104
@<TRIPOS>BOND
     1    25    24    1
     2    25    26    1
     3    25    23    1
     4    23    21    1
     5    21    20    1
     6    20     1    1
     7     1     2    2
     8     1     3   am
     9     3     4    1
    10     4     5    1
    11     5     6    1
    12     6     7   ar
    13     7     8   ar
    14     8     9   ar
    15     9    10    1
    16     9    11   ar
    17    11    12   ar
    18    12    13    1
    19    13    14    1
    20    14    15    1
    21    15    16    1
    22    16    17    1
    23    17    18    1
    24    18    19    1
    25    13     3    1
    26    19    14    1
    27    12     6   ar
    28    26    27    1
    29    21    22    1
@<TRIPOS>MOLECULE
*****
 27 29 0 0 0
SMALL
GASTEIGER

@<TRIPOS>ATOM
      1 C           5.9867   -3.5548   23.5680 C.2     1  UNL1        0.2420
      2 O           6.2396   -4.3353   22.3122 O.2     1  UNL1       -0.2734
      3 N           4.9361   -2.4842   23.5868 N.am    1  UNL1       -0.2760
      4 C           4.6832   -1.7037   24.8426 C.3     1  UNL1        0.0983
      5 C           3.6327   -0.6332   24.8615 C.3     1  UNL1        0.0476
      6 C           2.8351   -0.3431   23.6247 C.ar    1  UNL1       -0.0227
      7 C           1.7846    0.7274   23.6436 C.ar    1  UNL1       -0.0022
      8 C           0.9870    1.0174   22.4068 C.ar    1  UNL1        0.0293
      9 C           1.2400    0.2369   21.1511 C.ar    1  UNL1        0.1399
     10 F           0.4423    0.5270   19.9143 F       1  UNL1       -0.2042
     11 C           2.2904   -0.8336   21.1322 C.ar    1  UNL1        0.0267
     12 C           3.0880   -1.1236   22.3689 C.ar    1  UNL1       -0.0059
     13 C           4.1386   -2.1942   22.3501 C.3     1  UNL1        0.0976
     14 C           4.3915   -2.9747   21.0943 C.3     1  UNL1        0.0224
     15 C           3.6729   -4.2702   20.8589 C.3     1  UNL1        0.0020
     16 C           3.9258   -5.0507   19.6032 C.3     1  UNL1        0.0001
     17 C           4.8973   -4.5357   18.5829 C.3     1  UNL1        0.0000
     18 C           5.6158   -3.2402   18.8183 C.3     1  UNL1        0.0001
     19 C           5.3629   -2.4597   20.0740 C.3     1  UNL1        0.0020
     20 C           6.7843   -3.8448   24.8048 C.3     1  UNL1        0.1552
     21 N           6.3633   -4.9509   25.7263 N.3     1  UNL1       -0.2878
     22 H           5.8891   -4.5121   26.5156 H       1  UNL1        0.1238
     23 C           7.3910   -5.8804   26.3009 C.3     1  UNL1        0.0985
     24 C           8.4045   -7.5886   24.6263 C.3     1  UNL1        0.0332
     25 C           7.5033   -7.2848   25.7862 C.3     1  UNL1        0.1263
     26 O           6.7143   -8.3854   26.4314 O.3     1  UNL1       -0.3830
     27 H           6.1875   -8.0213   27.1599 H       1  UNL1        0.2104
@<TRIPOS>BOND
     1    25    24    1
     2    25    26    1
     3    25    23    1
     4    23    21    1
     5    21    20    1
     6    20     1    1
     7     1     2    2
     8     1     3   am
     9     3     4    1
    10     4     5    1
    11     5     6    1
    12     6     7   ar
    13     7     8   ar
    14     8     9   ar
    15     9    10    1
    16     9    11   ar
    17    11    12   ar
    18    12    13    1
    19    13    14    1
    20    14    15    1
    21    15    16    1
    22    16    17    1
    23    17    18    1
    24    18    19    1
    25    13     3    1
    26    19    14    1
    27    12     6   ar
    28    26    27    1
    29    21    22    1
@<TRIPOS>MOLECULE
*****
 27 29 0 0 0
SMALL
GASTEIGER

@<TRIPOS>ATOM
      1 C          -8.9246  -16.0671   24.0212 C.2     1  UNL1        0.2420
      2 O         -10.4000  -15.8830   23.8227 O.2     1  UNL1       -0.2734
      3 N          -8.1643  -17.0235   23.1510 N.am    1  UNL1       -0.2760
      4 C          -6.6889  -17.2076   23.3494 C.3     1  UNL1        0.0983
      5 C          -5.9286  -18.1639   22.4793 C.3     1  UNL1        0.0476
      6 C          -6.6437  -18.9364   21.4106 C.ar    1  UNL1       -0.0227
      7 C          -5.8834  -19.8927   20.5404 C.ar    1  UNL1       -0.0022
      8 C          -6.5985  -20.6651   19.4717 C.ar    1  UNL1        0.0293
      9 C          -8.0739  -20.4811   19.2732 C.ar    1  UNL1        0.1399
     10 F          -8.7890  -21.2535   18.2045 F       1  UNL1       -0.2042
     11 C          -8.8342  -19.5247   20.1434 C.ar    1  UNL1        0.0267
     12 C          -8.1191  -18.7523   21.2121 C.ar    1  UNL1       -0.0059
     13 C          -8.8794  -17.7959   22.0823 C.3     1  UNL1        0.0976
     14 C         -10.3548  -17.6118   21.8838 C.3     1  UNL1        0.0224
     15 C         -10.8583  -16.6022   20.8952 C.3     1  UNL1        0.0020
     16 C         -12.3337  -16.4182   20.6967 C.3     1  UNL1        0.0001
     17 C         -13.3055  -17.2437   21.4868 C.3     1  UNL1        0.0000
     18 C         -12.8019  -18.2533   22.4753 C.3     1  UNL1        0.0001
     19 C         -11.3265  -18.4373   22.6738 C.3     1  UNL1        0.0020
     20 C          -8.2095  -15.2947   25.0898 C.3     1  UNL1        0.1552
     21 N          -8.0613  -15.8771   26.4642 N.3     1  UNL1       -0.2878
     22 H          -8.7510  -15.4141   27.0561 H       1  UNL1        0.1238
     23 C          -6.7459  -15.7861   27.1795 C.3     1  UNL1        0.0985
     24 C          -4.5745  -16.7485   26.1267 C.3     1  UNL1        0.0332
     25 C          -5.4805  -15.5847   26.3996 C.3     1  UNL1        0.1263
     26 O          -5.1212  -14.2194   25.8928 O.3     1  UNL1       -0.3830
     27 H          -5.8081  -13.5863   26.1542 H       1  UNL1        0.2104
@<TRIPOS>BOND
     1    25    24    1
     2    25    26    1
     3    25    23    1
     4    23    21    1
     5    21    20    1
     6    20     1    1
     7     1     2    2
     8     1     3   am
     9     3     4    1
    10     4     5    1
    11     5     6    1
    12     6     7   ar
    13     7     8   ar
    14     8     9   ar
    15     9    10    1
    16     9    11   ar
    17    11    12   ar
    18    12    13    1
    19    13    14    1
    20    14    15    1
    21    15    16    1
    22    16    17    1
    23    17    18    1
    24    18    19    1
    25    13     3    1
    26    19    14    1
    27    12     6   ar
    28    26    27    1
    29    21    22    1
@<TRIPOS>MOLECULE
*****
 27 29 0 0 0
SMALL
GASTEIGER

@<TRIPOS>ATOM
      1 C          -5.7958  -16.5285   23.4740 C.2     1  UNL1        0.2420
      2 O          -4.9180  -17.5448   22.8056 O.2     1  UNL1       -0.2734
      3 N          -7.2832  -16.5835   23.2873 N.am    1  UNL1       -0.2760
      4 C          -8.1610  -15.5673   23.9557 C.3     1  UNL1        0.0983
      5 C          -9.6483  -15.6223   23.7691 C.3     1  UNL1        0.0476
      6 C         -10.2579  -16.6935   22.9141 C.ar    1  UNL1       -0.0227
      7 C         -11.7452  -16.7484   22.7275 C.ar    1  UNL1       -0.0022
      8 C         -12.3547  -17.8196   21.8725 C.ar    1  UNL1        0.0293
      9 C         -11.4769  -18.8358   21.2041 C.ar    1  UNL1        0.1399
     10 F         -12.0865  -19.9070   20.3490 F       1  UNL1       -0.2042
     11 C          -9.9896  -18.7808   21.3907 C.ar    1  UNL1        0.0267
     12 C          -9.3801  -17.7097   22.2457 C.ar    1  UNL1       -0.0059
     13 C          -7.8927  -17.6547   22.4323 C.3     1  UNL1        0.0976
     14 C          -7.0149  -18.6709   21.7639 C.3     1  UNL1        0.0224
     15 C          -6.8043  -20.0136   22.3987 C.3     1  UNL1        0.0020
     16 C          -5.9265  -21.0298   21.7303 C.3     1  UNL1        0.0001
     17 C          -5.2593  -20.7033   20.4271 C.3     1  UNL1        0.0000
     18 C          -5.4699  -19.3607   19.7924 C.3     1  UNL1        0.0001
     19 C          -6.3477  -18.3445   20.4608 C.3     1  UNL1        0.0020
     20 C          -5.1863  -15.4574   24.3290 C.3     1  UNL1        0.1552
     21 N          -5.9852  -14.8366   25.4364 N.3     1  UNL1       -0.2878
     22 H          -5.4983  -13.9824   25.7076 H       1  UNL1        0.1238
     23 C          -6.2438  -15.6066   26.6975 C.3     1  UNL1        0.0985
     24 C          -8.4399  -16.8478   27.3191 C.3     1  UNL1        0.0332
     25 C          -7.6109  -15.5977   27.3147 C.3     1  UNL1        0.1263
     26 O          -8.1489  -14.3388   27.9276 O.3     1  UNL1       -0.3830
     27 H          -7.4918  -13.6305   27.8408 H       1  UNL1        0.2104
@<TRIPOS>BOND
     1    25    24    1
     2    25    26    1
     3    25    23    1
     4    23    21    1
     5    21    20    1
     6    20     1    1
     7     1     2    2
     8     1     3   am
     9     3     4    1
    10     4     5    1
    11     5     6    1
    12     6     7   ar
    13     7     8   ar
    14     8     9   ar
    15     9    10    1
    16     9    11   ar
    17    11    12   ar
    18    12    13    1
    19    13    14    1
    20    14    15    1
    21    15    16    1
    22    16    17    1
    23    17    18    1
    24    18    19    1
    25    13     3    1
    26    19    14    1
    27    12     6   ar
    28    26    27    1
    29    21    22    1
