@<TRIPOS>MOLECULE
*****
 29 32 0 0 0
SMALL
GASTEIGER

@<TRIPOS>ATOM
      1 C          -6.6352  -16.5232   23.9447 C.3     1  UNL1        0.0843
      2 C          -7.7388  -15.9551   24.7869 C.3     1  UNL1        0.0228
      3 C          -9.1703  -16.2091   24.4181 C.3     1  UNL1        0.0287
      4 C          -9.4983  -17.0311   23.2070 C.ar    1  UNL1       -0.0123
      5 C          -8.3947  -17.5992   22.3647 C.ar    1  UNL1       -0.0075
      6 C          -9.0198  -18.3655   21.2369 C.ar    1  UNL1        0.0595
      7 C          -8.4248  -19.1371   20.0965 C.ar    1  UNL1        0.0172
      8 C          -9.3198  -19.8143   19.1013 C.ar    1  UNL1        0.0030
      9 C         -10.8097  -19.7198   19.2465 C.ar    1  UNL1        0.0190
     10 C         -11.4047  -18.9482   20.3869 C.ar    1  UNL1        0.0798
     11 N         -10.5098  -18.2711   21.3821 N.ar    1  UNL1       -0.3089
     12 C         -10.8055  -17.4464   22.5996 C.ar    1  UNL1        0.0427
     13 C          -6.9632  -17.3452   22.7336 C.3     1  UNL1        0.0452
     14 C          -4.8721  -15.5898   25.6091 C.3     1  UNL1        0.1149
     15 N          -5.2035  -16.2693   24.3136 N.3     1  UNL1       -0.1551
     16 S          -4.1034  -16.6948   23.3869 S.O2    1  UNL1        0.0633
     17 O          -4.1421  -15.3501   22.7234 O.2     1  UNL1       -0.1528
     18 O          -4.0648  -18.0396   24.0504 O.2     1  UNL1       -0.1528
     19 C          -3.0034  -17.1204   22.4603 C.ar    1  UNL1        0.1223
     20 C          -2.1540  -16.0879   21.7803 C.ar    1  UNL1        0.0222
     21 C          -1.0539  -16.5136   20.8537 C.ar    1  UNL1        0.0310
     22 C          -0.8032  -17.9718   20.6070 C.ar    1  UNL1        0.1402
     23 F           0.2968  -18.3975   19.6804 F       1  UNL1       -0.2042
     24 C          -1.6527  -19.0044   21.2870 C.ar    1  UNL1        0.0310
     25 C          -2.7528  -18.5787   22.2136 C.ar    1  UNL1        0.0222
     26 C         -12.1690  -17.0981   23.1187 C.3     1  UNL1        0.0854
     27 C         -12.9066  -18.0646   23.9972 C.2     1  UNL1        0.0562
     28 O         -12.1457  -18.9754   24.9146 O.co2   1  UNL1       -0.5488
     29 O         -14.4051  -18.1205   23.9582 O.co2   1  UNL1       -0.5488
@<TRIPOS>UNITY_ATOM_ATTR
28 1
charge -1
@<TRIPOS>BOND
     1    14    15    1
     2     1    15    1
     3     1     2    1
     4     2     3    1
     5     3     4    1
     6     4     5   ar
     7     5     6   ar
     8     6     7   ar
     9     7     8   ar
    10     8     9   ar
    11     9    10   ar
    12    10    11   ar
    13    11    12   ar
    14    12    26    1
    15    26    27    1
    16    27    28   ar
    17    27    29   ar
    18     5    13    1
    19    15    16    1
    20    16    17    2
    21    16    18    2
    22    16    19    1
    23    19    20   ar
    24    20    21   ar
    25    21    22   ar
    26    22    23    1
    27    22    24   ar
    28    24    25   ar
    29    13     1    1
    30    25    19   ar
    31    12     4   ar
    32    11     6   ar
@<TRIPOS>MOLECULE
*****
 29 32 0 0 0
SMALL
GASTEIGER

@<TRIPOS>ATOM
      1 C          -6.8538  -19.1696   21.0159 C.3     1  UNL1        0.0843
      2 C          -8.2045  -19.1382   20.3642 C.3     1  UNL1        0.0228
      3 C          -9.3156  -18.3401   20.9793 C.3     1  UNL1        0.0287
      4 C          -9.0760  -17.5733   22.2460 C.ar    1  UNL1       -0.0123
      5 C          -7.7254  -17.6047   22.8977 C.ar    1  UNL1       -0.0075
      6 C          -7.7865  -16.7551   24.1324 C.ar    1  UNL1        0.0595
      7 C          -6.7573  -16.4163   25.1697 C.ar    1  UNL1        0.0172
      8 C          -7.1165  -15.5210   26.3183 C.ar    1  UNL1        0.0030
      9 C          -8.5050  -14.9645   26.4297 C.ar    1  UNL1        0.0190
     10 C          -9.5343  -15.3033   25.3924 C.ar    1  UNL1        0.0798
     11 N          -9.1750  -16.1986   24.2438 N.ar    1  UNL1       -0.3089
     12 C          -9.9719  -16.7043   23.0780 C.ar    1  UNL1        0.0427
     13 C          -6.6143  -18.4029   22.2827 C.3     1  UNL1        0.0452
     14 C          -6.0090  -21.3514   19.8863 C.3     1  UNL1        0.1149
     15 N          -5.7426  -19.9679   20.4008 N.3     1  UNL1       -0.1551
     16 S          -4.3652  -19.3825   20.3004 S.O2    1  UNL1        0.0633
     17 O          -4.8448  -18.4361   19.2400 O.2     1  UNL1       -0.1528
     18 O          -3.8857  -20.3289   21.3608 O.2     1  UNL1       -0.1528
     19 C          -2.9879  -18.7971   20.2000 C.ar    1  UNL1        0.1223
     20 C          -2.1414  -18.6561   21.4302 C.ar    1  UNL1        0.0222
     21 C          -0.7639  -18.0708   21.3297 C.ar    1  UNL1        0.0310
     22 C          -0.2330  -17.6264   19.9991 C.ar    1  UNL1        0.1402
     23 F           1.1444  -17.0411   19.8986 F       1  UNL1       -0.2042
     24 C          -1.0796  -17.7674   18.7688 C.ar    1  UNL1        0.0310
     25 C          -2.4570  -18.3528   18.8693 C.ar    1  UNL1        0.0222
     26 C         -11.4120  -16.3952   22.7940 C.3     1  UNL1        0.0854
     27 C         -12.3963  -17.5116   22.6081 C.2     1  UNL1        0.0562
     28 O         -12.8167  -18.3442   23.7830 O.co2   1  UNL1       -0.5488
     29 O         -12.9602  -17.7957   21.2475 O.co2   1  UNL1       -0.5488
@<TRIPOS>UNITY_ATOM_ATTR
28 1
charge -1
@<TRIPOS>BOND
     1    14    15    1
     2     1    15    1
     3     1     2    1
     4     2     3    1
     5     3     4    1
     6     4     5   ar
     7     5     6   ar
     8     6     7   ar
     9     7     8   ar
    10     8     9   ar
    11     9    10   ar
    12    10    11   ar
    13    11    12   ar
    14    12    26    1
    15    26    27    1
    16    27    28   ar
    17    27    29   ar
    18     5    13    1
    19    15    16    1
    20    16    17    2
    21    16    18    2
    22    16    19    1
    23    19    20   ar
    24    20    21   ar
    25    21    22   ar
    26    22    23    1
    27    22    24   ar
    28    24    25   ar
    29    13     1    1
    30    25    19   ar
    31    12     4   ar
    32    11     6   ar
@<TRIPOS>MOLECULE
*****
 29 32 0 0 0
SMALL
GASTEIGER

@<TRIPOS>ATOM
      1 C           0.6133    2.2696   19.9975 C.3     1  UNL1        0.0843
      2 C           0.8317    1.7114   18.6225 C.3     1  UNL1        0.0228
      3 C           1.6851    0.4921   18.4350 C.3     1  UNL1        0.0287
      4 C           2.3200   -0.1689   19.6224 C.ar    1  UNL1       -0.0123
      5 C           2.1015    0.3894   20.9974 C.ar    1  UNL1       -0.0075
      6 C           2.8512   -0.4705   21.9714 C.ar    1  UNL1        0.0595
      7 C           3.0011   -0.4020   23.4623 C.ar    1  UNL1        0.0172
      8 C           3.8328   -1.4232   24.1801 C.ar    1  UNL1        0.0030
      9 C           4.5145   -2.5130   23.4070 C.ar    1  UNL1        0.0190
     10 C           4.3646   -2.5815   21.9161 C.ar    1  UNL1        0.0798
     11 N           3.5330   -1.5603   21.1983 N.ar    1  UNL1       -0.3089
     12 C           3.2046   -1.3738   19.7466 C.ar    1  UNL1        0.0427
     13 C           1.2482    1.6087   21.1849 C.3     1  UNL1        0.0452
     14 C          -0.0352    4.6896   19.3095 C.3     1  UNL1        0.1149
     15 N          -0.2401    3.4890   20.1850 N.3     1  UNL1       -0.1551
     16 S          -1.2982    3.5076   21.2481 S.O2    1  UNL1        0.0633
     17 O          -0.5221    4.5462   22.0024 O.2     1  UNL1       -0.1528
     18 O          -2.0743    2.4689   20.4938 O.2     1  UNL1       -0.1528
     19 C          -2.3562    3.5262   22.3111 C.ar    1  UNL1        0.1223
     20 C          -3.8045    3.4446   21.9293 C.ar    1  UNL1        0.0222
     21 C          -4.8626    3.4631   22.9923 C.ar    1  UNL1        0.0310
     22 C          -4.4725    3.5633   24.4373 C.ar    1  UNL1        0.1402
     23 F          -5.5305    3.5819   25.5003 F       1  UNL1       -0.2042
     24 C          -3.0241    3.6449   24.8191 C.ar    1  UNL1        0.0310
     25 C          -1.9660    3.6264   23.7560 C.ar    1  UNL1        0.0222
     26 C           3.6779   -2.2403   18.6173 C.3     1  UNL1        0.0854
     27 C           4.5453   -1.6605   17.5397 C.2     1  UNL1        0.0562
     28 O           3.9196   -1.0492   16.3211 O.co2   1  UNL1       -0.5488
     29 O           6.0383   -1.6919   17.6805 O.co2   1  UNL1       -0.5488
@<TRIPOS>UNITY_ATOM_ATTR
28 1
charge -1
@<TRIPOS>BOND
     1    14    15    1
     2     1    15    1
     3     1     2    1
     4     2     3    1
     5     3     4    1
     6     4     5   ar
     7     5     6   ar
     8     6     7   ar
     9     7     8   ar
    10     8     9   ar
    11     9    10   ar
    12    10    11   ar
    13    11    12   ar
    14    12    26    1
    15    26    27    1
    16    27    28   ar
    17    27    29   ar
    18     5    13    1
    19    15    16    1
    20    16    17    2
    21    16    18    2
    22    16    19    1
    23    19    20   ar
    24    20    21   ar
    25    21    22   ar
    26    22    23    1
    27    22    24   ar
    28    24    25   ar
    29    13     1    1
    30    25    19   ar
    31    12     4   ar
    32    11     6   ar
@<TRIPOS>MOLECULE
*****
 29 32 0 0 0
SMALL
GASTEIGER

@<TRIPOS>ATOM
      1 C          -7.0469  -19.9683   20.8672 C.3     1  UNL1        0.0843
      2 C          -7.1545  -20.3526   22.3131 C.3     1  UNL1        0.0228
      3 C          -8.2919  -19.8364   23.1437 C.3     1  UNL1        0.0287
      4 C          -9.3216  -18.9358   22.5283 C.ar    1  UNL1       -0.0123
      5 C          -9.2140  -18.5515   21.0824 C.ar    1  UNL1       -0.0075
      6 C         -10.3707  -17.6548   20.7538 C.ar    1  UNL1        0.0595
      7 C         -10.7813  -16.9710   19.4834 C.ar    1  UNL1        0.0172
      8 C         -12.0143  -16.1174   19.4558 C.ar    1  UNL1        0.0030
      9 C         -12.8368  -15.9475   20.6987 C.ar    1  UNL1        0.0190
     10 C         -12.4262  -16.6312   21.9690 C.ar    1  UNL1        0.0798
     11 N         -11.1932  -17.4849   21.9966 N.ar    1  UNL1       -0.3089
     12 C         -10.5448  -18.2766   23.0933 C.ar    1  UNL1        0.0427
     13 C          -8.0767  -19.0678   20.2518 C.3     1  UNL1        0.0452
     14 C          -6.0934  -21.7112   19.1930 C.3     1  UNL1        0.1149
     15 N          -5.9095  -20.4846   20.0365 N.3     1  UNL1       -0.1551
     16 S          -4.5885  -19.7742   20.0495 S.O2    1  UNL1        0.0633
     17 O          -5.2977  -18.4542   19.9824 O.2     1  UNL1       -0.1528
     18 O          -3.8793  -21.0944   20.1166 O.2     1  UNL1       -0.1528
     19 C          -3.2674  -19.0640   20.0625 C.ar    1  UNL1        0.1223
     20 C          -2.7505  -18.4187   18.8110 C.ar    1  UNL1        0.0222
     21 C          -1.4294  -17.7084   18.8240 C.ar    1  UNL1        0.0310
     22 C          -0.6252  -17.6434   20.0885 C.ar    1  UNL1        0.1402
     23 F           0.6959  -16.9331   20.1016 F       1  UNL1       -0.2042
     24 C          -1.1422  -18.2887   21.3401 C.ar    1  UNL1        0.0310
     25 C          -2.4633  -18.9990   21.3271 C.ar    1  UNL1        0.0222
     26 C         -11.0339  -18.3893   24.5069 C.3     1  UNL1        0.0854
     27 C         -10.1438  -18.9719   25.5643 C.2     1  UNL1        0.0562
     28 O         -10.0389  -20.4601   25.7200 O.co2   1  UNL1       -0.5488
     29 O          -9.3584  -18.0664   26.4661 O.co2   1  UNL1       -0.5488
@<TRIPOS>UNITY_ATOM_ATTR
28 1
charge -1
@<TRIPOS>BOND
     1    14    15    1
     2     1    15    1
     3     1     2    1
     4     2     3    1
     5     3     4    1
     6     4     5   ar
     7     5     6   ar
     8     6     7   ar
     9     7     8   ar
    10     8     9   ar
    11     9    10   ar
    12    10    11   ar
    13    11    12   ar
    14    12    26    1
    15    26    27    1
    16    27    28   ar
    17    27    29   ar
    18     5    13    1
    19    15    16    1
    20    16    17    2
    21    16    18    2
    22    16    19    1
    23    19    20   ar
    24    20    21   ar
    25    21    22   ar
    26    22    23    1
    27    22    24   ar
    28    24    25   ar
    29    13     1    1
    30    25    19   ar
    31    12     4   ar
    32    11     6   ar
@<TRIPOS>MOLECULE
*****
 29 32 0 0 0
SMALL
GASTEIGER

@<TRIPOS>ATOM
      1 C          -7.2833  -16.1148   24.2014 C.3     1  UNL1        0.0843
      2 C          -8.1546  -16.7519   25.2429 C.3     1  UNL1        0.0228
      3 C          -9.5937  -17.0462   24.9391 C.3     1  UNL1        0.0287
      4 C         -10.1615  -16.7034   23.5937 C.ar    1  UNL1       -0.0123
      5 C          -9.2901  -16.0663   22.5521 C.ar    1  UNL1       -0.0075
      6 C         -10.1228  -15.8428   21.3246 C.ar    1  UNL1        0.0595
      7 C          -9.7981  -15.2494   19.9858 C.ar    1  UNL1        0.0172
      8 C         -10.8593  -15.1549   18.9300 C.ar    1  UNL1        0.0030
      9 C         -12.2453  -15.6539   19.2130 C.ar    1  UNL1        0.0190
     10 C         -12.5700  -16.2473   20.5517 C.ar    1  UNL1        0.0798
     11 N         -11.5088  -16.3418   21.6076 N.ar    1  UNL1       -0.3089
     12 C         -11.5327  -16.8737   23.0099 C.ar    1  UNL1        0.0427
     13 C          -7.8510  -15.7720   22.8560 C.3     1  UNL1        0.0452
     14 C          -5.4854  -14.9819   25.6961 C.3     1  UNL1        0.1149
     15 N          -5.8441  -15.8205   24.5052 N.3     1  UNL1       -0.1551
     16 S          -4.7638  -16.3646   23.6182 S.O2    1  UNL1        0.0633
     17 O          -4.5357  -14.9934   23.0547 O.2     1  UNL1       -0.1528
     18 O          -4.9919  -17.7360   24.1818 O.2     1  UNL1       -0.1528
     19 C          -3.6835  -16.9089   22.7313 C.ar    1  UNL1        0.1223
     20 C          -2.7193  -15.9738   22.0634 C.ar    1  UNL1        0.0222
     21 C          -1.6391  -16.5182   21.1765 C.ar    1  UNL1        0.0310
     22 C          -1.5229  -17.9975   20.9572 C.ar    1  UNL1        0.1402
     23 F          -0.4427  -18.5419   20.0703 F       1  UNL1       -0.2042
     24 C          -2.4872  -18.9326   21.6251 C.ar    1  UNL1        0.0310
     25 C          -3.5675  -18.3883   22.5121 C.ar    1  UNL1        0.0222
     26 C         -12.7194  -17.4710   23.7062 C.3     1  UNL1        0.0854
     27 C         -12.5520  -18.6941   24.5581 C.2     1  UNL1        0.0562
     28 O         -13.4999  -18.9544   25.6912 O.co2   1  UNL1       -0.5488
     29 O         -11.4369  -19.6571   24.2769 O.co2   1  UNL1       -0.5488
@<TRIPOS>UNITY_ATOM_ATTR
28 1
charge -1
@<TRIPOS>BOND
     1    14    15    1
     2     1    15    1
     3     1     2    1
     4     2     3    1
     5     3     4    1
     6     4     5   ar
     7     5     6   ar
     8     6     7   ar
     9     7     8   ar
    10     8     9   ar
    11     9    10   ar
    12    10    11   ar
    13    11    12   ar
    14    12    26    1
    15    26    27    1
    16    27    28   ar
    17    27    29   ar
    18     5    13    1
    19    15    16    1
    20    16    17    2
    21    16    18    2
    22    16    19    1
    23    19    20   ar
    24    20    21   ar
    25    21    22   ar
    26    22    23    1
    27    22    24   ar
    28    24    25   ar
    29    13     1    1
    30    25    19   ar
    31    12     4   ar
    32    11     6   ar
@<TRIPOS>MOLECULE
*****
 29 32 0 0 0
SMALL
GASTEIGER

@<TRIPOS>ATOM
      1 C           0.5309    1.9512   19.8363 C.3     1  UNL1        0.0843
      2 C           0.1610    0.5769   20.3099 C.3     1  UNL1        0.0228
      3 C           1.1099   -0.5669   20.1070 C.3     1  UNL1        0.0287
      4 C           2.4287   -0.3364   19.4305 C.ar    1  UNL1       -0.0123
      5 C           2.7986    1.0380   18.9568 C.ar    1  UNL1       -0.0075
      6 C           4.1580    0.9612   18.3276 C.ar    1  UNL1        0.0595
      7 C           5.0284    2.0023   17.6884 C.ar    1  UNL1        0.0172
      8 C           6.3691    1.6216   17.1340 C.ar    1  UNL1        0.0030
      9 C           6.8395    0.1998   17.2187 C.ar    1  UNL1        0.0190
     10 C           5.9691   -0.8413   17.8578 C.ar    1  UNL1        0.0798
     11 N           4.6284   -0.4606   18.4123 N.ar    1  UNL1       -0.3089
     12 C           3.5596   -1.2625   19.0939 C.ar    1  UNL1        0.0427
     13 C           1.8496    2.1818   19.1598 C.3     1  UNL1        0.0452
     14 C          -0.6025    4.1175   18.9572 C.3     1  UNL1        0.1149
     15 N          -0.4181    3.0951   20.0392 N.3     1  UNL1       -0.1551
     16 S          -1.1826    3.2166   21.3240 S.O2    1  UNL1        0.0633
     17 O           0.0798    3.5972   22.0392 O.2     1  UNL1       -0.1528
     18 O          -2.4450    2.8359   20.6088 O.2     1  UNL1       -0.1528
     19 C          -1.9471    3.3380   22.6088 C.ar    1  UNL1        0.1223
     20 C          -3.4261    3.5860   22.5809 C.ar    1  UNL1        0.0222
     21 C          -4.1906    3.7074   23.8657 C.ar    1  UNL1        0.0310
     22 C          -3.4761    3.5808   25.1785 C.ar    1  UNL1        0.1402
     23 F          -4.2406    3.7022   26.4634 F       1  UNL1       -0.2042
     24 C          -1.9970    3.3327   25.2064 C.ar    1  UNL1        0.0310
     25 C          -1.2325    3.2113   23.9216 C.ar    1  UNL1        0.0222
     26 C           3.6125   -2.7326   19.3874 C.3     1  UNL1        0.0854
     27 C           4.4217   -3.2377   20.5450 C.2     1  UNL1        0.0562
     28 O           5.3667   -2.3166   21.2582 O.co2   1  UNL1       -0.5488
     29 O           4.2860   -4.6639   20.9895 O.co2   1  UNL1       -0.5488
@<TRIPOS>UNITY_ATOM_ATTR
28 1
charge -1
@<TRIPOS>BOND
     1    14    15    1
     2     1    15    1
     3     1     2    1
     4     2     3    1
     5     3     4    1
     6     4     5   ar
     7     5     6   ar
     8     6     7   ar
     9     7     8   ar
    10     8     9   ar
    11     9    10   ar
    12    10    11   ar
    13    11    12   ar
    14    12    26    1
    15    26    27    1
    16    27    28   ar
    17    27    29   ar
    18     5    13    1
    19    15    16    1
    20    16    17    2
    21    16    18    2
    22    16    19    1
    23    19    20   ar
    24    20    21   ar
    25    21    22   ar
    26    22    23    1
    27    22    24   ar
    28    24    25   ar
    29    13     1    1
    30    25    19   ar
    31    12     4   ar
    32    11     6   ar
@<TRIPOS>MOLECULE
*****
 29 32 0 0 0
SMALL
GASTEIGER

@<TRIPOS>ATOM
      1 C           2.3669    0.1655   19.2434 C.3     1  UNL1        0.0843
      2 C           1.5916    0.9724   18.2445 C.3     1  UNL1        0.0228
      3 C           0.5319    1.9259   18.7111 C.3     1  UNL1        0.0287
      4 C           0.2475    2.0725   20.1766 C.ar    1  UNL1       -0.0123
      5 C           1.0228    1.2656   21.1755 C.ar    1  UNL1       -0.0075
      6 C           0.5244    1.6203   22.5451 C.ar    1  UNL1        0.0595
      7 C           0.9171    1.1414   23.9113 C.ar    1  UNL1        0.0172
      8 C           0.2264    1.6888   25.1250 C.ar    1  UNL1        0.0030
      9 C          -0.8570    2.7149   24.9726 C.ar    1  UNL1        0.0190
     10 C          -1.2497    3.1938   23.6065 C.ar    1  UNL1        0.0798
     11 N          -0.5590    2.6464   22.3927 N.ar    1  UNL1       -0.3089
     12 C          -0.7301    2.9259   20.9289 C.ar    1  UNL1        0.0427
     13 C           2.0825    0.3121   20.7089 C.3     1  UNL1        0.0452
     14 C           3.7323   -0.9121   17.3134 C.3     1  UNL1        0.1149
     15 N           3.4267   -0.7881   18.7767 N.3     1  UNL1       -0.1551
     16 S           4.1808   -1.6176   19.7734 S.O2    1  UNL1        0.0633
     17 O           3.1362   -2.6893   19.6718 O.2     1  UNL1       -0.1528
     18 O           5.2253   -0.5458   19.8750 O.2     1  UNL1       -0.1528
     19 C           4.9348   -2.4470   20.7700 C.ar    1  UNL1        0.1223
     20 C           4.3704   -2.6679   22.1421 C.ar    1  UNL1        0.0222
     21 C           5.1246   -3.4973   23.1387 C.ar    1  UNL1        0.0310
     22 C           6.4432   -4.1059   22.7633 C.ar    1  UNL1        0.1402
     23 F           7.1973   -4.9354   23.7600 F       1  UNL1       -0.2042
     24 C           7.0076   -3.8850   21.3912 C.ar    1  UNL1        0.0310
     25 C           6.2534   -3.0556   20.3946 C.ar    1  UNL1        0.0222
     26 C          -1.7073    3.8896   20.3237 C.3     1  UNL1        0.0854
     27 C          -3.1258    3.4665   20.0813 C.2     1  UNL1        0.0562
     28 O          -3.7719    3.7340   18.7542 O.co2   1  UNL1       -0.5488
     29 O          -3.8983    2.7758   21.1658 O.co2   1  UNL1       -0.5488
@<TRIPOS>UNITY_ATOM_ATTR
28 1
charge -1
@<TRIPOS>BOND
     1    14    15    1
     2     1    15    1
     3     1     2    1
     4     2     3    1
     5     3     4    1
     6     4     5   ar
     7     5     6   ar
     8     6     7   ar
     9     7     8   ar
    10     8     9   ar
    11     9    10   ar
    12    10    11   ar
    13    11    12   ar
    14    12    26    1
    15    26    27    1
    16    27    28   ar
    17    27    29   ar
    18     5    13    1
    19    15    16    1
    20    16    17    2
    21    16    18    2
    22    16    19    1
    23    19    20   ar
    24    20    21   ar
    25    21    22   ar
    26    22    23    1
    27    22    24   ar
    28    24    25   ar
    29    13     1    1
    30    25    19   ar
    31    12     4   ar
    32    11     6   ar
@<TRIPOS>MOLECULE
*****
 29 32 0 0 0
SMALL
GASTEIGER

@<TRIPOS>ATOM
      1 C          -0.2695    2.5678   21.8079 C.3     1  UNL1        0.0843
      2 C           0.7275    2.1199   22.8352 C.3     1  UNL1        0.0228
      3 C           0.4171    2.2662   24.2954 C.3     1  UNL1        0.0287
      4 C          -0.8904    2.8604   24.7283 C.ar    1  UNL1       -0.0123
      5 C          -1.8874    3.3083   23.7010 C.ar    1  UNL1       -0.0075
      6 C          -3.0839    3.8534   24.4230 C.ar    1  UNL1        0.0595
      7 C          -4.3747    4.4365   23.9291 C.ar    1  UNL1        0.0172
      8 C          -5.4078    4.9085   24.9087 C.ar    1  UNL1        0.0030
      9 C          -5.1503    4.7974   26.3823 C.ar    1  UNL1        0.0190
     10 C          -3.8596    4.2144   26.8762 C.ar    1  UNL1        0.0798
     11 N          -2.8264    3.7423   25.8966 N.ar    1  UNL1       -0.3089
     12 C          -1.4707    3.1287   26.0852 C.ar    1  UNL1        0.0427
     13 C          -1.5770    3.1620   22.2408 C.3     1  UNL1        0.0452
     14 C          -0.5976    3.3412   19.3494 C.3     1  UNL1        0.1149
     15 N           0.0409    2.4215   20.3476 N.3     1  UNL1       -0.1551
     16 S           0.9898    1.3555   19.8857 S.O2    1  UNL1        0.0633
     17 O          -0.0062    0.3021   20.2705 O.2     1  UNL1       -0.1528
     18 O           1.9859    2.4091   19.5009 O.2     1  UNL1       -0.1528
     19 C           1.9388    0.2897   19.4238 C.ar    1  UNL1        0.1223
     20 C           2.6663    0.4463   18.1214 C.ar    1  UNL1        0.0222
     21 C           3.6152   -0.6196   17.6596 C.ar    1  UNL1        0.0310
     22 C           3.8367   -1.8421   18.5000 C.ar    1  UNL1        0.1402
     23 F           4.7856   -2.9081   18.0381 F       1  UNL1       -0.2042
     24 C           3.1091   -1.9987   19.8024 C.ar    1  UNL1        0.0310
     25 C           2.1602   -0.9328   20.2643 C.ar    1  UNL1        0.0222
     26 C          -0.8112    2.8348   27.4000 C.3     1  UNL1        0.0854
     27 C          -0.5696    1.4144   27.8171 C.2     1  UNL1        0.0562
     28 O           0.7390    0.7524   27.5019 O.co2   1  UNL1       -0.5488
     29 O          -1.6366    0.6559   28.5493 O.co2   1  UNL1       -0.5488
@<TRIPOS>UNITY_ATOM_ATTR
28 1
charge -1
@<TRIPOS>BOND
     1    14    15    1
     2     1    15    1
     3     1     2    1
     4     2     3    1
     5     3     4    1
     6     4     5   ar
     7     5     6   ar
     8     6     7   ar
     9     7     8   ar
    10     8     9   ar
    11     9    10   ar
    12    10    11   ar
    13    11    12   ar
    14    12    26    1
    15    26    27    1
    16    27    28   ar
    17    27    29   ar
    18     5    13    1
    19    15    16    1
    20    16    17    2
    21    16    18    2
    22    16    19    1
    23    19    20   ar
    24    20    21   ar
    25    21    22   ar
    26    22    23    1
    27    22    24   ar
    28    24    25   ar
    29    13     1    1
    30    25    19   ar
    31    12     4   ar
    32    11     6   ar
@<TRIPOS>MOLECULE
*****
 29 32 0 0 0
SMALL
GASTEIGER

@<TRIPOS>ATOM
      1 C           1.2949    1.5601   20.4204 C.3     1  UNL1        0.0843
      2 C           0.5335    0.2676   20.4223 C.3     1  UNL1        0.0228
      3 C           1.2295   -1.0133   20.0692 C.3     1  UNL1        0.0287
      4 C           2.6869   -1.0018   19.7142 C.ar    1  UNL1       -0.0123
      5 C           3.4482    0.2906   19.7122 C.ar    1  UNL1       -0.0075
      6 C           4.8659   -0.0071   19.3228 C.ar    1  UNL1        0.0595
      7 C           6.0670    0.8755   19.1547 C.ar    1  UNL1        0.0172
      8 C           7.3830    0.2816   18.7479 C.ar    1  UNL1        0.0030
      9 C           7.4978   -1.1948   18.5091 C.ar    1  UNL1        0.0190
     10 C           6.2967   -2.0774   18.6772 C.ar    1  UNL1        0.0798
     11 N           4.9807   -1.4835   19.0840 N.ar    1  UNL1       -0.3089
     12 C           3.6340   -2.0983   19.3259 C.ar    1  UNL1        0.0427
     13 C           2.7522    1.5715   20.0653 C.3     1  UNL1        0.0452
     14 C           1.2457    3.8103   21.7181 C.3     1  UNL1        0.1149
     15 N           0.5989    2.8411   20.7735 N.3     1  UNL1       -0.1551
     16 S          -0.7439    3.1529   20.1819 S.O2    1  UNL1        0.0633
     17 O          -1.3988    2.8076   21.4865 O.2     1  UNL1       -0.1528
     18 O          -0.0889    3.4982   18.8774 O.2     1  UNL1       -0.1528
     19 C          -2.0865    3.4647   19.5904 C.ar    1  UNL1        0.1223
     20 C          -2.1830    4.0195   18.2001 C.ar    1  UNL1        0.0222
     21 C          -3.5257    4.3313   17.6086 C.ar    1  UNL1        0.0310
     22 C          -4.7719    4.0882   18.4072 C.ar    1  UNL1        0.1402
     23 F          -6.1147    4.4000   17.8157 F       1  UNL1       -0.2042
     24 C          -4.6754    3.5334   19.7976 C.ar    1  UNL1        0.0310
     25 C          -3.3327    3.2216   20.3891 C.ar    1  UNL1        0.0222
     26 C           3.2942   -3.5540   19.2014 C.3     1  UNL1        0.0854
     27 C           4.1537   -4.5848   19.8710 C.2     1  UNL1        0.0562
     28 O           4.3705   -4.5319   21.3543 O.co2   1  UNL1       -0.5488
     29 O           4.7966   -5.6686   19.0573 O.co2   1  UNL1       -0.5488
@<TRIPOS>UNITY_ATOM_ATTR
28 1
charge -1
@<TRIPOS>BOND
     1    14    15    1
     2     1    15    1
     3     1     2    1
     4     2     3    1
     5     3     4    1
     6     4     5   ar
     7     5     6   ar
     8     6     7   ar
     9     7     8   ar
    10     8     9   ar
    11     9    10   ar
    12    10    11   ar
    13    11    12   ar
    14    12    26    1
    15    26    27    1
    16    27    28   ar
    17    27    29   ar
    18     5    13    1
    19    15    16    1
    20    16    17    2
    21    16    18    2
    22    16    19    1
    23    19    20   ar
    24    20    21   ar
    25    21    22   ar
    26    22    23    1
    27    22    24   ar
    28    24    25   ar
    29    13     1    1
    30    25    19   ar
    31    12     4   ar
    32    11     6   ar
