@<TRIPOS>MOLECULE
*****
 32 35 0 0 0
SMALL
GASTEIGER

@<TRIPOS>ATOM
      1 O          -1.0668    3.5721   19.7999 O.2     1  UNL1       -0.2699
      2 C          -0.2628    2.8017   20.8050 C.2     1  UNL1        0.2492
      3 N          -0.6425    2.8376   22.2556 N.am    1  UNL1       -0.2761
      4 C           0.1615    2.0672   23.2607 C.3     1  UNL1        0.0938
      5 C          -0.2183    2.1031   24.7113 C.3     1  UNL1        0.0230
      6 C          -1.4021    2.9094   25.1570 C.3     1  UNL1        0.0194
      7 C          -2.2061    3.6798   24.1520 C.3     1  UNL1        0.0230
      8 C          -1.8263    3.6439   22.7012 C.3     1  UNL1        0.0938
      9 C           0.9210    1.9954   20.3593 C.2     1  UNL1        0.0579
     10 C           0.7202    0.6298   19.7721 C.2     1  UNL1        0.0047
     11 C           1.9040   -0.1765   19.3265 C.ar    1  UNL1        0.0010
     12 C           2.6181    0.1788   18.0561 C.ar    1  UNL1        0.0009
     13 C           3.8018   -0.6275   17.6105 C.ar    1  UNL1        0.0122
     14 C           4.2714   -1.7891   18.4352 C.ar    1  UNL1        0.0682
     15 CL          5.4552   -2.5955   17.9895 Cl      1  UNL1       -0.0814
     16 C           3.5573   -2.1445   19.7055 C.ar    1  UNL1        0.0682
     17 CL          4.0270   -3.3061   20.5302 Cl      1  UNL1       -0.0814
     18 C           2.3736   -1.3382   20.1511 C.ar    1  UNL1        0.0122
     19 C          -1.7818    2.9453   26.6077 C.3     1  UNL1        0.0722
     20 N          -0.8454    2.3944   27.6419 N.3     1  UNL1       -0.2727
     21 C           0.2200    3.2703   28.2315 C.3     1  UNL1        0.0724
     22 C           1.1564    2.7194   29.2658 C.3     1  UNL1        0.0217
     23 C           1.0274    1.2927   29.7105 C.3     1  UNL1        0.0251
     24 C          -0.0381    0.4168   29.1209 C.3     1  UNL1        0.0217
     25 C          -0.9745    0.9677   28.0866 C.3     1  UNL1        0.0724
     26 C           1.9638    0.7418   30.7447 C.ar    1  UNL1       -0.0224
     27 C           2.6920   -0.5442   30.4882 C.ar    1  UNL1       -0.0034
     28 C           3.6284   -1.0950   31.5225 C.ar    1  UNL1        0.0111
     29 C           3.8366   -0.3599   32.8133 C.ar    1  UNL1        0.0577
     30 CL          4.7730   -0.9108   33.8475 Cl      1  UNL1       -0.0822
     31 C           3.1083    0.9261   33.0698 C.ar    1  UNL1        0.0111
     32 C           2.1719    1.4769   32.0355 C.ar    1  UNL1       -0.0034
@<TRIPOS>BOND
     1     1     2    2
     2     2     9    1
     3     9    10    2
     4    10    11    1
     5    11    12   ar
     6    12    13   ar
     7    13    14   ar
     8    14    15    1
     9    14    16   ar
    10    16    17    1
    11    16    18   ar
    12     2     3   am
    13     3     4    1
    14     4     5    1
    15     5     6    1
    16     6    19    1
    17    19    20    1
    18    20    21    1
    19    21    22    1
    20    22    23    1
    21    23    26    1
    22    26    27   ar
    23    27    28   ar
    24    28    29   ar
    25    29    30    1
    26    29    31   ar
    27    31    32   ar
    28    23    24    1
    29    24    25    1
    30     6     7    1
    31     7     8    1
    32    18    11   ar
    33     8     3    1
    34    25    20    1
    35    32    26   ar
@<TRIPOS>MOLECULE
*****
 32 35 0 0 0
SMALL
GASTEIGER

@<TRIPOS>ATOM
      1 O           8.6058   -5.1959   21.2918 O.2     1  UNL1       -0.2699
      2 C           7.6230   -4.6243   22.2702 C.2     1  UNL1        0.2492
      3 N           7.6477   -5.0666   23.7033 N.am    1  UNL1       -0.2761
      4 C           6.6649   -4.4950   24.6817 C.3     1  UNL1        0.0938
      5 C           6.6897   -4.9373   26.1148 C.3     1  UNL1        0.0230
      6 C           7.6973   -5.9513   26.5695 C.3     1  UNL1        0.0194
      7 C           8.6801   -6.5229   25.5910 C.3     1  UNL1        0.0230
      8 C           8.6553   -6.0805   24.1579 C.3     1  UNL1        0.0938
      9 C           6.6154   -3.6103   21.8156 C.2     1  UNL1        0.0579
     10 C           5.9420   -3.7668   20.4844 C.2     1  UNL1        0.0047
     11 C           4.9344   -2.7528   20.0297 C.ar    1  UNL1        0.0010
     12 C           3.9514   -2.1814   21.0080 C.ar    1  UNL1        0.0009
     13 C           2.9439   -1.1675   20.5533 C.ar    1  UNL1        0.0122
     14 C           2.9194   -0.7249   19.1203 C.ar    1  UNL1        0.0682
     15 CL          1.9118    0.2891   18.6656 Cl      1  UNL1       -0.0814
     16 C           3.9024   -1.2963   18.1420 C.ar    1  UNL1        0.0682
     17 CL          3.8779   -0.8537   16.7090 Cl      1  UNL1       -0.0814
     18 C           4.9099   -2.3102   18.5967 C.ar    1  UNL1        0.0122
     19 C           7.7220   -6.3936   28.0025 C.3     1  UNL1        0.0722
     20 N           7.3347   -5.4357   29.0899 N.3     1  UNL1       -0.2727
     21 C           7.0096   -4.0106   28.7533 C.3     1  UNL1        0.0724
     22 C           6.6222   -3.0528   29.8407 C.3     1  UNL1        0.0217
     23 C           6.5600   -3.5200   31.2647 C.3     1  UNL1        0.0251
     24 C           6.8851   -4.9451   31.6013 C.3     1  UNL1        0.0217
     25 C           7.2724   -5.9030   30.5139 C.3     1  UNL1        0.0724
     26 C           6.1726   -2.5621   32.3521 C.ar    1  UNL1       -0.0224
     27 C           7.1773   -1.5820   32.8811 C.ar    1  UNL1       -0.0034
     28 C           6.7900   -0.6241   33.9685 C.ar    1  UNL1        0.0111
     29 C           5.3980   -0.6463   34.5268 C.ar    1  UNL1        0.0577
     30 CL          5.0106    0.3116   35.6142 Cl      1  UNL1       -0.0822
     31 C           4.3933   -1.6264   33.9978 C.ar    1  UNL1        0.0111
     32 C           4.7806   -2.5843   32.9104 C.ar    1  UNL1       -0.0034
@<TRIPOS>BOND
     1     1     2    2
     2     2     9    1
     3     9    10    2
     4    10    11    1
     5    11    12   ar
     6    12    13   ar
     7    13    14   ar
     8    14    15    1
     9    14    16   ar
    10    16    17    1
    11    16    18   ar
    12     2     3   am
    13     3     4    1
    14     4     5    1
    15     5     6    1
    16     6    19    1
    17    19    20    1
    18    20    21    1
    19    21    22    1
    20    22    23    1
    21    23    26    1
    22    26    27   ar
    23    27    28   ar
    24    28    29   ar
    25    29    30    1
    26    29    31   ar
    27    31    32   ar
    28    23    24    1
    29    24    25    1
    30     6     7    1
    31     7     8    1
    32    18    11   ar
    33     8     3    1
    34    25    20    1
    35    32    26   ar
@<TRIPOS>MOLECULE
*****
 32 35 0 0 0
SMALL
GASTEIGER

@<TRIPOS>ATOM
      1 O           7.3174   -6.2539   29.9237 O.2     1  UNL1       -0.2699
      2 C           7.0242   -4.9286   29.2852 C.2     1  UNL1        0.2492
      3 N           7.1276   -4.7739   27.7968 N.am    1  UNL1       -0.2761
      4 C           6.8343   -3.4487   27.1583 C.3     1  UNL1        0.0938
      5 C           6.9378   -3.2940   25.6700 C.3     1  UNL1        0.0230
      6 C           7.3345   -4.4646   24.8200 C.3     1  UNL1        0.0194
      7 C           7.6278   -5.7898   25.4585 C.3     1  UNL1        0.0230
      8 C           7.5243   -5.9445   26.9469 C.3     1  UNL1        0.0938
      9 C           6.6275   -3.7580   30.1352 C.2     1  UNL1        0.0579
     10 C           6.5966   -3.8919   31.6288 C.2     1  UNL1        0.0047
     11 C           6.1999   -2.7213   32.4788 C.ar    1  UNL1        0.0010
     12 C           4.8107   -2.6373   33.0383 C.ar    1  UNL1        0.0009
     13 C           4.4141   -1.4668   33.8883 C.ar    1  UNL1        0.0122
     14 C           5.4066   -0.3802   34.1787 C.ar    1  UNL1        0.0682
     15 CL          5.0099    0.7904   35.0286 Cl      1  UNL1       -0.0814
     16 C           6.7958   -0.4642   33.6191 C.ar    1  UNL1        0.0682
     17 CL          7.7883    0.6223   33.9095 Cl      1  UNL1       -0.0814
     18 C           7.1924   -1.6348   32.7692 C.ar    1  UNL1        0.0122
     19 C           7.4379   -4.3099   23.3316 C.3     1  UNL1        0.0722
     20 N           6.4570   -3.4444   22.5975 N.3     1  UNL1       -0.2727
     21 C           4.9844   -3.6301   22.8138 C.3     1  UNL1        0.0724
     22 C           4.0035   -2.7647   22.0798 C.3     1  UNL1        0.0217
     23 C           4.4952   -1.7136   21.1294 C.3     1  UNL1        0.0251
     24 C           5.9679   -1.5279   20.9131 C.3     1  UNL1        0.0217
     25 C           6.9488   -2.3933   21.6471 C.3     1  UNL1        0.0724
     26 C           3.5143   -0.8481   20.3953 C.ar    1  UNL1       -0.0224
     27 C           2.0478   -0.9609   20.6894 C.ar    1  UNL1       -0.0034
     28 C           1.0669   -0.0955   19.9554 C.ar    1  UNL1        0.0111
     29 C           1.5525    0.8827   18.9272 C.ar    1  UNL1        0.0577
     30 CL          0.5716    1.7482   18.1931 Cl      1  UNL1       -0.0822
     31 C           3.0191    0.9955   18.6331 C.ar    1  UNL1        0.0111
     32 C           3.9999    0.1301   19.3671 C.ar    1  UNL1       -0.0034
@<TRIPOS>BOND
     1     1     2    2
     2     2     9    1
     3     9    10    2
     4    10    11    1
     5    11    12   ar
     6    12    13   ar
     7    13    14   ar
     8    14    15    1
     9    14    16   ar
    10    16    17    1
    11    16    18   ar
    12     2     3   am
    13     3     4    1
    14     4     5    1
    15     5     6    1
    16     6    19    1
    17    19    20    1
    18    20    21    1
    19    21    22    1
    20    22    23    1
    21    23    26    1
    22    26    27   ar
    23    27    28   ar
    24    28    29   ar
    25    29    30    1
    26    29    31   ar
    27    31    32   ar
    28    23    24    1
    29    24    25    1
    30     6     7    1
    31     7     8    1
    32    18    11   ar
    33     8     3    1
    34    25    20    1
    35    32    26   ar
@<TRIPOS>MOLECULE
*****
 32 35 0 0 0
SMALL
GASTEIGER

@<TRIPOS>ATOM
      1 O           8.4582   -5.6947   24.6456 O.2     1  UNL1       -0.2699
      2 C           7.5655   -4.7612   25.4084 C.2     1  UNL1        0.2492
      3 N           7.6952   -4.6497   26.8986 N.am    1  UNL1       -0.2761
      4 C           6.8026   -3.7163   27.6614 C.3     1  UNL1        0.0938
      5 C           6.9323   -3.6048   29.1516 C.3     1  UNL1        0.0230
      6 C           7.9546   -4.4269   29.8790 C.3     1  UNL1        0.0194
      7 C           8.8472   -5.3603   29.1162 C.3     1  UNL1        0.0230
      8 C           8.7175   -5.4718   27.6260 C.3     1  UNL1        0.0938
      9 C           6.5432   -3.9391   24.6809 C.2     1  UNL1        0.0579
     10 C           6.2999   -4.1673   23.2185 C.2     1  UNL1        0.0047
     11 C           5.2775   -3.3453   22.4910 C.ar    1  UNL1        0.0010
     12 C           4.5170   -2.2775   23.2200 C.ar    1  UNL1        0.0009
     13 C           3.4947   -1.4556   22.4925 C.ar    1  UNL1        0.0122
     14 C           3.2330   -1.7013   21.0361 C.ar    1  UNL1        0.0682
     15 CL          2.2106   -0.8793   20.3086 Cl      1  UNL1       -0.0814
     16 C           3.9935   -2.7691   20.3072 C.ar    1  UNL1        0.0682
     17 CL          3.7318   -3.0149   18.8508 Cl      1  UNL1       -0.0814
     18 C           5.0158   -3.5911   21.0346 C.ar    1  UNL1        0.0122
     19 C           8.0843   -4.3154   31.3692 C.3     1  UNL1        0.0722
     20 N           7.2837   -3.2909   32.1172 N.3     1  UNL1       -0.2727
     21 C           7.9082   -1.9804   32.4947 C.3     1  UNL1        0.0724
     22 C           7.1076   -0.9560   33.2427 C.3     1  UNL1        0.0217
     23 C           5.6825   -1.2420   33.6132 C.3     1  UNL1        0.0251
     24 C           5.0580   -2.5525   33.2357 C.3     1  UNL1        0.0217
     25 C           5.8586   -3.5770   32.4877 C.3     1  UNL1        0.0724
     26 C           4.8819   -0.2175   34.3612 C.ar    1  UNL1       -0.0224
     27 C           4.0079    0.7444   33.6123 C.ar    1  UNL1       -0.0034
     28 C           3.2073    1.7689   34.3603 C.ar    1  UNL1        0.0111
     29 C           3.2807    1.8314   35.8572 C.ar    1  UNL1        0.0577
     30 CL          2.4801    2.8559   36.6051 Cl      1  UNL1       -0.0822
     31 C           4.1546    0.8695   36.6060 C.ar    1  UNL1        0.0111
     32 C           4.9552   -0.1550   35.8580 C.ar    1  UNL1       -0.0034
@<TRIPOS>BOND
     1     1     2    2
     2     2     9    1
     3     9    10    2
     4    10    11    1
     5    11    12   ar
     6    12    13   ar
     7    13    14   ar
     8    14    15    1
     9    14    16   ar
    10    16    17    1
    11    16    18   ar
    12     2     3   am
    13     3     4    1
    14     4     5    1
    15     5     6    1
    16     6    19    1
    17    19    20    1
    18    20    21    1
    19    21    22    1
    20    22    23    1
    21    23    26    1
    22    26    27   ar
    23    27    28   ar
    24    28    29   ar
    25    29    30    1
    26    29    31   ar
    27    31    32   ar
    28    23    24    1
    29    24    25    1
    30     6     7    1
    31     7     8    1
    32    18    11   ar
    33     8     3    1
    34    25    20    1
    35    32    26   ar
@<TRIPOS>MOLECULE
*****
 32 35 0 0 0
SMALL
GASTEIGER

@<TRIPOS>ATOM
      1 O           9.4246   -4.5852   23.3210 O.2     1  UNL1       -0.2699
      2 C           8.0691   -4.1427   23.7865 C.2     1  UNL1        0.2492
      3 N           6.9675   -3.9279   22.7914 N.am    1  UNL1       -0.2761
      4 C           5.6119   -3.4854   23.2569 C.3     1  UNL1        0.0938
      5 C           4.5103   -3.2707   22.2618 C.3     1  UNL1        0.0230
      6 C           4.7642   -3.4985   20.8010 C.3     1  UNL1        0.0194
      7 C           6.1198   -3.9410   20.3355 C.3     1  UNL1        0.0230
      8 C           7.2214   -4.1557   21.3307 C.3     1  UNL1        0.0938
      9 C           7.8152   -3.9149   25.2473 C.2     1  UNL1        0.0579
     10 C           7.5073   -5.0764   26.1450 C.2     1  UNL1        0.0047
     11 C           7.2534   -4.8487   27.6058 C.ar    1  UNL1        0.0010
     12 C           7.3982   -5.9818   28.5778 C.ar    1  UNL1        0.0009
     13 C           7.1443   -5.7540   30.0385 C.ar    1  UNL1        0.0122
     14 C           6.7456   -4.3931   30.5271 C.ar    1  UNL1        0.0682
     15 CL          6.4916   -4.1653   31.9879 Cl      1  UNL1       -0.0814
     16 C           6.6007   -3.2599   29.5551 C.ar    1  UNL1        0.0682
     17 CL          6.2020   -1.8989   30.0437 Cl      1  UNL1       -0.0814
     18 C           6.8546   -3.4877   28.0944 C.ar    1  UNL1        0.0122
     19 C           3.6626   -3.2837   19.8059 C.3     1  UNL1        0.0722
     20 N           3.2202   -1.8915   19.4656 N.3     1  UNL1       -0.2727
     21 C           3.9485   -1.1093   18.4131 C.3     1  UNL1        0.0724
     22 C           3.5061    0.2830   18.0728 C.3     1  UNL1        0.0217
     23 C           2.3354    0.8931   18.7849 C.3     1  UNL1        0.0251
     24 C           1.6071    0.1109   19.8374 C.3     1  UNL1        0.0217
     25 C           2.0496   -1.2814   20.1778 C.3     1  UNL1        0.0724
     26 C           1.8930    2.2854   18.4446 C.ar    1  UNL1       -0.0224
     27 C           2.9108    3.3713   18.2582 C.ar    1  UNL1       -0.0034
     28 C           2.4684    4.7635   17.9179 C.ar    1  UNL1        0.0111
     29 C           1.0082    5.0699   17.7639 C.ar    1  UNL1        0.0577
     30 CL          0.5658    6.4622   17.4236 Cl      1  UNL1       -0.0822
     31 C          -0.0097    3.9840   17.9504 C.ar    1  UNL1        0.0111
     32 C           0.4327    2.5918   18.2907 C.ar    1  UNL1       -0.0034
@<TRIPOS>BOND
     1     1     2    2
     2     2     9    1
     3     9    10    2
     4    10    11    1
     5    11    12   ar
     6    12    13   ar
     7    13    14   ar
     8    14    15    1
     9    14    16   ar
    10    16    17    1
    11    16    18   ar
    12     2     3   am
    13     3     4    1
    14     4     5    1
    15     5     6    1
    16     6    19    1
    17    19    20    1
    18    20    21    1
    19    21    22    1
    20    22    23    1
    21    23    26    1
    22    26    27   ar
    23    27    28   ar
    24    28    29   ar
    25    29    30    1
    26    29    31   ar
    27    31    32   ar
    28    23    24    1
    29    24    25    1
    30     6     7    1
    31     7     8    1
    32    18    11   ar
    33     8     3    1
    34    25    20    1
    35    32    26   ar
@<TRIPOS>MOLECULE
*****
 32 35 0 0 0
SMALL
GASTEIGER

@<TRIPOS>ATOM
      1 O           6.6747   -6.1533   31.7508 O.2     1  UNL1       -0.2699
      2 C           6.8746   -4.7483   31.2648 C.2     1  UNL1        0.2492
      3 N           7.0623   -4.4807   29.8009 N.am    1  UNL1       -0.2761
      4 C           7.2622   -3.0758   29.3149 C.3     1  UNL1        0.0938
      5 C           7.4499   -2.8081   27.8510 C.3     1  UNL1        0.0230
      6 C           7.4375   -3.9454   26.8729 C.3     1  UNL1        0.0194
      7 C           7.2376   -5.3504   27.3589 C.3     1  UNL1        0.0230
      8 C           7.0499   -5.6180   28.8229 C.3     1  UNL1        0.0938
      9 C           6.8870   -3.6110   32.2428 C.2     1  UNL1        0.0579
     10 C           5.6606   -2.7673   32.4274 C.2     1  UNL1        0.0047
     11 C           5.6729   -1.6300   33.4054 C.ar    1  UNL1        0.0010
     12 C           4.5408   -1.4622   34.3750 C.ar    1  UNL1        0.0009
     13 C           4.5532   -0.3250   35.3529 C.ar    1  UNL1        0.0122
     14 C           5.6977    0.6446   35.3613 C.ar    1  UNL1        0.0682
     15 CL          5.7100    1.7819   36.3393 Cl      1  UNL1       -0.0814
     16 C           6.8299    0.4768   34.3918 C.ar    1  UNL1        0.0682
     17 CL          7.9744    1.4463   34.4002 Cl      1  UNL1       -0.0814
     18 C           6.8175   -0.6604   33.4139 C.ar    1  UNL1        0.0122
     19 C           7.6252   -3.6778   25.4090 C.3     1  UNL1        0.0722
     20 N           6.5375   -3.0066   24.6238 N.3     1  UNL1       -0.2727
     21 C           6.3040   -1.5326   24.7745 C.3     1  UNL1        0.0724
     22 C           5.2163   -0.8614   23.9894 C.3     1  UNL1        0.0217
     23 C           4.3622   -1.6642   23.0535 C.3     1  UNL1        0.0251
     24 C           4.5957   -3.1382   22.9028 C.3     1  UNL1        0.0217
     25 C           5.6834   -3.8094   23.6879 C.3     1  UNL1        0.0724
     26 C           3.2745   -0.9930   22.2683 C.ar    1  UNL1       -0.0224
     27 C           2.9656   -1.4494   20.8732 C.ar    1  UNL1       -0.0034
     28 C           1.8780   -0.7783   20.0881 C.ar    1  UNL1        0.0111
     29 C           1.0992    0.3493   20.6979 C.ar    1  UNL1        0.0577
     30 CL          0.0115    1.0205   19.9128 Cl      1  UNL1       -0.0822
     31 C           1.4081    0.8057   22.0930 C.ar    1  UNL1        0.0111
     32 C           2.4957    0.1345   22.8782 C.ar    1  UNL1       -0.0034
@<TRIPOS>BOND
     1     1     2    2
     2     2     9    1
     3     9    10    2
     4    10    11    1
     5    11    12   ar
     6    12    13   ar
     7    13    14   ar
     8    14    15    1
     9    14    16   ar
    10    16    17    1
    11    16    18   ar
    12     2     3   am
    13     3     4    1
    14     4     5    1
    15     5     6    1
    16     6    19    1
    17    19    20    1
    18    20    21    1
    19    21    22    1
    20    22    23    1
    21    23    26    1
    22    26    27   ar
    23    27    28   ar
    24    28    29   ar
    25    29    30    1
    26    29    31   ar
    27    31    32   ar
    28    23    24    1
    29    24    25    1
    30     6     7    1
    31     7     8    1
    32    18    11   ar
    33     8     3    1
    34    25    20    1
    35    32    26   ar
@<TRIPOS>MOLECULE
*****
 32 35 0 0 0
SMALL
GASTEIGER

@<TRIPOS>ATOM
      1 O          -4.5056    3.9639   27.2289 O.2     1  UNL1       -0.2699
      2 C          -3.8350    4.1032   25.8944 C.2     1  UNL1        0.2492
      3 N          -2.3886    3.7370   25.7401 N.am    1  UNL1       -0.2761
      4 C          -1.7180    3.8763   24.4056 C.3     1  UNL1        0.0938
      5 C          -0.2716    3.5102   24.2512 C.3     1  UNL1        0.0230
      6 C           0.5043    3.0048   25.4314 C.3     1  UNL1        0.0194
      7 C          -0.1664    2.8655   26.7659 C.3     1  UNL1        0.0230
      8 C          -1.6129    3.2317   26.9202 C.3     1  UNL1        0.0938
      9 C          -4.6108    4.6085   24.7142 C.2     1  UNL1        0.0579
     10 C          -4.9564    3.6780   23.5897 C.2     1  UNL1        0.0047
     11 C          -5.7322    4.1834   22.4095 C.ar    1  UNL1        0.0010
     12 C          -6.6892    5.3266   22.5748 C.ar    1  UNL1        0.0009
     13 C          -7.4650    5.8319   21.3947 C.ar    1  UNL1        0.0122
     14 C          -7.2838    5.1941   20.0492 C.ar    1  UNL1        0.0682
     15 CL         -8.0596    5.6995   18.8690 Cl      1  UNL1       -0.0814
     16 C          -6.3268    4.0509   19.8838 C.ar    1  UNL1        0.0682
     17 CL         -6.1456    3.4131   18.5384 Cl      1  UNL1       -0.0814
     18 C          -5.5510    3.5456   21.0640 C.ar    1  UNL1        0.0122
     19 C           1.9507    2.6387   25.2771 C.3     1  UNL1        0.0722
     20 N           2.3496    1.5369   24.3406 N.3     1  UNL1       -0.2727
     21 C           2.7315    0.1921   24.8842 C.3     1  UNL1        0.0724
     22 C           3.1305   -0.9097   23.9477 C.3     1  UNL1        0.0217
     23 C           3.1476   -0.6665   22.4677 C.3     1  UNL1        0.0251
     24 C           2.7658    0.6783   21.9241 C.3     1  UNL1        0.0217
     25 C           2.3668    1.7800   22.8606 C.3     1  UNL1        0.0724
     26 C           3.5466   -1.7683   21.5312 C.ar    1  UNL1       -0.0224
     27 C           3.1556   -1.7014   20.0846 C.ar    1  UNL1       -0.0034
     28 C           3.5546   -2.8032   19.1482 C.ar    1  UNL1        0.0111
     29 C           4.3446   -3.9718   19.6583 C.ar    1  UNL1        0.0577
     30 CL          4.7436   -5.0735   18.7218 Cl      1  UNL1       -0.0822
     31 C           4.7356   -4.0386   21.1048 C.ar    1  UNL1        0.0111
     32 C           4.3366   -2.9369   22.0413 C.ar    1  UNL1       -0.0034
@<TRIPOS>BOND
     1     1     2    2
     2     2     9    1
     3     9    10    2
     4    10    11    1
     5    11    12   ar
     6    12    13   ar
     7    13    14   ar
     8    14    15    1
     9    14    16   ar
    10    16    17    1
    11    16    18   ar
    12     2     3   am
    13     3     4    1
    14     4     5    1
    15     5     6    1
    16     6    19    1
    17    19    20    1
    18    20    21    1
    19    21    22    1
    20    22    23    1
    21    23    26    1
    22    26    27   ar
    23    27    28   ar
    24    28    29   ar
    25    29    30    1
    26    29    31   ar
    27    31    32   ar
    28    23    24    1
    29    24    25    1
    30     6     7    1
    31     7     8    1
    32    18    11   ar
    33     8     3    1
    34    25    20    1
    35    32    26   ar
@<TRIPOS>MOLECULE
*****
 32 35 0 0 0
SMALL
GASTEIGER

@<TRIPOS>ATOM
      1 O           6.8562   -6.1640   31.3785 O.2     1  UNL1       -0.2699
      2 C           6.9173   -4.9870   30.4505 C.2     1  UNL1        0.2492
      3 N           7.3590   -5.1745   29.0294 N.am    1  UNL1       -0.2761
      4 C           7.4201   -3.9976   28.1015 C.3     1  UNL1        0.0938
      5 C           7.8618   -4.1851   26.6804 C.3     1  UNL1        0.0230
      6 C           8.2426   -5.5496   26.1871 C.3     1  UNL1        0.0194
      7 C           8.1816   -6.7266   27.1150 C.3     1  UNL1        0.0230
      8 C           7.7398   -6.5390   28.5362 C.3     1  UNL1        0.0938
      9 C           6.5365   -3.6225   30.9438 C.2     1  UNL1        0.0579
     10 C           6.1192   -3.4307   32.3717 C.2     1  UNL1        0.0047
     11 C           5.7384   -2.0662   32.8650 C.ar    1  UNL1        0.0010
     12 C           4.2917   -1.6995   33.0148 C.ar    1  UNL1        0.0009
     13 C           3.9110   -0.3351   33.5080 C.ar    1  UNL1        0.0122
     14 C           4.9770    0.6627   33.8514 C.ar    1  UNL1        0.0682
     15 CL          4.5963    2.0272   34.3447 Cl      1  UNL1       -0.0814
     16 C           6.4238    0.2961   33.7016 C.ar    1  UNL1        0.0682
     17 CL          7.4898    1.2939   34.0450 Cl      1  UNL1       -0.0814
     18 C           6.8045   -1.0683   33.2084 C.ar    1  UNL1        0.0122
     19 C           8.6844   -5.7371   24.7660 C.3     1  UNL1        0.0722
     20 N           7.9491   -5.0481   23.6549 N.3     1  UNL1       -0.2727
     21 C           6.5418   -4.5744   23.8674 C.3     1  UNL1        0.0724
     22 C           5.8065   -3.8854   22.7563 C.3     1  UNL1        0.0217
     23 C           6.4785   -3.6700   21.4326 C.3     1  UNL1        0.0251
     24 C           7.8857   -4.1437   21.2201 C.3     1  UNL1        0.0217
     25 C           8.6210   -4.8327   22.3312 C.3     1  UNL1        0.0724
     26 C           5.7432   -2.9810   20.3215 C.ar    1  UNL1       -0.0224
     27 C           4.2711   -2.7207   20.4446 C.ar    1  UNL1       -0.0034
     28 C           3.5358   -2.0316   19.3335 C.ar    1  UNL1        0.0111
     29 C           4.2725   -1.6029   18.0993 C.ar    1  UNL1        0.0577
     30 CL          3.5372   -0.9139   16.9882 Cl      1  UNL1       -0.0822
     31 C           5.7446   -1.8633   17.9762 C.ar    1  UNL1        0.0111
     32 C           6.4799   -2.5523   19.0873 C.ar    1  UNL1       -0.0034
@<TRIPOS>BOND
     1     1     2    2
     2     2     9    1
     3     9    10    2
     4    10    11    1
     5    11    12   ar
     6    12    13   ar
     7    13    14   ar
     8    14    15    1
     9    14    16   ar
    10    16    17    1
    11    16    18   ar
    12     2     3   am
    13     3     4    1
    14     4     5    1
    15     5     6    1
    16     6    19    1
    17    19    20    1
    18    20    21    1
    19    21    22    1
    20    22    23    1
    21    23    26    1
    22    26    27   ar
    23    27    28   ar
    24    28    29   ar
    25    29    30    1
    26    29    31   ar
    27    31    32   ar
    28    23    24    1
    29    24    25    1
    30     6     7    1
    31     7     8    1
    32    18    11   ar
    33     8     3    1
    34    25    20    1
    35    32    26   ar
@<TRIPOS>MOLECULE
*****
 32 35 0 0 0
SMALL
GASTEIGER

@<TRIPOS>ATOM
      1 O           6.6186   -5.9578   30.3853 O.2     1  UNL1       -0.2699
      2 C           7.0953   -4.7578   29.6219 C.2     1  UNL1        0.2492
      3 N           7.0458   -3.3984   30.2541 N.am    1  UNL1       -0.2761
      4 C           7.5225   -2.1984   29.4907 C.3     1  UNL1        0.0938
      5 C           7.4730   -0.8391   30.1230 C.3     1  UNL1        0.0230
      6 C           6.9469   -0.6797   31.5187 C.3     1  UNL1        0.0194
      7 C           6.4703   -1.8798   32.2821 C.3     1  UNL1        0.0230
      8 C           6.5198   -3.2391   31.6498 C.3     1  UNL1        0.0938
      9 C           7.6214   -4.9171   28.2262 C.2     1  UNL1        0.0579
     10 C           6.6700   -5.1235   27.0851 C.2     1  UNL1        0.0047
     11 C           7.1961   -5.2829   25.6894 C.ar    1  UNL1        0.0010
     12 C           6.8170   -4.2937   24.6275 C.ar    1  UNL1        0.0009
     13 C           7.3431   -4.4531   23.2319 C.ar    1  UNL1        0.0122
     14 C           8.2483   -5.6017   22.8982 C.ar    1  UNL1        0.0682
     15 CL          8.7744   -5.7610   21.5025 Cl      1  UNL1       -0.0814
     16 C           8.6274   -6.5909   23.9601 C.ar    1  UNL1        0.0682
     17 CL          9.5327   -7.7394   23.6264 Cl      1  UNL1       -0.0814
     18 C           8.1013   -6.4315   25.3557 C.ar    1  UNL1        0.0122
     19 C           6.8975    0.6796   32.1509 C.3     1  UNL1        0.0722
     20 N           5.9882    0.9318   33.3169 N.3     1  UNL1       -0.2727
     21 C           6.5368    0.9167   34.7128 C.3     1  UNL1        0.0724
     22 C           5.6275    1.1689   35.8788 C.3     1  UNL1        0.0217
     23 C           4.1696    1.4363   35.6489 C.3     1  UNL1        0.0251
     24 C           3.6209    1.4514   34.2529 C.3     1  UNL1        0.0217
     25 C           4.5303    1.1992   33.0869 C.3     1  UNL1        0.0724
     26 C           3.2602    1.6885   36.8148 C.ar    1  UNL1       -0.0224
     27 C           2.5307    2.9942   36.9283 C.ar    1  UNL1       -0.0034
     28 C           1.6214    3.2465   38.0943 C.ar    1  UNL1        0.0111
     29 C           1.4416    2.1930   39.1468 C.ar    1  UNL1        0.0577
     30 CL          0.5323    2.4453   40.3128 Cl      1  UNL1       -0.0822
     31 C           2.1712    0.8873   39.0334 C.ar    1  UNL1        0.0111
     32 C           3.0805    0.6351   37.8674 C.ar    1  UNL1       -0.0034
@<TRIPOS>BOND
     1     1     2    2
     2     2     9    1
     3     9    10    2
     4    10    11    1
     5    11    12   ar
     6    12    13   ar
     7    13    14   ar
     8    14    15    1
     9    14    16   ar
    10    16    17    1
    11    16    18   ar
    12     2     3   am
    13     3     4    1
    14     4     5    1
    15     5     6    1
    16     6    19    1
    17    19    20    1
    18    20    21    1
    19    21    22    1
    20    22    23    1
    21    23    26    1
    22    26    27   ar
    23    27    28   ar
    24    28    29   ar
    25    29    30    1
    26    29    31   ar
    27    31    32   ar
    28    23    24    1
    29    24    25    1
    30     6     7    1
    31     7     8    1
    32    18    11   ar
    33     8     3    1
    34    25    20    1
    35    32    26   ar
