@<TRIPOS>MOLECULE
*****
 22 25 0 0 0
SMALL
GASTEIGER

@<TRIPOS>ATOM
      1 F         -12.7820  -18.3446   23.5777 F       1  UNL1       -0.2084
      2 C         -11.6016  -18.4933   22.6640 C.2     1  UNL1        0.1267
      3 C         -11.8019  -18.5164   21.1777 C.2     1  UNL1        0.0296
      4 C         -10.6215  -18.6652   20.2640 C.2     1  UNL1        0.0521
      5 C          -9.2409  -18.7907   20.8368 C.2     1  UNL1        0.2323
      6 N          -7.8966  -18.9485   20.1903 N.2     1  UNL1       -0.0308
      7 C          -6.8655  -19.0228   21.2772 C.2     1  UNL1        0.3752
      8 N          -7.5725  -18.9110   22.5954 N.2     1  UNL1       -0.0346
      9 C          -9.0407  -18.7676   22.3232 C.2     1  UNL1        0.2207
     10 C         -10.2210  -18.6189   23.2368 C.3     1  UNL1        0.1357
     11 C          -5.3869  -19.1811   21.0804 C.ar    1  UNL1        0.0884
     12 C          -4.4884  -19.3693   22.2666 C.ar    1  UNL1        0.0077
     13 C          -3.0098  -19.5277   22.0698 C.ar    1  UNL1        0.0003
     14 C          -2.4297  -19.4978   20.6868 C.ar    1  UNL1        0.0000
     15 C          -3.3283  -19.3097   19.5006 C.ar    1  UNL1        0.0003
     16 C          -4.8069  -19.1513   19.6974 C.ar    1  UNL1        0.0077
     17 C         -10.0207  -18.5957   24.7232 C.3     1  UNL1        0.0873
     18 N          -9.3259  -17.4334   25.3683 N.3     1  UNL1       -0.2719
     19 C          -8.9325  -16.1545   24.6904 C.3     1  UNL1        0.0722
     20 C          -8.2660  -15.2766   25.7077 C.3     1  UNL1        0.0188
     21 C          -8.2474  -16.0130   27.0145 C.3     1  UNL1        0.0188
     22 C          -8.9025  -17.3459   26.8046 C.3     1  UNL1        0.0722
@<TRIPOS>BOND
     1     1     2    1
     2     2     3    2
     3     3     4    1
     4     4     5    2
     5     5     6    1
     6     6     7    2
     7     7    11    1
     8    11    12   ar
     9    12    13   ar
    10    13    14   ar
    11    14    15   ar
    12    15    16   ar
    13     7     8    1
    14     8     9    2
    15     9    10    1
    16    10    17    1
    17    17    18    1
    18    18    19    1
    19    19    20    1
    20    20    21    1
    21    21    22    1
    22    10     2    1
    23    22    18    1
    24     9     5    1
    25    16    11   ar
@<TRIPOS>MOLECULE
*****
 22 25 0 0 0
SMALL
GASTEIGER

@<TRIPOS>ATOM
      1 F          -8.8032  -20.6598   18.3171 F       1  UNL1       -0.2084
      2 C          -9.0102  -19.6473   19.4044 C.2     1  UNL1        0.1267
      3 C         -10.2508  -18.8044   19.4180 C.2     1  UNL1        0.0296
      4 C         -10.4579  -17.7920   20.5053 C.2     1  UNL1        0.0521
      5 C          -9.4242  -17.6226   21.5790 C.2     1  UNL1        0.2323
      6 N          -9.3537  -16.7132   22.7698 N.2     1  UNL1       -0.0308
      7 C          -8.0695  -16.9941   23.4921 C.2     1  UNL1        0.3752
      8 N          -7.3463  -18.0771   22.7478 N.2     1  UNL1       -0.0346
      9 C          -8.1836  -18.4655   21.5654 C.2     1  UNL1        0.2207
     10 C          -7.9766  -19.4779   20.4781 C.3     1  UNL1        0.1357
     11 C          -7.5922  -16.3117   24.7398 C.ar    1  UNL1        0.0884
     12 C          -6.1914  -15.7807   24.8152 C.ar    1  UNL1        0.0077
     13 C          -5.7142  -15.0984   26.0629 C.ar    1  UNL1        0.0003
     14 C          -6.6377  -14.9471   27.2351 C.ar    1  UNL1        0.0000
     15 C          -8.0385  -15.4781   27.1597 C.ar    1  UNL1        0.0003
     16 C          -8.5157  -16.1604   25.9120 C.ar    1  UNL1        0.0077
     17 C          -6.7359  -20.3209   20.4645 C.3     1  UNL1        0.0873
     18 N          -5.3882  -19.6739   20.5872 N.3     1  UNL1       -0.2719
     19 C          -4.5312  -19.6486   21.8181 C.3     1  UNL1        0.0722
     20 C          -3.2742  -18.8978   21.4923 C.3     1  UNL1        0.0188
     21 C          -3.3543  -18.4589   20.0601 C.3     1  UNL1        0.0188
     22 C          -4.6609  -18.9387   19.5008 C.3     1  UNL1        0.0722
@<TRIPOS>BOND
     1     1     2    1
     2     2     3    2
     3     3     4    1
     4     4     5    2
     5     5     6    1
     6     6     7    2
     7     7    11    1
     8    11    12   ar
     9    12    13   ar
    10    13    14   ar
    11    14    15   ar
    12    15    16   ar
    13     7     8    1
    14     8     9    2
    15     9    10    1
    16    10    17    1
    17    17    18    1
    18    18    19    1
    19    19    20    1
    20    20    21    1
    21    21    22    1
    22    10     2    1
    23    22    18    1
    24     9     5    1
    25    16    11   ar
@<TRIPOS>MOLECULE
*****
 22 25 0 0 0
SMALL
GASTEIGER

@<TRIPOS>ATOM
      1 F          -4.4309  -14.4829   26.4725 F       1  UNL1       -0.2084
      2 C          -5.6992  -15.1090   25.9728 C.2     1  UNL1        0.1267
      3 C          -6.8333  -15.3649   26.9205 C.2     1  UNL1        0.0296
      4 C          -8.1016  -15.9909   26.4208 C.2     1  UNL1        0.0521
      5 C          -8.2356  -16.3612   24.9734 C.2     1  UNL1        0.2323
      6 N          -9.3560  -16.9873   24.1972 N.2     1  UNL1       -0.0308
      7 C          -8.9143  -17.1184   22.7697 C.2     1  UNL1        0.3752
      8 N          -7.5208  -16.5733   22.6637 N.2     1  UNL1       -0.0346
      9 C          -7.1014  -16.1053   24.0257 C.2     1  UNL1        0.2207
     10 C          -5.8332  -15.4792   24.5255 C.3     1  UNL1        0.1357
     11 C          -9.7238  -17.6936   21.6455 C.ar    1  UNL1        0.0884
     12 C          -9.5368  -19.1265   21.2432 C.ar    1  UNL1        0.0077
     13 C         -10.3464  -19.7016   20.1190 C.ar    1  UNL1        0.0003
     14 C         -11.3430  -18.8439   19.3971 C.ar    1  UNL1        0.0000
     15 C         -11.5300  -17.4110   19.7994 C.ar    1  UNL1        0.0003
     16 C         -10.7204  -16.8359   20.9236 C.ar    1  UNL1        0.0077
     17 C          -4.6990  -15.2234   23.5778 C.3     1  UNL1        0.0873
     18 N          -3.9072  -16.3726   23.0280 N.3     1  UNL1       -0.2719
     19 C          -4.2088  -17.8280   23.2305 C.3     1  UNL1        0.0722
     20 C          -3.1629  -18.6231   22.5068 C.3     1  UNL1        0.0188
     21 C          -2.2148  -17.6592   21.8570 C.3     1  UNL1        0.0188
     22 C          -2.6750  -16.2683   22.1792 C.3     1  UNL1        0.0722
@<TRIPOS>BOND
     1     1     2    1
     2     2     3    2
     3     3     4    1
     4     4     5    2
     5     5     6    1
     6     6     7    2
     7     7    11    1
     8    11    12   ar
     9    12    13   ar
    10    13    14   ar
    11    14    15   ar
    12    15    16   ar
    13     7     8    1
    14     8     9    2
    15     9    10    1
    16    10    17    1
    17    17    18    1
    18    18    19    1
    19    19    20    1
    20    20    21    1
    21    21    22    1
    22    10     2    1
    23    22    18    1
    24     9     5    1
    25    16    11   ar
@<TRIPOS>MOLECULE
*****
 22 25 0 0 0
SMALL
GASTEIGER

@<TRIPOS>ATOM
      1 F          -2.3293  -17.5765   23.2052 F       1  UNL1       -0.2084
      2 C          -3.6738  -18.0915   22.7843 C.2     1  UNL1        0.1267
      3 C          -3.7794  -19.3833   22.0294 C.2     1  UNL1        0.0296
      4 C          -5.1240  -19.8983   21.6084 C.2     1  UNL1        0.0521
      5 C          -6.3628  -19.1214   21.9424 C.2     1  UNL1        0.2323
      6 N          -7.8139  -19.3768   21.6614 N.2     1  UNL1       -0.0308
      7 C          -8.6052  -18.2427   22.2426 C.2     1  UNL1        0.3752
      8 N          -7.6431  -17.2864   22.8829 N.2     1  UNL1       -0.0346
      9 C          -6.2572  -17.8295   22.6973 C.2     1  UNL1        0.2207
     10 C          -4.9127  -17.3145   23.1183 C.3     1  UNL1        0.1357
     11 C         -10.0967  -18.0914   22.1925 C.ar    1  UNL1        0.0884
     12 C         -10.9160  -18.3227   23.4275 C.ar    1  UNL1        0.0077
     13 C         -12.4075  -18.1714   23.3772 C.ar    1  UNL1        0.0003
     14 C         -13.0797  -17.7888   22.0920 C.ar    1  UNL1        0.0000
     15 C         -12.2604  -17.5575   20.8570 C.ar    1  UNL1        0.0003
     16 C         -10.7689  -17.7088   20.9073 C.ar    1  UNL1        0.0077
     17 C          -4.8071  -16.0226   23.8732 C.3     1  UNL1        0.0873
     18 N          -5.7214  -15.7539   25.0315 N.3     1  UNL1       -0.2719
     19 C          -7.1316  -15.2505   24.9432 C.3     1  UNL1        0.0722
     20 C          -7.6679  -15.1268   26.3385 C.3     1  UNL1        0.0188
     21 C          -6.5890  -15.5539   27.2893 C.3     1  UNL1        0.0188
     22 C          -5.3861  -15.9414   26.4814 C.3     1  UNL1        0.0722
@<TRIPOS>BOND
     1     1     2    1
     2     2     3    2
     3     3     4    1
     4     4     5    2
     5     5     6    1
     6     6     7    2
     7     7    11    1
     8    11    12   ar
     9    12    13   ar
    10    13    14   ar
    11    14    15   ar
    12    15    16   ar
    13     7     8    1
    14     8     9    2
    15     9    10    1
    16    10    17    1
    17    17    18    1
    18    18    19    1
    19    19    20    1
    20    20    21    1
    21    21    22    1
    22    10     2    1
    23    22    18    1
    24     9     5    1
    25    16    11   ar
@<TRIPOS>MOLECULE
*****
 22 25 0 0 0
SMALL
GASTEIGER

@<TRIPOS>ATOM
      1 F          -2.7142  -17.6526   23.6548 F       1  UNL1       -0.2084
      2 C          -4.1378  -17.1837   23.7144 C.2     1  UNL1        0.1267
      3 C          -4.4933  -15.9653   24.5138 C.2     1  UNL1        0.0296
      4 C          -5.9170  -15.4964   24.5734 C.2     1  UNL1        0.0521
      5 C          -6.9850  -16.2460   23.8336 C.2     1  UNL1        0.2323
      6 N          -8.4630  -16.0236   23.7071 N.2     1  UNL1       -0.0308
      7 C          -9.0209  -17.1046   22.8295 C.2     1  UNL1        0.3752
      8 N          -7.8877  -17.9951   22.4136 N.2     1  UNL1       -0.0346
      9 C          -6.6294  -17.4644   23.0342 C.2     1  UNL1        0.2207
     10 C          -5.2058  -17.9333   22.9746 C.3     1  UNL1        0.1357
     11 C         -10.4595  -17.2667   22.4367 C.ar    1  UNL1        0.0884
     12 C         -10.8977  -16.9361   21.0408 C.ar    1  UNL1        0.0077
     13 C         -12.3363  -17.0982   20.6481 C.ar    1  UNL1        0.0003
     14 C         -13.3367  -17.5910   21.6513 C.ar    1  UNL1        0.0000
     15 C         -12.8985  -17.9217   23.0472 C.ar    1  UNL1        0.0003
     16 C         -11.4599  -17.7595   23.4399 C.ar    1  UNL1        0.0077
     17 C          -4.8503  -19.1517   22.1752 C.3     1  UNL1        0.0873
     18 N          -3.8021  -19.0674   21.1056 N.3     1  UNL1       -0.2719
     19 C          -2.3372  -19.3363   21.2836 C.3     1  UNL1        0.0722
     20 C          -1.6645  -19.1344   19.9582 C.3     1  UNL1        0.0188
     21 C          -2.7136  -18.7407   18.9610 C.3     1  UNL1        0.0188
     22 C          -4.0348  -18.6993   19.6702 C.3     1  UNL1        0.0722
@<TRIPOS>BOND
     1     1     2    1
     2     2     3    2
     3     3     4    1
     4     4     5    2
     5     5     6    1
     6     6     7    2
     7     7    11    1
     8    11    12   ar
     9    12    13   ar
    10    13    14   ar
    11    14    15   ar
    12    15    16   ar
    13     7     8    1
    14     8     9    2
    15     9    10    1
    16    10    17    1
    17    17    18    1
    18    18    19    1
    19    19    20    1
    20    20    21    1
    21    21    22    1
    22    10     2    1
    23    22    18    1
    24     9     5    1
    25    16    11   ar
@<TRIPOS>MOLECULE
*****
 22 25 0 0 0
SMALL
GASTEIGER

@<TRIPOS>ATOM
      1 F          -1.7168  -19.2197   19.3184 F       1  UNL1       -0.2084
      2 C          -2.2127  -18.2560   20.3554 C.2     1  UNL1        0.1267
      3 C          -1.4388  -17.0048   20.6477 C.2     1  UNL1        0.0296
      4 C          -1.9347  -16.0411   21.6847 C.2     1  UNL1        0.0521
      5 C          -3.2046  -16.3286   22.4293 C.2     1  UNL1        0.2323
      6 N          -3.9351  -15.5706   23.4979 N.2     1  UNL1       -0.0308
      7 C          -5.1605  -16.3534   23.8661 C.2     1  UNL1        0.3752
      8 N          -5.1875  -17.5951   23.0250 N.2     1  UNL1       -0.0346
      9 C          -3.9786  -17.5798   22.1370 C.2     1  UNL1        0.2207
     10 C          -3.4827  -18.5435   21.1001 C.3     1  UNL1        0.1357
     11 C          -6.1801  -15.9630   24.8947 C.ar    1  UNL1        0.0884
     12 C          -7.6321  -15.8966   24.5241 C.ar    1  UNL1        0.0077
     13 C          -8.6516  -15.5062   25.5528 C.ar    1  UNL1        0.0003
     14 C          -8.2192  -15.1822   26.9521 C.ar    1  UNL1        0.0000
     15 C          -6.7672  -15.2486   27.3227 C.ar    1  UNL1        0.0003
     16 C          -5.7477  -15.6390   26.2940 C.ar    1  UNL1        0.0077
     17 C          -4.2567  -19.7947   20.8078 C.3     1  UNL1        0.0873
     18 N          -5.7535  -19.7905   20.9045 N.3     1  UNL1       -0.2719
     19 C          -6.6999  -19.1942   19.9050 C.3     1  UNL1        0.0722
     20 C          -8.0980  -19.4170   20.4004 C.3     1  UNL1        0.0188
     21 C          -8.0158  -20.1509   21.7060 C.3     1  UNL1        0.0188
     22 C          -6.5668  -20.3817   22.0175 C.3     1  UNL1        0.0722
@<TRIPOS>BOND
     1     1     2    1
     2     2     3    2
     3     3     4    1
     4     4     5    2
     5     5     6    1
     6     6     7    2
     7     7    11    1
     8    11    12   ar
     9    12    13   ar
    10    13    14   ar
    11    14    15   ar
    12    15    16   ar
    13     7     8    1
    14     8     9    2
    15     9    10    1
    16    10    17    1
    17    17    18    1
    18    18    19    1
    19    19    20    1
    20    20    21    1
    21    21    22    1
    22    10     2    1
    23    22    18    1
    24     9     5    1
    25    16    11   ar
@<TRIPOS>MOLECULE
*****
 22 25 0 0 0
SMALL
GASTEIGER

@<TRIPOS>ATOM
      1 F          -4.7830  -15.0954   25.5733 F       1  UNL1       -0.2084
      2 C          -5.7481  -15.6856   24.5882 C.2     1  UNL1        0.1267
      3 C          -7.1234  -15.1043   24.4453 C.2     1  UNL1        0.0296
      4 C          -8.0886  -15.6944   23.4603 C.2     1  UNL1        0.0521
      5 C          -7.6783  -16.8660   22.6182 C.2     1  UNL1        0.2323
      6 N          -8.4079  -17.6537   21.5707 N.2     1  UNL1       -0.0308
      7 C          -7.4835  -18.7218   21.0663 C.2     1  UNL1        0.3752
      8 N          -6.1825  -18.5943   21.8020 N.2     1  UNL1       -0.0346
      9 C          -6.3029  -17.4473   22.7611 C.2     1  UNL1        0.2207
     10 C          -5.3378  -16.8571   23.7461 C.3     1  UNL1        0.1357
     11 C          -7.8038  -19.7390   20.0114 C.ar    1  UNL1        0.0884
     12 C          -9.0470  -19.5959   19.1845 C.ar    1  UNL1        0.0077
     13 C          -9.3672  -20.6131   18.1296 C.ar    1  UNL1        0.0003
     14 C          -8.4443  -21.7734   17.9016 C.ar    1  UNL1        0.0000
     15 C          -7.2010  -21.9164   18.7286 C.ar    1  UNL1        0.0003
     16 C          -6.8808  -20.8992   19.7835 C.ar    1  UNL1        0.0077
     17 C          -3.9625  -17.4384   23.8891 C.3     1  UNL1        0.0873
     18 N          -3.0364  -17.4728   22.7096 N.3     1  UNL1       -0.2719
     19 C          -2.4192  -16.2818   22.0383 C.3     1  UNL1        0.0722
     20 C          -1.5664  -16.7771   20.9081 C.3     1  UNL1        0.0188
     21 C          -1.6565  -18.2742   20.8809 C.3     1  UNL1        0.0188
     22 C          -2.5651  -18.7041   21.9943 C.3     1  UNL1        0.0722
@<TRIPOS>BOND
     1     1     2    1
     2     2     3    2
     3     3     4    1
     4     4     5    2
     5     5     6    1
     6     6     7    2
     7     7    11    1
     8    11    12   ar
     9    12    13   ar
    10    13    14   ar
    11    14    15   ar
    12    15    16   ar
    13     7     8    1
    14     8     9    2
    15     9    10    1
    16    10    17    1
    17    17    18    1
    18    18    19    1
    19    19    20    1
    20    20    21    1
    21    21    22    1
    22    10     2    1
    23    22    18    1
    24     9     5    1
    25    16    11   ar
@<TRIPOS>MOLECULE
*****
 22 25 0 0 0
SMALL
GASTEIGER

@<TRIPOS>ATOM
      1 F          -9.7527   -3.9091   19.1479 F       1  UNL1       -0.2084
      2 C         -10.6895   -5.0471   18.8694 C.2     1  UNL1        0.1267
      3 C         -10.2038   -6.2521   18.1198 C.2     1  UNL1        0.0296
      4 C         -11.1406   -7.3901   17.8413 C.2     1  UNL1        0.0521
      5 C         -12.5631   -7.3230   18.3125 C.2     1  UNL1        0.2323
      6 N         -13.7085   -8.2833   18.1867 N.2     1  UNL1       -0.0308
      7 C         -14.9020   -7.6718   18.8585 C.2     1  UNL1        0.3752
      8 N         -14.4944   -6.3335   19.3995 N.2     1  UNL1       -0.0346
      9 C         -13.0488   -6.1179   19.0621 C.2     1  UNL1        0.2207
     10 C         -12.1120   -4.9800   19.3405 C.3     1  UNL1        0.1357
     11 C         -16.2642   -8.2900   18.9697 C.ar    1  UNL1        0.0884
     12 C         -16.5414   -9.6152   18.3241 C.ar    1  UNL1        0.0077
     13 C         -17.9036  -10.2334   18.4354 C.ar    1  UNL1        0.0003
     14 C         -18.9886   -9.5263   19.1923 C.ar    1  UNL1        0.0000
     15 C         -18.7114   -8.2010   19.8380 C.ar    1  UNL1        0.0003
     16 C         -17.3492   -7.5829   19.7266 C.ar    1  UNL1        0.0077
     17 C         -12.5977   -3.7749   20.0901 C.3     1  UNL1        0.0873
     18 N         -12.8577   -2.4913   19.3589 N.3     1  UNL1       -0.2719
     19 C         -11.8207   -1.4981   18.9251 C.3     1  UNL1        0.0722
     20 C         -12.5224   -0.3685   18.2312 C.3     1  UNL1        0.0188
     21 C         -13.9931   -0.6635   18.2361 C.3     1  UNL1        0.0188
     22 C         -14.2002   -1.9755   18.9331 C.3     1  UNL1        0.0722
@<TRIPOS>BOND
     1     1     2    1
     2     2     3    2
     3     3     4    1
     4     4     5    2
     5     5     6    1
     6     6     7    2
     7     7    11    1
     8    11    12   ar
     9    12    13   ar
    10    13    14   ar
    11    14    15   ar
    12    15    16   ar
    13     7     8    1
    14     8     9    2
    15     9    10    1
    16    10    17    1
    17    17    18    1
    18    18    19    1
    19    19    20    1
    20    20    21    1
    21    21    22    1
    22    10     2    1
    23    22    18    1
    24     9     5    1
    25    16    11   ar
@<TRIPOS>MOLECULE
*****
 22 25 0 0 0
SMALL
GASTEIGER

@<TRIPOS>ATOM
      1 F         -10.5884   -8.5078   17.3843 F       1  UNL1       -0.2084
      2 C         -10.7706   -7.1017   17.8742 C.2     1  UNL1        0.1267
      3 C          -9.6358   -6.3896   18.5485 C.2     1  UNL1        0.0296
      4 C          -9.8179   -4.9835   19.0384 C.2     1  UNL1        0.0521
      5 C         -11.1349   -4.2897   18.8537 C.2     1  UNL1        0.2323
      6 N         -11.6073   -2.9166   19.2297 N.2     1  UNL1       -0.0308
      7 C         -13.0342   -2.7802   18.7876 C.2     1  UNL1        0.3752
      8 N         -13.4436   -4.0690   18.1385 N.2     1  UNL1       -0.0346
      9 C         -12.2697   -5.0019   18.1793 C.2     1  UNL1        0.2207
     10 C         -12.0876   -6.4080   17.6895 C.3     1  UNL1        0.1357
     11 C         -13.8998   -1.5679   18.9638 C.ar    1  UNL1        0.0884
     12 C         -15.1873   -1.6700   19.7265 C.ar    1  UNL1        0.0077
     13 C         -16.0529   -0.4576   19.9027 C.ar    1  UNL1        0.0003
     14 C         -15.6309    0.8569   19.3161 C.ar    1  UNL1        0.0000
     15 C         -14.3433    0.9590   18.5534 C.ar    1  UNL1        0.0003
     16 C         -13.4778   -0.2534   18.3773 C.ar    1  UNL1        0.0077
     17 C         -13.2224   -7.1202   17.0151 C.3     1  UNL1        0.0873
     18 N         -14.2973   -7.7663   17.8380 N.3     1  UNL1       -0.2719
     19 C         -14.7854   -9.1778   17.6993 C.3     1  UNL1        0.0722
     20 C         -15.8625   -9.3982   18.7196 C.3     1  UNL1        0.0188
     21 C         -16.0401   -8.1229   19.4891 C.3     1  UNL1        0.0188
     22 C         -15.0727   -7.1143   18.9441 C.3     1  UNL1        0.0722
@<TRIPOS>BOND
     1     1     2    1
     2     2     3    2
     3     3     4    1
     4     4     5    2
     5     5     6    1
     6     6     7    2
     7     7    11    1
     8    11    12   ar
     9    12    13   ar
    10    13    14   ar
    11    14    15   ar
    12    15    16   ar
    13     7     8    1
    14     8     9    2
    15     9    10    1
    16    10    17    1
    17    17    18    1
    18    18    19    1
    19    19    20    1
    20    20    21    1
    21    21    22    1
    22    10     2    1
    23    22    18    1
    24     9     5    1
    25    16    11   ar
