@<TRIPOS>MOLECULE
*****
 35 37 0 0 0
SMALL
GASTEIGER

@<TRIPOS>ATOM
      1 C           1.2002    1.0262   20.4826 C.ar    1  UNL1        0.0696
      2 C           1.6504    1.1851   21.9046 C.ar    1  UNL1        0.0057
      3 C           2.8050    0.3783   22.4203 C.ar    1  UNL1       -0.0041
      4 C           3.5093   -0.5874   21.5142 C.ar    1  UNL1       -0.0185
      5 C           3.0591   -0.7464   20.0922 C.ar    1  UNL1        0.0677
      6 C           1.9045    0.0604   19.5764 C.ar    1  UNL1        0.0095
      7 C           4.6639   -1.3942   22.0299 C.3     1  UNL1        0.0257
      8 C           4.4119   -2.6352   22.8340 C.3     1  UNL1        0.0259
      9 C           5.5665   -3.4420   23.3497 C.3     1  UNL1        0.0940
     10 N           6.9730   -3.0078   23.0615 N.am    1  UNL1       -0.2761
     11 C           8.1276   -3.8146   23.5773 C.2     1  UNL1        0.2490
     12 O           9.5341   -3.3804   23.2891 O.2     1  UNL1       -0.2699
     13 C           7.2250   -1.7669   22.2575 C.3     1  UNL1        0.0940
     14 C           6.0704   -0.9601   21.7417 C.3     1  UNL1        0.0259
     15 C           7.8757   -5.0556   24.3813 C.ar    1  UNL1        0.0537
     16 C           7.1523   -4.9659   25.6924 C.ar    1  UNL1        0.0068
     17 C           6.9004   -6.2068   26.4964 C.ar    1  UNL1        0.0298
     18 C           7.3717   -7.5376   25.9894 C.ar    1  UNL1        0.1401
     19 F           7.1197   -8.7786   26.7935 F       1  UNL1       -0.2042
     20 C           8.0950   -7.6273   24.6784 C.ar    1  UNL1        0.0298
     21 C           8.3470   -6.3863   23.8743 C.ar    1  UNL1        0.0068
     22 N          -1.0358    2.2798   20.9053 N.am    1  UNL1       -0.1708
     23 C           0.0456    1.8330   19.9668 C.2     1  UNL1        0.3078
     24 O          -0.0276    2.1929   18.5125 O.2     1  UNL1       -0.2516
     25 H          -0.9878    2.0436   21.8599 H       1  UNL1        0.2545
     26 N          -1.9400    4.2872   19.5259 N.pl3   1  UNL1       -0.1313
     27 C          -2.1904    3.0866   20.3895 C.2     1  UNL1        0.3751
     28 N          -3.5954    2.6928   20.7375 N.pl3   1  UNL1       -0.2906
     29 H          -2.6978    4.8167   19.1874 H       1  UNL1        0.3060
     30 H          -4.3532    3.2223   20.3989 H       1  UNL1        0.2545
     31 H          -3.7597    1.9048   21.3043 H       1  UNL1        0.2545
     32 C           3.7635   -1.7121   19.1860 C.3     1  UNL1        0.4183
     33 F           4.4678   -2.6779   18.2798 F       1  UNL1       -0.1659
     34 F           4.6523   -0.6066   18.6985 F       1  UNL1       -0.1659
     35 F           2.8746   -2.8177   19.6734 F       1  UNL1       -0.1659
@<TRIPOS>BOND
     1    26    27    2
     2    27    28    1
     3    27    22    1
     4    22    23   am
     5    23    24    2
     6    23     1    1
     7     1     2   ar
     8     2     3   ar
     9     3     4   ar
    10     4     7    1
    11     7     8    1
    12     8     9    1
    13     9    10    1
    14    10    11   am
    15    11    12    2
    16    11    15    1
    17    15    16   ar
    18    16    17   ar
    19    17    18   ar
    20    18    19    1
    21    18    20   ar
    22    20    21   ar
    23    10    13    1
    24    13    14    1
    25     4     5   ar
    26     5    32    1
    27    32    33    1
    28    32    34    1
    29    32    35    1
    30     5     6   ar
    31     6     1   ar
    32    14     7    1
    33    21    15   ar
    34    26    29    1
    35    28    30    1
    36    28    31    1
    37    22    25    1
@<TRIPOS>MOLECULE
*****
 35 37 0 0 0
SMALL
GASTEIGER

@<TRIPOS>ATOM
      1 C           4.4607   -2.3016   22.9144 C.ar    1  UNL1        0.0696
      2 C           3.7882   -1.4272   23.9309 C.ar    1  UNL1        0.0057
      3 C           2.8867   -0.3147   23.4842 C.ar    1  UNL1       -0.0041
      4 C           2.6576   -0.0764   22.0211 C.ar    1  UNL1       -0.0185
      5 C           3.3301   -0.9507   21.0046 C.ar    1  UNL1        0.0677
      6 C           4.2316   -2.0633   21.4513 C.ar    1  UNL1        0.0095
      7 C           1.7561    1.0361   21.5745 C.3     1  UNL1        0.0257
      8 C           0.3372    0.7421   21.1871 C.3     1  UNL1        0.0259
      9 C          -0.5643    1.8546   20.7404 C.3     1  UNL1        0.0940
     10 N          -0.0469    3.2613   20.6812 N.am    1  UNL1       -0.2761
     11 C          -0.9484    4.3738   20.2346 C.2     1  UNL1        0.2490
     12 O          -0.4310    5.7805   20.1754 O.2     1  UNL1       -0.2699
     13 C           1.3720    3.5554   21.0687 C.3     1  UNL1        0.0940
     14 C           2.2735    2.4428   21.5153 C.3     1  UNL1        0.0259
     15 C          -2.3673    4.0798   19.8472 C.ar    1  UNL1        0.0537
     16 C          -2.7667    4.0859   18.4013 C.ar    1  UNL1        0.0068
     17 C          -4.1856    3.7919   18.0139 C.ar    1  UNL1        0.0298
     18 C          -5.2052    3.4916   19.0723 C.ar    1  UNL1        0.1401
     19 F          -6.6242    3.1975   18.6848 F       1  UNL1       -0.2042
     20 C          -4.8059    3.4854   20.5181 C.ar    1  UNL1        0.0298
     21 C          -3.3869    3.7795   20.9056 C.ar    1  UNL1        0.0068
     22 N           5.7837   -3.5070   24.7975 N.am    1  UNL1       -0.1708
     23 C           5.3622   -3.4141   23.3610 C.2     1  UNL1        0.3078
     24 O           5.8421   -4.4338   22.3711 O.2     1  UNL1       -0.2516
     25 H           5.4687   -2.8378   25.4472 H       1  UNL1        0.2545
     26 N           6.4408   -5.3016   26.5575 N.pl3   1  UNL1       -0.1313
     27 C           6.6852   -4.6196   25.2442 C.2     1  UNL1        0.3751
     28 N           7.8312   -5.0502   24.3773 N.pl3   1  UNL1       -0.2906
     29 H           7.0325   -6.0318   26.8507 H       1  UNL1        0.3060
     30 H           8.4229   -5.7804   24.6704 H       1  UNL1        0.2545
     31 H           7.9917   -4.6025   23.5153 H       1  UNL1        0.2545
     32 C           3.1011   -0.7125   19.5414 C.3     1  UNL1        0.4183
     33 F           2.8721   -0.4743   18.0783 F       1  UNL1       -0.1659
     34 F           1.9183   -1.6343   19.5764 F       1  UNL1       -0.1659
     35 F           4.2839    0.2092   19.5064 F       1  UNL1       -0.1659
@<TRIPOS>BOND
     1    26    27    2
     2    27    28    1
     3    27    22    1
     4    22    23   am
     5    23    24    2
     6    23     1    1
     7     1     2   ar
     8     2     3   ar
     9     3     4   ar
    10     4     7    1
    11     7     8    1
    12     8     9    1
    13     9    10    1
    14    10    11   am
    15    11    12    2
    16    11    15    1
    17    15    16   ar
    18    16    17   ar
    19    17    18   ar
    20    18    19    1
    21    18    20   ar
    22    20    21   ar
    23    10    13    1
    24    13    14    1
    25     4     5   ar
    26     5    32    1
    27    32    33    1
    28    32    34    1
    29    32    35    1
    30     5     6   ar
    31     6     1   ar
    32    14     7    1
    33    21    15   ar
    34    26    29    1
    35    28    30    1
    36    28    31    1
    37    22    25    1
@<TRIPOS>MOLECULE
*****
 35 37 0 0 0
SMALL
GASTEIGER

@<TRIPOS>ATOM
      1 C         -11.8880   -4.3310   19.0585 C.ar    1  UNL1        0.0696
      2 C         -11.6458   -2.8738   18.7980 C.ar    1  UNL1        0.0057
      3 C         -12.7964   -1.9114   18.7932 C.ar    1  UNL1       -0.0041
      4 C         -14.1891   -2.4063   19.0490 C.ar    1  UNL1       -0.0185
      5 C         -14.4313   -3.8634   19.3095 C.ar    1  UNL1        0.0677
      6 C         -13.2807   -4.8258   19.3142 C.ar    1  UNL1        0.0095
      7 C         -15.3397   -1.4439   19.0442 C.3     1  UNL1        0.0257
      8 C         -15.7316   -0.7372   20.3079 C.3     1  UNL1        0.0259
      9 C         -16.8822    0.2252   20.3031 C.3     1  UNL1        0.0940
     10 N         -17.6409    0.4808   19.0347 N.am    1  UNL1       -0.2761
     11 C         -18.7914    1.4432   19.0299 C.2     1  UNL1        0.2490
     12 O         -19.5502    1.6988   17.7615 O.2     1  UNL1       -0.2699
     13 C         -17.2490   -0.2259   17.7710 C.3     1  UNL1        0.0940
     14 C         -16.0984   -1.1883   17.7758 C.3     1  UNL1        0.0259
     15 C         -19.1833    2.1499   20.2936 C.ar    1  UNL1        0.0537
     16 C         -18.6866    3.5400   20.5605 C.ar    1  UNL1        0.0068
     17 C         -19.0784    4.2467   21.8242 C.ar    1  UNL1        0.0298
     18 C         -19.9670    3.5635   22.8210 C.ar    1  UNL1        0.1401
     19 F         -20.3589    4.2703   24.0847 F       1  UNL1       -0.2042
     20 C         -20.4638    2.1736   22.5541 C.ar    1  UNL1        0.0298
     21 C         -20.0719    1.4667   21.2904 C.ar    1  UNL1        0.0068
     22 N         -10.9590   -6.7292   18.6901 N.am    1  UNL1       -0.1708
     23 C         -10.7374   -5.2933   19.0632 C.2     1  UNL1        0.3078
     24 O          -9.3652   -4.8199   19.4411 O.2     1  UNL1       -0.2516
     25 H         -11.8597   -7.0399   18.4420 H       1  UNL1        0.2545
     26 N          -9.7430   -8.7874   17.6727 N.pl3   1  UNL1       -0.1313
     27 C          -9.8084   -7.6915   18.6948 C.2     1  UNL1        0.3751
     28 N          -8.7232   -7.5580   19.7218 N.pl3   1  UNL1       -0.2906
     29 H          -8.9879   -9.4190   17.6758 H       1  UNL1        0.3060
     30 H          -7.9681   -8.1896   19.7249 H       1  UNL1        0.2545
     31 H          -8.7662   -6.8387   20.3926 H       1  UNL1        0.2545
     32 C         -15.8240   -4.3583   19.5652 C.3     1  UNL1        0.4183
     33 F         -17.2167   -4.8532   19.8210 F       1  UNL1       -0.1659
     34 F         -16.0335   -4.5315   18.0901 F       1  UNL1       -0.1659
     35 F         -15.6146   -4.1852   21.0404 F       1  UNL1       -0.1659
@<TRIPOS>BOND
     1    26    27    2
     2    27    28    1
     3    27    22    1
     4    22    23   am
     5    23    24    2
     6    23     1    1
     7     1     2   ar
     8     2     3   ar
     9     3     4   ar
    10     4     7    1
    11     7     8    1
    12     8     9    1
    13     9    10    1
    14    10    11   am
    15    11    12    2
    16    11    15    1
    17    15    16   ar
    18    16    17   ar
    19    17    18   ar
    20    18    19    1
    21    18    20   ar
    22    20    21   ar
    23    10    13    1
    24    13    14    1
    25     4     5   ar
    26     5    32    1
    27    32    33    1
    28    32    34    1
    29    32    35    1
    30     5     6   ar
    31     6     1   ar
    32    14     7    1
    33    21    15   ar
    34    26    29    1
    35    28    30    1
    36    28    31    1
    37    22    25    1
@<TRIPOS>MOLECULE
*****
 35 37 0 0 0
SMALL
GASTEIGER

@<TRIPOS>ATOM
      1 C           6.6621   -3.9093   30.1098 C.ar    1  UNL1        0.0696
      2 C           6.8627   -4.3615   31.5258 C.ar    1  UNL1        0.0057
      3 C           6.6530   -3.3993   32.6573 C.ar    1  UNL1       -0.0041
      4 C           6.2427   -1.9849   32.3727 C.ar    1  UNL1       -0.0185
      5 C           6.0421   -1.5327   30.9566 C.ar    1  UNL1        0.0677
      6 C           6.2518   -2.4949   29.8252 C.ar    1  UNL1        0.0095
      7 C           6.0330   -1.0227   33.5041 C.3     1  UNL1        0.0257
      8 C           4.6580   -0.8139   34.0660 C.3     1  UNL1        0.0259
      9 C           4.4483    0.1483   35.1975 C.3     1  UNL1        0.0940
     10 N           5.6136    0.9017   35.7670 N.am    1  UNL1       -0.2761
     11 C           5.4039    1.8639   36.8985 C.2     1  UNL1        0.2490
     12 O           6.5691    2.6173   37.4680 O.2     1  UNL1       -0.2699
     13 C           6.9885    0.6929   35.2051 C.3     1  UNL1        0.0940
     14 C           7.1983   -0.2693   34.0737 C.3     1  UNL1        0.0259
     15 C           4.0289    2.0727   37.4604 C.ar    1  UNL1        0.0537
     16 C           3.4634    1.0911   38.4436 C.ar    1  UNL1        0.0068
     17 C           2.0884    1.2999   39.0055 C.ar    1  UNL1        0.0298
     18 C           1.2788    2.4902   38.5842 C.ar    1  UNL1        0.1401
     19 F          -0.0962    2.6990   39.1462 F       1  UNL1       -0.2042
     20 C           1.8442    3.4719   37.6010 C.ar    1  UNL1        0.0298
     21 C           3.2193    3.2631   37.0391 C.ar    1  UNL1        0.0068
     22 N           6.4285   -4.5076   27.5923 N.am    1  UNL1       -0.1708
     23 C           6.8718   -4.8715   28.9783 C.2     1  UNL1        0.3078
     24 O           7.5249   -6.1977   29.2328 O.2     1  UNL1       -0.2516
     25 H           5.9999   -3.6372   27.4253 H       1  UNL1        0.2545
     26 N           6.9566   -4.9556   25.0883 N.pl3   1  UNL1       -0.1313
     27 C           6.6382   -5.4698   26.4609 C.2     1  UNL1        0.3751
     28 N           6.5294   -6.9463   26.7021 N.pl3   1  UNL1       -0.2906
     29 H           7.0943   -5.5871   24.3457 H       1  UNL1        0.3060
     30 H           6.6671   -7.5779   25.9595 H       1  UNL1        0.2545
     31 H           6.3204   -7.2839   27.6030 H       1  UNL1        0.2545
     32 C           5.6317   -0.1182   30.6720 C.3     1  UNL1        0.4183
     33 F           5.2213    1.2961   30.3873 F       1  UNL1       -0.1659
     34 F           7.0739    0.2924   30.6330 F       1  UNL1       -0.1659
     35 F           4.1896   -0.5288   30.7109 F       1  UNL1       -0.1659
@<TRIPOS>BOND
     1    26    27    2
     2    27    28    1
     3    27    22    1
     4    22    23   am
     5    23    24    2
     6    23     1    1
     7     1     2   ar
     8     2     3   ar
     9     3     4   ar
    10     4     7    1
    11     7     8    1
    12     8     9    1
    13     9    10    1
    14    10    11   am
    15    11    12    2
    16    11    15    1
    17    15    16   ar
    18    16    17   ar
    19    17    18   ar
    20    18    19    1
    21    18    20   ar
    22    20    21   ar
    23    10    13    1
    24    13    14    1
    25     4     5   ar
    26     5    32    1
    27    32    33    1
    28    32    34    1
    29    32    35    1
    30     5     6   ar
    31     6     1   ar
    32    14     7    1
    33    21    15   ar
    34    26    29    1
    35    28    30    1
    36    28    31    1
    37    22    25    1
@<TRIPOS>MOLECULE
*****
 35 37 0 0 0
SMALL
GASTEIGER

@<TRIPOS>ATOM
      1 C           1.2095    0.9753   20.3045 C.ar    1  UNL1        0.0696
      2 C           1.2447   -0.4256   19.7695 C.ar    1  UNL1        0.0057
      3 C           2.3630   -1.3479   20.1550 C.ar    1  UNL1       -0.0041
      4 C           3.4463   -0.8693   21.0756 C.ar    1  UNL1       -0.0185
      5 C           3.4112    0.5316   21.6106 C.ar    1  UNL1        0.0677
      6 C           2.2928    1.4538   21.2250 C.ar    1  UNL1        0.0095
      7 C           4.5647   -1.7916   21.4611 C.3     1  UNL1        0.0257
      8 C           4.4293   -2.6707   22.6689 C.3     1  UNL1        0.0259
      9 C           5.5476   -3.5929   23.0545 C.3     1  UNL1        0.0940
     10 N           6.8014   -3.6361   22.2322 N.am    1  UNL1       -0.2761
     11 C           7.9198   -4.5584   22.6178 C.2     1  UNL1        0.2490
     12 O           9.1736   -4.6016   21.7955 O.2     1  UNL1       -0.2699
     13 C           6.9368   -2.7570   21.0244 C.3     1  UNL1        0.0940
     14 C           5.8184   -1.8347   20.6389 C.3     1  UNL1        0.0259
     15 C           7.7844   -5.4375   23.8255 C.ar    1  UNL1        0.0537
     16 C           8.2683   -6.8566   23.7784 C.ar    1  UNL1        0.0068
     17 C           8.1329   -7.7357   24.9862 C.ar    1  UNL1        0.0298
     18 C           7.5136   -7.1958   26.2412 C.ar    1  UNL1        0.1401
     19 F           7.3782   -8.0750   27.4490 F       1  UNL1       -0.2042
     20 C           7.0298   -5.7768   26.2884 C.ar    1  UNL1        0.0298
     21 C           7.1652   -4.8976   25.0806 C.ar    1  UNL1        0.0068
     22 N          -1.0187    2.1769   20.8886 N.am    1  UNL1       -0.1708
     23 C           0.0912    1.8975   19.9189 C.2     1  UNL1        0.3078
     24 O           0.0826    2.5405   18.5638 O.2     1  UNL1       -0.2516
     25 H          -1.0131    1.7549   21.7780 H       1  UNL1        0.2545
     26 N          -1.8329    4.4148   19.8501 N.pl3   1  UNL1       -0.1313
     27 C          -2.1370    3.0991   20.5030 C.2     1  UNL1        0.3751
     28 N          -3.5597    2.7057   20.7705 N.pl3   1  UNL1       -0.2906
     29 H          -2.5669    5.0201   19.5970 H       1  UNL1        0.3060
     30 H          -4.2937    3.3110   20.5174 H       1  UNL1        0.2545
     31 H          -3.7593    1.8421   21.1990 H       1  UNL1        0.2545
     32 C           4.4945    1.0102   22.5312 C.3     1  UNL1        0.4183
     33 F           5.5777    1.4889   23.4517 F       1  UNL1       -0.1659
     34 F           3.6962    0.5445   23.7127 F       1  UNL1       -0.1659
     35 F           5.2927    1.4759   21.3497 F       1  UNL1       -0.1659
@<TRIPOS>BOND
     1    26    27    2
     2    27    28    1
     3    27    22    1
     4    22    23   am
     5    23    24    2
     6    23     1    1
     7     1     2   ar
     8     2     3   ar
     9     3     4   ar
    10     4     7    1
    11     7     8    1
    12     8     9    1
    13     9    10    1
    14    10    11   am
    15    11    12    2
    16    11    15    1
    17    15    16   ar
    18    16    17   ar
    19    17    18   ar
    20    18    19    1
    21    18    20   ar
    22    20    21   ar
    23    10    13    1
    24    13    14    1
    25     4     5   ar
    26     5    32    1
    27    32    33    1
    28    32    34    1
    29    32    35    1
    30     5     6   ar
    31     6     1   ar
    32    14     7    1
    33    21    15   ar
    34    26    29    1
    35    28    30    1
    36    28    31    1
    37    22    25    1
@<TRIPOS>MOLECULE
*****
 35 37 0 0 0
SMALL
GASTEIGER

@<TRIPOS>ATOM
      1 C           7.1380   -3.6545   27.7630 C.ar    1  UNL1        0.0696
      2 C           6.0135   -2.6999   27.4905 C.ar    1  UNL1        0.0057
      3 C           5.5996   -2.4121   26.0777 C.ar    1  UNL1       -0.0041
      4 C           6.3103   -3.0789   24.9374 C.ar    1  UNL1       -0.0185
      5 C           7.4348   -4.0335   25.2099 C.ar    1  UNL1        0.0677
      6 C           7.8486   -4.3212   26.6226 C.ar    1  UNL1        0.0095
      7 C           5.8964   -2.7911   23.5247 C.3     1  UNL1        0.0257
      8 C           6.3866   -1.5513   22.8373 C.3     1  UNL1        0.0259
      9 C           5.9728   -1.2635   21.4245 C.3     1  UNL1        0.0940
     10 N           5.0687   -2.2156   20.6991 N.am    1  UNL1       -0.2761
     11 C           4.6549   -1.9278   19.2864 C.2     1  UNL1        0.2490
     12 O           3.7508   -2.8798   18.5609 O.2     1  UNL1       -0.2699
     13 C           4.5785   -3.4554   21.3865 C.3     1  UNL1        0.0940
     14 C           4.9923   -3.7432   22.7992 C.3     1  UNL1        0.0259
     15 C           5.1451   -0.6880   18.5990 C.ar    1  UNL1        0.0537
     16 C           6.3737   -0.7425   17.7402 C.ar    1  UNL1        0.0068
     17 C           6.8639    0.4973   17.0528 C.ar    1  UNL1        0.0298
     18 C           6.1256    1.7917   17.2242 C.ar    1  UNL1        0.1401
     19 F           6.6159    3.0315   16.5368 F       1  UNL1       -0.2042
     20 C           4.8970    1.8463   18.0830 C.ar    1  UNL1        0.0298
     21 C           4.4067    0.6064   18.7704 C.ar    1  UNL1        0.0068
     22 N           7.1257   -5.2195   29.8367 N.am    1  UNL1       -0.1708
     23 C           7.5518   -3.9423   29.1757 C.2     1  UNL1        0.3078
     24 O           8.3918   -2.9528   29.9275 O.2     1  UNL1       -0.2516
     25 H           6.5744   -5.8690   29.3432 H       1  UNL1        0.2545
     26 N           6.5557   -6.1024   32.2127 N.pl3   1  UNL1       -0.1313
     27 C           7.5395   -5.5073   31.2494 C.2     1  UNL1        0.3751
     28 N           8.9373   -5.2000   31.6989 N.pl3   1  UNL1       -0.2906
     29 H           6.8274   -6.2912   33.1400 H       1  UNL1        0.3060
     30 H           9.2089   -5.3889   32.6261 H       1  UNL1        0.2545
     31 H           9.5830   -4.8095   31.0666 H       1  UNL1        0.2545
     32 C           8.1455   -4.7003   24.0695 C.3     1  UNL1        0.4183
     33 F           8.8562   -5.3671   22.9293 F       1  UNL1       -0.1659
     34 F           7.2334   -5.8846   24.1936 F       1  UNL1       -0.1659
     35 F           9.0576   -3.5160   23.9455 F       1  UNL1       -0.1659
@<TRIPOS>BOND
     1    26    27    2
     2    27    28    1
     3    27    22    1
     4    22    23   am
     5    23    24    2
     6    23     1    1
     7     1     2   ar
     8     2     3   ar
     9     3     4   ar
    10     4     7    1
    11     7     8    1
    12     8     9    1
    13     9    10    1
    14    10    11   am
    15    11    12    2
    16    11    15    1
    17    15    16   ar
    18    16    17   ar
    19    17    18   ar
    20    18    19    1
    21    18    20   ar
    22    20    21   ar
    23    10    13    1
    24    13    14    1
    25     4     5   ar
    26     5    32    1
    27    32    33    1
    28    32    34    1
    29    32    35    1
    30     5     6   ar
    31     6     1   ar
    32    14     7    1
    33    21    15   ar
    34    26    29    1
    35    28    30    1
    36    28    31    1
    37    22    25    1
@<TRIPOS>MOLECULE
*****
 35 37 0 0 0
SMALL
GASTEIGER

@<TRIPOS>ATOM
      1 C         -16.6265   -7.0018   19.2902 C.ar    1  UNL1        0.0696
      2 C         -17.7575   -6.0643   18.9876 C.ar    1  UNL1        0.0057
      3 C         -17.5103   -4.5861   18.9254 C.ar    1  UNL1       -0.0041
      4 C         -16.1319   -4.0455   19.1659 C.ar    1  UNL1       -0.0185
      5 C         -15.0008   -4.9830   19.4685 C.ar    1  UNL1        0.0677
      6 C         -15.2481   -6.4612   19.5306 C.ar    1  UNL1        0.0095
      7 C         -15.8847   -2.5673   19.1037 C.3     1  UNL1        0.0257
      8 C         -16.7672   -1.6264   19.8690 C.3     1  UNL1        0.0259
      9 C         -16.5199   -0.1482   19.8069 C.3     1  UNL1        0.0940
     10 N         -15.3901    0.3890   18.9794 N.am    1  UNL1       -0.2761
     11 C         -15.1429    1.8672   18.9172 C.2     1  UNL1        0.2490
     12 O         -14.0130    2.4045   18.0897 O.2     1  UNL1       -0.2699
     13 C         -14.5076   -0.5518   18.2140 C.3     1  UNL1        0.0940
     14 C         -14.7548   -2.0300   18.2762 C.3     1  UNL1        0.0259
     15 C         -16.0254    2.8081   19.6825 C.ar    1  UNL1        0.0537
     16 C         -15.5397    3.4164   20.9648 C.ar    1  UNL1        0.0068
     17 C         -16.4222    4.3573   21.7302 C.ar    1  UNL1        0.0298
     18 C         -17.7905    4.6899   21.2133 C.ar    1  UNL1        0.1401
     19 F         -18.6730    5.6309   21.9787 F       1  UNL1       -0.2042
     20 C         -18.2762    4.0817   19.9311 C.ar    1  UNL1        0.0298
     21 C         -17.3937    3.1408   19.1657 C.ar    1  UNL1        0.0068
     22 N         -17.7493   -9.1377   18.3273 N.am    1  UNL1       -0.1708
     23 C         -16.8737   -8.4800   19.3523 C.2     1  UNL1        0.3078
     24 O         -16.2454   -9.3004   20.4396 O.2     1  UNL1       -0.2516
     25 H         -18.1616   -8.5992   17.6137 H       1  UNL1        0.2545
     26 N         -16.9199  -11.5363   18.8829 N.pl3   1  UNL1       -0.1313
     27 C         -17.9965  -10.6159   18.3895 C.2     1  UNL1        0.3751
     28 N         -19.3205  -11.1736   17.9581 N.pl3   1  UNL1       -0.2906
     29 H         -17.0822  -12.5065   18.9237 H       1  UNL1        0.3060
     30 H         -19.4829  -12.1438   17.9989 H       1  UNL1        0.2545
     31 H         -20.0272  -10.5695   17.6342 H       1  UNL1        0.2545
     32 C         -13.6224   -4.4424   19.7089 C.3     1  UNL1        0.4183
     33 F         -12.2441   -3.9018   19.9494 F       1  UNL1       -0.1659
     34 F         -13.2344   -4.8079   18.3069 F       1  UNL1       -0.1659
     35 F         -14.0104   -4.0769   21.1110 F       1  UNL1       -0.1659
@<TRIPOS>BOND
     1    26    27    2
     2    27    28    1
     3    27    22    1
     4    22    23   am
     5    23    24    2
     6    23     1    1
     7     1     2   ar
     8     2     3   ar
     9     3     4   ar
    10     4     7    1
    11     7     8    1
    12     8     9    1
    13     9    10    1
    14    10    11   am
    15    11    12    2
    16    11    15    1
    17    15    16   ar
    18    16    17   ar
    19    17    18   ar
    20    18    19    1
    21    18    20   ar
    22    20    21   ar
    23    10    13    1
    24    13    14    1
    25     4     5   ar
    26     5    32    1
    27    32    33    1
    28    32    34    1
    29    32    35    1
    30     5     6   ar
    31     6     1   ar
    32    14     7    1
    33    21    15   ar
    34    26    29    1
    35    28    30    1
    36    28    31    1
    37    22    25    1
@<TRIPOS>MOLECULE
*****
 35 37 0 0 0
SMALL
GASTEIGER

@<TRIPOS>ATOM
      1 C          -1.3998    3.3503   26.6627 C.ar    1  UNL1        0.0696
      2 C          -0.2685    4.1834   27.1882 C.ar    1  UNL1        0.0057
      3 C           0.6143    3.6484   28.2765 C.ar    1  UNL1       -0.0041
      4 C           0.3660    2.2804   28.8392 C.ar    1  UNL1       -0.0185
      5 C          -0.7652    1.4473   28.3137 C.ar    1  UNL1        0.0677
      6 C          -1.6481    1.9823   27.2254 C.ar    1  UNL1        0.0095
      7 C           1.2489    1.7454   29.9275 C.3     1  UNL1        0.0257
      8 C           2.3406    0.7714   29.5968 C.3     1  UNL1        0.0259
      9 C           3.2235    0.2365   30.6850 C.3     1  UNL1        0.0940
     10 N           3.0146    0.6755   32.1040 N.am    1  UNL1       -0.2761
     11 C           3.8975    0.1405   33.1923 C.2     1  UNL1        0.2490
     12 O           3.6886    0.5795   34.6113 O.2     1  UNL1       -0.2699
     13 C           1.9228    1.6494   32.4348 C.3     1  UNL1        0.0940
     14 C           1.0400    2.1844   31.3465 C.3     1  UNL1        0.0259
     15 C           4.9892   -0.8335   32.8616 C.ar    1  UNL1        0.0537
     16 C           6.3766   -0.3376   32.5797 C.ar    1  UNL1        0.0068
     17 C           7.4684   -1.3116   32.2490 C.ar    1  UNL1        0.0298
     18 C           7.1728   -2.7814   32.2001 C.ar    1  UNL1        0.1401
     19 F           8.2647   -3.7554   31.8694 F       1  UNL1       -0.2042
     20 C           5.7856   -3.2772   32.4820 C.ar    1  UNL1        0.0298
     21 C           4.6937   -2.3033   32.8128 C.ar    1  UNL1        0.0068
     22 N          -3.7570    3.6108   25.6018 N.am    1  UNL1       -0.1708
     23 C          -2.2826    3.8853   25.5744 C.2     1  UNL1        0.3078
     24 O          -1.6911    4.6947   24.4587 O.2     1  UNL1       -0.2516
     25 H          -4.1453    3.0796   26.3341 H       1  UNL1        0.2545
     26 N          -5.4645    3.2048   23.6863 N.pl3   1  UNL1       -0.1313
     27 C          -4.6399    4.1458   24.5136 C.2     1  UNL1        0.3751
     28 N          -4.6981    5.6218   24.2526 N.pl3   1  UNL1       -0.2906
     29 H          -6.0440    3.5560   22.9720 H       1  UNL1        0.3060
     30 H          -5.2775    5.9730   23.5383 H       1  UNL1        0.2545
     31 H          -4.1568    6.2394   24.7956 H       1  UNL1        0.2545
     32 C          -1.0136    0.0791   28.8764 C.3     1  UNL1        0.4183
     33 F          -1.2620   -1.2889   29.4390 F       1  UNL1       -0.1659
     34 F          -1.9756    0.6619   29.8688 F       1  UNL1       -0.1659
     35 F          -0.0517   -0.5037   27.8839 F       1  UNL1       -0.1659
@<TRIPOS>BOND
     1    26    27    2
     2    27    28    1
     3    27    22    1
     4    22    23   am
     5    23    24    2
     6    23     1    1
     7     1     2   ar
     8     2     3   ar
     9     3     4   ar
    10     4     7    1
    11     7     8    1
    12     8     9    1
    13     9    10    1
    14    10    11   am
    15    11    12    2
    16    11    15    1
    17    15    16   ar
    18    16    17   ar
    19    17    18   ar
    20    18    19    1
    21    18    20   ar
    22    20    21   ar
    23    10    13    1
    24    13    14    1
    25     4     5   ar
    26     5    32    1
    27    32    33    1
    28    32    34    1
    29    32    35    1
    30     5     6   ar
    31     6     1   ar
    32    14     7    1
    33    21    15   ar
    34    26    29    1
    35    28    30    1
    36    28    31    1
    37    22    25    1
@<TRIPOS>MOLECULE
*****
 35 37 0 0 0
SMALL
GASTEIGER

@<TRIPOS>ATOM
      1 C          -3.8747    4.2425   25.7720 C.ar    1  UNL1        0.0696
      2 C          -3.4294    4.1802   24.3410 C.ar    1  UNL1        0.0057
      3 C          -2.0921    3.5946   23.9965 C.ar    1  UNL1       -0.0041
      4 C          -1.2001    3.0712   25.0830 C.ar    1  UNL1       -0.0185
      5 C          -1.6455    3.1335   26.5140 C.ar    1  UNL1        0.0677
      6 C          -2.9828    3.7191   26.8585 C.ar    1  UNL1        0.0095
      7 C           0.1372    2.4856   24.7385 C.3     1  UNL1        0.0257
      8 C           0.2185    1.1563   24.0484 C.3     1  UNL1        0.0259
      9 C           1.5558    0.5707   23.7039 C.3     1  UNL1        0.0940
     10 N           2.8118    1.3144   24.0495 N.am    1  UNL1       -0.2761
     11 C           4.1491    0.7288   23.7050 C.2     1  UNL1        0.2490
     12 O           5.4050    1.4725   24.0506 O.2     1  UNL1       -0.2699
     13 C           2.7304    2.6437   24.7396 C.3     1  UNL1        0.0940
     14 C           1.3931    3.2293   25.0841 C.3     1  UNL1        0.0259
     15 C           4.2304   -0.6005   23.0149 C.ar    1  UNL1        0.0537
     16 C           3.9626   -0.6987   21.5422 C.ar    1  UNL1        0.0068
     17 C           4.0440   -2.0280   20.8521 C.ar    1  UNL1        0.0298
     18 C           4.3932   -3.2591   21.6345 C.ar    1  UNL1        0.1401
     19 F           4.4745   -4.5885   20.9443 F       1  UNL1       -0.2042
     20 C           4.6610   -3.1610   23.1071 C.ar    1  UNL1        0.0298
     21 C           4.5796   -1.8317   23.7973 C.ar    1  UNL1        0.0068
     22 N          -5.4103    5.5232   27.4308 N.am    1  UNL1       -0.1708
     23 C          -5.2120    4.8281   26.1165 C.2     1  UNL1        0.3078
     24 O          -6.3511    4.7185   25.1467 O.2     1  UNL1       -0.2516
     25 H          -4.6627    5.5951   28.0673 H       1  UNL1        0.2545
     26 N          -7.4696    6.9672   26.7793 N.pl3   1  UNL1       -0.1313
     27 C          -6.7476    6.1088   27.7753 C.2     1  UNL1        0.3751
     28 N          -7.3630    5.8360   29.1159 N.pl3   1  UNL1       -0.2906
     29 H          -8.3473    7.3515   27.0055 H       1  UNL1        0.3060
     30 H          -8.2407    6.2204   29.3420 H       1  UNL1        0.2545
     31 H          -6.8891    5.2726   29.7695 H       1  UNL1        0.2545
     32 C          -0.7535    2.6101   27.6005 C.3     1  UNL1        0.4183
     33 F           0.1384    2.0867   28.6870 F       1  UNL1       -0.1659
     34 F          -0.1881    3.9852   27.7988 F       1  UNL1       -0.1659
     35 F          -1.3189    1.2350   27.4022 F       1  UNL1       -0.1659
@<TRIPOS>BOND
     1    26    27    2
     2    27    28    1
     3    27    22    1
     4    22    23   am
     5    23    24    2
     6    23     1    1
     7     1     2   ar
     8     2     3   ar
     9     3     4   ar
    10     4     7    1
    11     7     8    1
    12     8     9    1
    13     9    10    1
    14    10    11   am
    15    11    12    2
    16    11    15    1
    17    15    16   ar
    18    16    17   ar
    19    17    18   ar
    20    18    19    1
    21    18    20   ar
    22    20    21   ar
    23    10    13    1
    24    13    14    1
    25     4     5   ar
    26     5    32    1
    27    32    33    1
    28    32    34    1
    29    32    35    1
    30     5     6   ar
    31     6     1   ar
    32    14     7    1
    33    21    15   ar
    34    26    29    1
    35    28    30    1
    36    28    31    1
    37    22    25    1
