@<TRIPOS>MOLECULE
*****
 41 46 0 0 0
SMALL
GASTEIGER

@<TRIPOS>ATOM
      1 C           6.7945   -4.5266   30.8039 C.2     1  UNL1        0.2252
      2 O           6.8479   -5.9287   31.3343 O.2     1  UNL1       -0.2749
      3 N           6.7041   -4.2868   29.3260 N.am    1  UNL1       -0.2794
      4 C           6.6671   -5.4491   28.3785 C.3     1  UNL1        0.0953
      5 C           6.5766   -5.2093   26.9005 C.3     1  UNL1        0.0442
      6 C           6.5232   -3.8071   26.3701 C.3     1  UNL1        0.0933
      7 C           6.5602   -2.6450   27.3176 C.3     1  UNL1        0.0442
      8 C           6.6506   -2.8848   28.7956 C.3     1  UNL1        0.0953
      9 N           6.4328   -3.5673   24.8921 N.ar    1  UNL1       -0.2813
     10 C           5.4159   -2.7100   24.1986 C.ar    1  UNL1        0.3376
     11 O           4.3109   -1.9419   24.8613 O.2     1  UNL1       -0.2458
     12 N           5.6980   -2.7556   22.7261 N.ar    1  UNL1       -0.2278
     13 C           6.8893   -3.6411   22.5095 C.ar    1  UNL1        0.0891
     14 C           7.6191   -4.0553   21.2663 C.ar    1  UNL1        0.0488
     15 C           8.8031   -4.9713   21.3618 C.ar    1  UNL1        0.1417
     16 F           9.5330   -5.3857   20.1186 F       1  UNL1       -0.2041
     17 C           9.2572   -5.4730   22.7005 C.ar    1  UNL1        0.0312
     18 C           8.5273   -5.0587   23.9437 C.ar    1  UNL1        0.0211
     19 C           7.3434   -4.1427   23.8482 C.ar    1  UNL1        0.0802
     20 C           4.9247   -2.0411   21.6577 C.ar    1  UNL1        0.2404
     21 N           5.1665   -0.5823   21.4052 N.ar    1  UNL1       -0.2094
     22 C           4.3932    0.1322   20.3368 C.ar    1  UNL1        0.1037
     23 C           3.3781   -0.6121   19.5208 C.ar    1  UNL1        0.0415
     24 C           3.1364   -2.0708   19.7733 C.ar    1  UNL1        0.1037
     25 N           3.9097   -2.7852   20.8417 N.ar    1  UNL1       -0.2094
     26 N           6.9055   -1.0399   33.6465 N.3     1  UNL1       -0.2689
     27 C           5.5944   -1.6759   33.2905 C.3     1  UNL1        0.0729
     28 C           5.5574   -2.8382   32.3430 C.3     1  UNL1        0.0264
     29 C           6.8315   -3.3644   31.7515 C.3     1  UNL1        0.0795
     30 C           8.1425   -2.7284   32.1074 C.3     1  UNL1        0.0264
     31 C           8.1795   -1.5662   33.0550 C.3     1  UNL1        0.0729
     32 C           6.9425    0.1223   34.5940 C.3     1  UNL1        0.0993
     33 N           3.4862    0.6049   38.4438 N.pl3   1  UNL1       -0.3426
     34 C           3.9353    0.9378   37.0519 C.ar    1  UNL1        0.1251
     35 C           5.2144    0.3636   36.5189 C.ar    1  UNL1        0.0310
     36 C           5.6634    0.6966   35.1269 C.ar    1  UNL1       -0.0018
     37 C           4.8333    1.6039   34.2680 C.ar    1  UNL1        0.0179
     38 C           3.5542    2.1781   34.8010 C.ar    1  UNL1        0.1000
     39 N           3.1052    1.8451   36.1929 N.ar    1  UNL1       -0.2296
     40 H           4.0310    0.0094   39.0076 H       1  UNL1        0.1437
     41 H           2.6467    0.9818   38.7936 H       1  UNL1        0.1437
@<TRIPOS>BOND
     1    33    34    1
     2    34    35   ar
     3    35    36   ar
     4    36    32    1
     5    32    26    1
     6    26    27    1
     7    27    28    1
     8    28    29    1
     9    29     1    1
    10     1     2    2
    11     1     3   am
    12     3     4    1
    13     4     5    1
    14     5     6    1
    15     6     9    1
    16     9    10   ar
    17    10    11    2
    18    10    12   ar
    19    12    20    1
    20    20    21   ar
    21    21    22   ar
    22    22    23   ar
    23    23    24   ar
    24    24    25   ar
    25    12    13   ar
    26    13    14   ar
    27    14    15   ar
    28    15    16    1
    29    15    17   ar
    30    17    18   ar
    31    18    19   ar
    32     6     7    1
    33     7     8    1
    34    29    30    1
    35    30    31    1
    36    36    37   ar
    37    37    38   ar
    38    38    39   ar
    39    39    34   ar
    40    31    26    1
    41     8     3    1
    42    19     9   ar
    43    25    20   ar
    44    19    13   ar
    45    33    40    1
    46    33    41    1
@<TRIPOS>MOLECULE
*****
 41 46 0 0 0
SMALL
GASTEIGER

@<TRIPOS>ATOM
      1 C           7.7187   -2.4419   19.8758 C.2     1  UNL1        0.2252
      2 O           8.9109   -2.6269   18.9845 O.2     1  UNL1       -0.2749
      3 N           7.7681   -2.9082   21.3006 N.am    1  UNL1       -0.2794
      4 C           9.0095   -3.5595   21.8341 C.3     1  UNL1        0.0953
      5 C           9.0589   -4.0258   23.2589 C.3     1  UNL1        0.0442
      6 C           7.8667   -3.8408   24.1503 C.3     1  UNL1        0.0933
      7 C           6.6253   -3.1895   23.6169 C.3     1  UNL1        0.0442
      8 C           6.5760   -2.7232   22.1920 C.3     1  UNL1        0.0953
      9 N           7.9160   -4.3071   25.5752 N.ar    1  UNL1       -0.2813
     10 C           7.7801   -3.4403   26.7918 C.ar    1  UNL1        0.3376
     11 O           7.5710   -1.9550   26.7972 O.2     1  UNL1       -0.2458
     12 N           7.8900   -4.3196   28.0020 N.ar    1  UNL1       -0.2278
     13 C           8.0939   -5.7299   27.5334 C.ar    1  UNL1        0.0891
     14 C           8.2669   -7.0201   28.2786 C.ar    1  UNL1        0.0488
     15 C           8.4561   -8.3025   27.5240 C.ar    1  UNL1        0.1417
     16 F           8.6291   -9.5928   28.2693 F       1  UNL1       -0.2041
     17 C           8.4721   -8.2948   26.0241 C.ar    1  UNL1        0.0312
     18 C           8.2991   -7.0046   25.2788 C.ar    1  UNL1        0.0211
     19 C           8.1099   -5.7222   26.0335 C.ar    1  UNL1        0.0802
     20 C           7.8101   -3.8680   29.4302 C.ar    1  UNL1        0.2404
     21 N           9.0416   -3.8680   30.2868 N.ar    1  UNL1       -0.2094
     22 C           8.9617   -3.4163   31.7150 C.ar    1  UNL1        0.1037
     23 C           7.6504   -2.9648   32.2865 C.ar    1  UNL1        0.0415
     24 C           6.4191   -2.9648   31.4300 C.ar    1  UNL1        0.1037
     25 N           6.4990   -3.4165   30.0018 N.ar    1  UNL1       -0.2094
     26 N           3.9944   -0.4879   18.2755 N.3     1  UNL1       -0.2689
     27 C           4.1963   -1.9652   18.1109 C.3     1  UNL1        0.0729
     28 C           5.4378   -2.6165   18.6443 C.3     1  UNL1        0.0264
     29 C           6.4773   -1.7905   19.3424 C.3     1  UNL1        0.0795
     30 C           6.2754   -0.3134   19.5070 C.3     1  UNL1        0.0264
     31 C           5.0340    0.3380   18.9736 C.3     1  UNL1        0.0729
     32 C           2.7529    0.1634   17.7421 C.3     1  UNL1        0.0993
     33 N          -0.7251    3.7420   19.1903 N.pl3   1  UNL1       -0.3426
     34 C          -0.0537    2.4188   19.4110 C.ar    1  UNL1        0.1251
     35 C           1.0140    1.9527   18.4662 C.ar    1  UNL1        0.0310
     36 C           1.6853    0.6295   18.6869 C.ar    1  UNL1       -0.0018
     37 C           1.2888   -0.2274   19.8525 C.ar    1  UNL1        0.0179
     38 C           0.2211    0.2388   20.7973 C.ar    1  UNL1        0.1000
     39 N          -0.4502    1.5619   20.5765 N.ar    1  UNL1       -0.2296
     40 H          -0.4650    4.3045   18.4253 H       1  UNL1        0.1437
     41 H          -1.4259    4.0479   19.8105 H       1  UNL1        0.1437
@<TRIPOS>BOND
     1    33    34    1
     2    34    35   ar
     3    35    36   ar
     4    36    32    1
     5    32    26    1
     6    26    27    1
     7    27    28    1
     8    28    29    1
     9    29     1    1
    10     1     2    2
    11     1     3   am
    12     3     4    1
    13     4     5    1
    14     5     6    1
    15     6     9    1
    16     9    10   ar
    17    10    11    2
    18    10    12   ar
    19    12    20    1
    20    20    21   ar
    21    21    22   ar
    22    22    23   ar
    23    23    24   ar
    24    24    25   ar
    25    12    13   ar
    26    13    14   ar
    27    14    15   ar
    28    15    16    1
    29    15    17   ar
    30    17    18   ar
    31    18    19   ar
    32     6     7    1
    33     7     8    1
    34    29    30    1
    35    30    31    1
    36    36    37   ar
    37    37    38   ar
    38    38    39   ar
    39    39    34   ar
    40    31    26    1
    41     8     3    1
    42    19     9   ar
    43    25    20   ar
    44    19    13   ar
    45    33    40    1
    46    33    41    1
@<TRIPOS>MOLECULE
*****
 41 46 0 0 0
SMALL
GASTEIGER

@<TRIPOS>ATOM
      1 C           1.1754    1.3684   28.7155 C.2     1  UNL1        0.2252
      2 O          -0.0925    2.0477   29.1409 O.2     1  UNL1       -0.2749
      3 N           1.4236    1.0850   27.2636 N.am    1  UNL1       -0.2794
      4 C           0.4040    1.4809   26.2371 C.3     1  UNL1        0.0953
      5 C           0.6522    1.1975   24.7852 C.3     1  UNL1        0.0442
      6 C           1.9202    0.5181   24.3597 C.3     1  UNL1        0.0933
      7 C           2.9397    0.1223   25.3862 C.3     1  UNL1        0.0442
      8 C           2.6915    0.4057   26.8381 C.3     1  UNL1        0.0953
      9 N           2.1684    0.2347   22.9078 N.ar    1  UNL1       -0.2813
     10 C           3.1285   -0.7787   22.3589 C.ar    1  UNL1        0.3376
     11 O           4.0088   -1.6866   23.1655 O.2     1  UNL1       -0.2458
     12 N           3.0535   -0.7247   20.8618 N.ar    1  UNL1       -0.2278
     13 C           2.0472    0.3220   20.4854 C.ar    1  UNL1        0.0891
     14 C           1.5583    0.8118   19.1546 C.ar    1  UNL1        0.0488
     15 C           0.5224    1.8946   19.0884 C.ar    1  UNL1        0.1417
     16 F           0.0335    2.3844   17.7575 F       1  UNL1       -0.2041
     17 C          -0.0246    2.4875   20.3529 C.ar    1  UNL1        0.0312
     18 C           0.4643    1.9978   21.6837 C.ar    1  UNL1        0.0211
     19 C           1.5002    0.9150   21.7500 C.ar    1  UNL1        0.0802
     20 C           3.8459   -1.5693   19.9083 C.ar    1  UNL1        0.2404
     21 N           3.6222   -3.0516   19.8555 N.ar    1  UNL1       -0.2094
     22 C           4.4145   -3.8961   18.9020 C.ar    1  UNL1        0.1037
     23 C           5.4304   -3.2584   18.0014 C.ar    1  UNL1        0.0415
     24 C           5.6541   -1.7761   18.0543 C.ar    1  UNL1        0.1037
     25 N           4.8618   -0.9316   19.0078 N.ar    1  UNL1       -0.2094
     26 N           4.2343    0.1807   31.7949 N.3     1  UNL1       -0.2689
     27 C           4.2493    1.5653   31.2179 C.3     1  UNL1        0.0729
     28 C           3.2297    1.9612   30.1915 C.3     1  UNL1        0.0264
     29 C           2.1950    0.9725   29.7420 C.3     1  UNL1        0.0795
     30 C           2.1800   -0.4120   30.3189 C.3     1  UNL1        0.0264
     31 C           3.1996   -0.8079   31.3453 C.3     1  UNL1        0.0729
     32 C           5.2539   -0.2152   32.8213 C.3     1  UNL1        0.0993
     33 N           6.4259   -5.2566   32.3624 N.pl3   1  UNL1       -0.3426
     34 C           6.8345   -3.8154   32.2835 C.ar    1  UNL1        0.1251
     35 C           5.8399   -2.7358   32.5919 C.ar    1  UNL1        0.0310
     36 C           6.2486   -1.2947   32.5130 C.ar    1  UNL1       -0.0018
     37 C           7.6519   -0.9332   32.1257 C.ar    1  UNL1        0.0179
     38 C           8.6465   -2.0128   31.8173 C.ar    1  UNL1        0.1000
     39 N           8.2378   -3.4539   31.8963 N.ar    1  UNL1       -0.2296
     40 H           5.5048   -5.4939   32.6166 H       1  UNL1        0.1437
     41 H           7.0787   -5.9651   32.1600 H       1  UNL1        0.1437
@<TRIPOS>BOND
     1    33    34    1
     2    34    35   ar
     3    35    36   ar
     4    36    32    1
     5    32    26    1
     6    26    27    1
     7    27    28    1
     8    28    29    1
     9    29     1    1
    10     1     2    2
    11     1     3   am
    12     3     4    1
    13     4     5    1
    14     5     6    1
    15     6     9    1
    16     9    10   ar
    17    10    11    2
    18    10    12   ar
    19    12    20    1
    20    20    21   ar
    21    21    22   ar
    22    22    23   ar
    23    23    24   ar
    24    24    25   ar
    25    12    13   ar
    26    13    14   ar
    27    14    15   ar
    28    15    16    1
    29    15    17   ar
    30    17    18   ar
    31    18    19   ar
    32     6     7    1
    33     7     8    1
    34    29    30    1
    35    30    31    1
    36    36    37   ar
    37    37    38   ar
    38    38    39   ar
    39    39    34   ar
    40    31    26    1
    41     8     3    1
    42    19     9   ar
    43    25    20   ar
    44    19    13   ar
    45    33    40    1
    46    33    41    1
@<TRIPOS>MOLECULE
*****
 41 46 0 0 0
SMALL
GASTEIGER

@<TRIPOS>ATOM
      1 C           0.0448    2.1099   22.7964 C.2     1  UNL1        0.2252
      2 O          -1.2558    2.8348   22.6154 O.2     1  UNL1       -0.2749
      3 N           0.5440    1.7983   24.1761 N.am    1  UNL1       -0.2794
      4 C          -0.2575    2.2117   25.3748 C.3     1  UNL1        0.0953
      5 C           0.2417    1.9001   26.7546 C.3     1  UNL1        0.0442
      6 C           1.5424    1.1752   26.9357 C.3     1  UNL1        0.0933
      7 C           2.3438    0.7619   25.7370 C.3     1  UNL1        0.0442
      8 C           1.8446    1.0734   24.3572 C.3     1  UNL1        0.0953
      9 N           2.0416    0.8636   28.3154 N.ar    1  UNL1       -0.2813
     10 C           2.9660   -0.2580   28.6862 C.ar    1  UNL1        0.3376
     11 O           3.5535   -1.2650   27.7424 O.2     1  UNL1       -0.2458
     12 N           3.1997   -0.1958   30.1666 N.ar    1  UNL1       -0.2278
     13 C           2.4198    0.9642   30.7107 C.ar    1  UNL1        0.0891
     14 C           2.2689    1.5089   32.1001 C.ar    1  UNL1        0.0488
     15 C           1.4022    2.7083   32.3454 C.ar    1  UNL1        0.1417
     16 F           1.2513    3.2531   33.7349 F       1  UNL1       -0.2041
     17 C           0.6865    3.3631   31.2013 C.ar    1  UNL1        0.0312
     18 C           0.8374    2.8184   29.8119 C.ar    1  UNL1        0.0211
     19 C           1.7040    1.6190   29.5666 C.ar    1  UNL1        0.0802
     20 C           4.0619   -1.1297   30.9631 C.ar    1  UNL1        0.2404
     21 N           5.4000   -1.5517   30.4323 N.ar    1  UNL1       -0.2094
     22 C           6.2623   -2.4856   31.2287 C.ar    1  UNL1        0.1037
     23 C           5.7865   -2.9975   32.5560 C.ar    1  UNL1        0.0415
     24 C           4.4486   -2.5755   33.0868 C.ar    1  UNL1        0.1037
     25 N           3.5863   -1.6416   32.2903 N.ar    1  UNL1       -0.2094
     26 N           2.4492    0.8699   19.2004 N.3     1  UNL1       -0.2689
     27 C           2.7891    2.1359   19.9297 C.3     1  UNL1        0.0729
     28 C           1.9876    2.5492   21.1283 C.3     1  UNL1        0.0264
     29 C           0.8462    1.6965   21.5977 C.3     1  UNL1        0.0795
     30 C           0.5063    0.4306   20.8685 C.3     1  UNL1        0.0264
     31 C           1.3078    0.0172   19.6698 C.3     1  UNL1        0.0729
     32 C           3.2506    0.4565   18.0017 C.3     1  UNL1        0.0993
     33 N           4.6509   -4.5243   18.4822 N.pl3   1  UNL1       -0.3426
     34 C           5.0222   -3.0746   18.3787 C.ar    1  UNL1        0.1251
     35 C           3.9507   -2.0338   18.2420 C.ar    1  UNL1        0.0310
     36 C           4.3221   -0.5842   18.1384 C.ar    1  UNL1       -0.0018
     37 C           5.7649   -0.1754   18.1716 C.ar    1  UNL1        0.0179
     38 C           6.8364   -1.2162   18.3083 C.ar    1  UNL1        0.1000
     39 N           6.4650   -2.6658   18.4119 N.ar    1  UNL1       -0.2296
     40 H           3.7039   -4.7926   18.4604 H       1  UNL1        0.1437
     41 H           5.3542   -5.2073   18.5720 H       1  UNL1        0.1437
@<TRIPOS>BOND
     1    33    34    1
     2    34    35   ar
     3    35    36   ar
     4    36    32    1
     5    32    26    1
     6    26    27    1
     7    27    28    1
     8    28    29    1
     9    29     1    1
    10     1     2    2
    11     1     3   am
    12     3     4    1
    13     4     5    1
    14     5     6    1
    15     6     9    1
    16     9    10   ar
    17    10    11    2
    18    10    12   ar
    19    12    20    1
    20    20    21   ar
    21    21    22   ar
    22    22    23   ar
    23    23    24   ar
    24    24    25   ar
    25    12    13   ar
    26    13    14   ar
    27    14    15   ar
    28    15    16    1
    29    15    17   ar
    30    17    18   ar
    31    18    19   ar
    32     6     7    1
    33     7     8    1
    34    29    30    1
    35    30    31    1
    36    36    37   ar
    37    37    38   ar
    38    38    39   ar
    39    39    34   ar
    40    31    26    1
    41     8     3    1
    42    19     9   ar
    43    25    20   ar
    44    19    13   ar
    45    33    40    1
    46    33    41    1
@<TRIPOS>MOLECULE
*****
 41 46 0 0 0
SMALL
GASTEIGER

@<TRIPOS>ATOM
      1 C           3.2404   -0.2655   30.5894 C.2     1  UNL1        0.2252
      2 O           1.8304    0.2362   30.4883 O.2     1  UNL1       -0.2749
      3 N           3.9178   -0.8467   29.3838 N.am    1  UNL1       -0.2794
      4 C           3.1853   -0.9261   28.0773 C.3     1  UNL1        0.0953
      5 C           3.8627   -1.5073   26.8718 C.3     1  UNL1        0.0442
      6 C           5.2728   -2.0091   26.9728 C.3     1  UNL1        0.0933
      7 C           6.0052   -1.9296   28.2793 C.3     1  UNL1        0.0442
      8 C           5.3278   -1.3484   29.4848 C.3     1  UNL1        0.0953
      9 N           5.9502   -2.5903   25.7672 N.ar    1  UNL1       -0.2813
     10 C           6.1568   -1.8981   24.4526 C.ar    1  UNL1        0.3376
     11 O           5.7222   -0.5033   24.1127 O.2     1  UNL1       -0.2458
     12 N           6.8742   -2.8457   23.5376 N.ar    1  UNL1       -0.2278
     13 C           7.1111   -4.1235   24.2867 C.ar    1  UNL1        0.0891
     14 C           7.7730   -5.4104   23.8921 C.ar    1  UNL1        0.0488
     15 C           7.8638   -6.5394   24.8755 C.ar    1  UNL1        0.1417
     16 F           8.5258   -7.8264   24.4809 F       1  UNL1       -0.2041
     17 C           7.2927   -6.3815   26.2535 C.ar    1  UNL1        0.0312
     18 C           6.6308   -5.0946   26.6481 C.ar    1  UNL1        0.0211
     19 C           6.5400   -3.9656   25.6647 C.ar    1  UNL1        0.0802
     20 C           7.2831   -2.5649   22.1220 C.ar    1  UNL1        0.2404
     21 N           8.7356   -2.5625   21.7472 N.ar    1  UNL1       -0.2094
     22 C           9.1444   -2.2816   20.3316 C.ar    1  UNL1        0.1037
     23 C           8.1009   -2.0033   19.2907 C.ar    1  UNL1        0.0415
     24 C           6.6485   -2.0057   19.6655 C.ar    1  UNL1        0.1037
     25 N           6.2396   -2.2866   21.0811 N.ar    1  UNL1       -0.2094
     26 N           5.4380   -0.0272   34.5090 N.3     1  UNL1       -0.2689
     27 C           4.7595   -1.3029   34.1059 C.3     1  UNL1        0.0729
     28 C           4.0270   -1.3823   32.7993 C.3     1  UNL1        0.0264
     29 C           3.9729   -0.1861   31.8959 C.3     1  UNL1        0.0795
     30 C           4.6514    1.0896   32.2990 C.3     1  UNL1        0.0264
     31 C           5.3839    1.1690   33.6055 C.3     1  UNL1        0.0729
     32 C           6.1705    0.0523   35.8155 C.3     1  UNL1        0.0993
     33 N           2.0538    0.9702   38.8503 N.pl3   1  UNL1       -0.3426
     34 C           3.4906    1.2204   38.4994 C.ar    1  UNL1        0.1251
     35 C           4.1122    0.5112   37.3329 C.ar    1  UNL1        0.0310
     36 C           5.5490    0.7615   36.9820 C.ar    1  UNL1       -0.0018
     37 C           6.3641    1.7209   37.7975 C.ar    1  UNL1        0.0179
     38 C           5.7425    2.4300   38.9640 C.ar    1  UNL1        0.1000
     39 N           4.3057    2.1798   39.3149 N.ar    1  UNL1       -0.2296
     40 H           1.5188    0.3405   38.3151 H       1  UNL1        0.1437
     41 H           1.6459    1.4357   39.6160 H       1  UNL1        0.1437
@<TRIPOS>BOND
     1    33    34    1
     2    34    35   ar
     3    35    36   ar
     4    36    32    1
     5    32    26    1
     6    26    27    1
     7    27    28    1
     8    28    29    1
     9    29     1    1
    10     1     2    2
    11     1     3   am
    12     3     4    1
    13     4     5    1
    14     5     6    1
    15     6     9    1
    16     9    10   ar
    17    10    11    2
    18    10    12   ar
    19    12    20    1
    20    20    21   ar
    21    21    22   ar
    22    22    23   ar
    23    23    24   ar
    24    24    25   ar
    25    12    13   ar
    26    13    14   ar
    27    14    15   ar
    28    15    16    1
    29    15    17   ar
    30    17    18   ar
    31    18    19   ar
    32     6     7    1
    33     7     8    1
    34    29    30    1
    35    30    31    1
    36    36    37   ar
    37    37    38   ar
    38    38    39   ar
    39    39    34   ar
    40    31    26    1
    41     8     3    1
    42    19     9   ar
    43    25    20   ar
    44    19    13   ar
    45    33    40    1
    46    33    41    1
@<TRIPOS>MOLECULE
*****
 41 46 0 0 0
SMALL
GASTEIGER

@<TRIPOS>ATOM
      1 C          -3.6904    4.9681   18.7260 C.2     1  UNL1        0.2252
      2 O          -4.0572    5.5544   17.3950 O.2     1  UNL1       -0.2749
      3 N          -2.4288    4.1700   18.8720 N.am    1  UNL1       -0.2794
      4 C          -1.5340    3.9582   17.6869 C.3     1  UNL1        0.0953
      5 C          -0.2723    3.1601   17.8329 C.3     1  UNL1        0.0442
      6 C           0.0945    2.5737   19.1640 C.3     1  UNL1        0.0933
      7 C          -0.8003    2.7856   20.3490 C.3     1  UNL1        0.0442
      8 C          -2.0620    3.5837   20.2030 C.3     1  UNL1        0.0953
      9 N           1.3561    1.7756   19.3100 N.ar    1  UNL1       -0.2813
     10 C           1.4717    0.4147   19.9301 C.ar    1  UNL1        0.3376
     11 O           0.3460   -0.3871   20.5131 O.2     1  UNL1       -0.2458
     12 N           2.9107   -0.0036   19.8648 N.ar    1  UNL1       -0.2278
     13 C           3.6845    1.0987   19.2044 C.ar    1  UNL1        0.0891
     14 C           5.1398    1.2432   18.8710 C.ar    1  UNL1        0.0488
     15 C           5.6342    2.4874   18.1947 C.ar    1  UNL1        0.1417
     16 F           7.0896    2.6320   17.8612 F       1  UNL1       -0.2041
     17 C           4.6734    3.5871   17.8518 C.ar    1  UNL1        0.0312
     18 C           3.2181    3.4426   18.1852 C.ar    1  UNL1        0.0211
     19 C           2.7237    2.1984   18.8615 C.ar    1  UNL1        0.0802
     20 C           3.4767   -1.2972   20.3711 C.ar    1  UNL1        0.2404
     21 N           3.7803   -2.4096   19.4115 N.ar    1  UNL1       -0.2094
     22 C           4.3463   -3.7032   19.9178 C.ar    1  UNL1        0.1037
     23 C           4.6086   -3.8845   21.3835 C.ar    1  UNL1        0.0415
     24 C           4.3049   -2.7722   22.3429 C.ar    1  UNL1        0.1037
     25 N           3.7390   -1.4786   21.8367 N.ar    1  UNL1       -0.2094
     26 N          -6.3749    5.6035   22.2812 N.3     1  UNL1       -0.2689
     27 C          -6.4858    4.3446   21.4731 C.3     1  UNL1        0.0729
     28 C          -5.5910    4.1328   20.2881 C.3     1  UNL1        0.0264
     29 C          -4.5853    5.1799   19.9111 C.3     1  UNL1        0.0795
     30 C          -4.4744    6.4388   20.7191 C.3     1  UNL1        0.0264
     31 C          -5.3692    6.6506   21.9042 C.3     1  UNL1        0.0729
     32 C          -7.2698    5.8153   23.4663 C.3     1  UNL1        0.0993
     33 N          -3.7872    3.8182   26.7653 N.pl3   1  UNL1       -0.3426
     34 C          -4.9748    4.6967   26.5046 C.ar    1  UNL1        0.1251
     35 C          -5.5286    4.8168   25.1158 C.ar    1  UNL1        0.0310
     36 C          -6.7161    5.6953   24.8552 C.ar    1  UNL1       -0.0018
     37 C          -7.3500    6.4538   25.9834 C.ar    1  UNL1        0.0179
     38 C          -6.7962    6.3337   27.3723 C.ar    1  UNL1        0.1000
     39 N          -5.6087    5.4552   27.6329 N.ar    1  UNL1       -0.2296
     40 H          -3.3712    3.3204   26.0248 H       1  UNL1        0.1437
     41 H          -3.4239    3.7395   27.6769 H       1  UNL1        0.1437
@<TRIPOS>BOND
     1    33    34    1
     2    34    35   ar
     3    35    36   ar
     4    36    32    1
     5    32    26    1
     6    26    27    1
     7    27    28    1
     8    28    29    1
     9    29     1    1
    10     1     2    2
    11     1     3   am
    12     3     4    1
    13     4     5    1
    14     5     6    1
    15     6     9    1
    16     9    10   ar
    17    10    11    2
    18    10    12   ar
    19    12    20    1
    20    20    21   ar
    21    21    22   ar
    22    22    23   ar
    23    23    24   ar
    24    24    25   ar
    25    12    13   ar
    26    13    14   ar
    27    14    15   ar
    28    15    16    1
    29    15    17   ar
    30    17    18   ar
    31    18    19   ar
    32     6     7    1
    33     7     8    1
    34    29    30    1
    35    30    31    1
    36    36    37   ar
    37    37    38   ar
    38    38    39   ar
    39    39    34   ar
    40    31    26    1
    41     8     3    1
    42    19     9   ar
    43    25    20   ar
    44    19    13   ar
    45    33    40    1
    46    33    41    1
@<TRIPOS>MOLECULE
*****
 41 46 0 0 0
SMALL
GASTEIGER

@<TRIPOS>ATOM
      1 C           5.3487   -2.2054   20.2394 C.2     1  UNL1        0.2252
      2 O           6.1494   -2.6391   19.0474 O.2     1  UNL1       -0.2749
      3 N           5.7338   -2.6728   21.6117 N.am    1  UNL1       -0.2794
      4 C           6.9194   -3.5738   21.7920 C.3     1  UNL1        0.0953
      5 C           7.3044   -4.0411   23.1644 C.3     1  UNL1        0.0442
      6 C           6.5038   -3.6075   24.3565 C.3     1  UNL1        0.0933
      7 C           5.3182   -2.7065   24.1761 C.3     1  UNL1        0.0442
      8 C           4.9332   -2.2392   22.8038 C.3     1  UNL1        0.0953
      9 N           6.8888   -4.0748   25.7289 N.ar    1  UNL1       -0.2813
     10 C           6.8985   -3.2391   26.9744 C.ar    1  UNL1        0.3376
     11 O           6.5250   -1.7893   27.0664 O.2     1  UNL1       -0.2458
     12 N           7.3474   -4.1078   28.1119 N.ar    1  UNL1       -0.2278
     13 C           7.6151   -5.4804   27.5694 C.ar    1  UNL1        0.0891
     14 C           8.0804   -6.7461   28.2261 C.ar    1  UNL1        0.0488
     15 C           8.2621   -7.9915   27.4101 C.ar    1  UNL1        0.1417
     16 F           8.7274   -9.2573   28.0669 F       1  UNL1       -0.2041
     17 C           7.9787   -7.9711   25.9373 C.ar    1  UNL1        0.0312
     18 C           7.5134   -6.7054   25.2805 C.ar    1  UNL1        0.0211
     19 C           7.3317   -5.4600   26.0965 C.ar    1  UNL1        0.0802
     20 C           7.5016   -3.6791   29.5411 C.ar    1  UNL1        0.2404
     21 N           8.5464   -2.6689   29.9126 N.ar    1  UNL1       -0.2094
     22 C           8.7006   -2.2403   31.3418 C.ar    1  UNL1        0.1037
     23 C           7.8100   -2.8218   32.3994 C.ar    1  UNL1        0.0415
     24 C           6.7652   -3.8320   32.0279 C.ar    1  UNL1        0.1037
     25 N           6.6111   -4.2606   30.5987 N.ar    1  UNL1       -0.2094
     26 N           1.7919    0.4975   19.6985 N.3     1  UNL1       -0.2689
     27 C           3.1785    1.0693   19.6775 C.3     1  UNL1        0.0729
     28 C           4.3641    0.1684   19.8578 C.3     1  UNL1        0.0264
     29 C           4.1631   -1.3045   20.0591 C.3     1  UNL1        0.0795
     30 C           2.7766   -1.8763   20.0800 C.3     1  UNL1        0.0264
     31 C           1.5909   -0.9753   19.8997 C.3     1  UNL1        0.0729
     32 C           0.6062    1.3984   19.5182 C.3     1  UNL1        0.0993
     33 N           0.5280    2.3229   24.6308 N.pl3   1  UNL1       -0.3426
     34 C          -0.0634    2.5180   23.2662 C.ar    1  UNL1        0.1251
     35 C           0.5671    1.8607   22.0744 C.ar    1  UNL1        0.0310
     36 C          -0.0243    2.0559   20.7098 C.ar    1  UNL1       -0.0018
     37 C          -1.2463    2.9084   20.5370 C.ar    1  UNL1        0.0179
     38 C          -1.8768    3.5658   21.7288 C.ar    1  UNL1        0.1000
     39 N          -1.2854    3.3706   23.0933 N.ar    1  UNL1       -0.2296
     40 H           1.3300    1.7633   24.7443 H       1  UNL1        0.1437
     41 H           0.1141    2.7544   25.4130 H       1  UNL1        0.1437
@<TRIPOS>BOND
     1    33    34    1
     2    34    35   ar
     3    35    36   ar
     4    36    32    1
     5    32    26    1
     6    26    27    1
     7    27    28    1
     8    28    29    1
     9    29     1    1
    10     1     2    2
    11     1     3   am
    12     3     4    1
    13     4     5    1
    14     5     6    1
    15     6     9    1
    16     9    10   ar
    17    10    11    2
    18    10    12   ar
    19    12    20    1
    20    20    21   ar
    21    21    22   ar
    22    22    23   ar
    23    23    24   ar
    24    24    25   ar
    25    12    13   ar
    26    13    14   ar
    27    14    15   ar
    28    15    16    1
    29    15    17   ar
    30    17    18   ar
    31    18    19   ar
    32     6     7    1
    33     7     8    1
    34    29    30    1
    35    30    31    1
    36    36    37   ar
    37    37    38   ar
    38    38    39   ar
    39    39    34   ar
    40    31    26    1
    41     8     3    1
    42    19     9   ar
    43    25    20   ar
    44    19    13   ar
    45    33    40    1
    46    33    41    1
@<TRIPOS>MOLECULE
*****
 41 46 0 0 0
SMALL
GASTEIGER

@<TRIPOS>ATOM
      1 C           1.2619    1.2381   30.0658 C.2     1  UNL1        0.2252
      2 O           0.1243    1.6276   30.9625 O.2     1  UNL1       -0.2749
      3 N           1.1037    1.3171   28.5763 N.am    1  UNL1       -0.2794
      4 C          -0.1921    1.7857   27.9835 C.3     1  UNL1        0.0953
      5 C          -0.3503    1.8647   26.4939 C.3     1  UNL1        0.0442
      6 C           0.7874    1.4752   25.5971 C.3     1  UNL1        0.0933
      7 C           2.0831    1.0066   26.1900 C.3     1  UNL1        0.0442
      8 C           2.2413    0.9276   27.6795 C.3     1  UNL1        0.0953
      9 N           0.6292    1.5542   24.1076 N.ar    1  UNL1       -0.2813
     10 C          -0.3009    2.4688   23.3670 C.ar    1  UNL1        0.3376
     11 O          -1.2361    3.4650   23.9860 O.2     1  UNL1       -0.2458
     12 N          -0.1316    2.2123   21.8989 N.ar    1  UNL1       -0.2278
     13 C           0.9031    1.1392   21.7320 C.ar    1  UNL1        0.0891
     14 C           1.4779    0.4799   20.5135 C.ar    1  UNL1        0.0488
     15 C           2.5228   -0.5862   20.6600 C.ar    1  UNL1        0.1417
     16 F           3.0976   -1.2455   19.4414 F       1  UNL1       -0.2041
     17 C           2.9930   -0.9929   22.0251 C.ar    1  UNL1        0.0312
     18 C           2.4182   -0.3336   23.2437 C.ar    1  UNL1        0.0211
     19 C           1.3733    0.7325   23.0971 C.ar    1  UNL1        0.0802
     20 C          -0.8677    2.9070   20.7918 C.ar    1  UNL1        0.2404
     21 N          -2.3674    2.8888   20.7614 N.ar    1  UNL1       -0.2094
     22 C          -3.1036    3.5835   19.6543 C.ar    1  UNL1        0.1037
     23 C          -2.3401    4.2964   18.5778 C.ar    1  UNL1        0.0415
     24 C          -0.8406    4.3145   18.6082 C.ar    1  UNL1        0.1037
     25 N          -0.1044    3.6199   19.7153 N.ar    1  UNL1       -0.2094
     26 N           5.1492   -0.1676   31.8442 N.3     1  UNL1       -0.2689
     27 C           4.9376    1.2903   31.5613 C.3     1  UNL1        0.0729
     28 C           3.6418    1.7588   30.9685 C.3     1  UNL1        0.0264
     29 C           2.5577    0.7695   30.6586 C.3     1  UNL1        0.0795
     30 C           2.7693   -0.6883   30.9414 C.3     1  UNL1        0.0264
     31 C           4.0651   -1.1568   31.5342 C.3     1  UNL1        0.0729
     32 C           6.4450   -0.6362   32.4369 C.3     1  UNL1        0.0993
     33 N           6.6083   -5.8251   32.2158 N.pl3   1  UNL1       -0.3426
     34 C           7.1690   -4.4898   31.8248 C.ar    1  UNL1        0.1251
     35 C           6.5266   -3.2305   32.3264 C.ar    1  UNL1        0.0310
     36 C           7.0874   -1.8954   31.9353 C.ar    1  UNL1       -0.0018
     37 C           8.2905   -1.8195   31.0427 C.ar    1  UNL1        0.0179
     38 C           8.9328   -3.0788   30.5411 C.ar    1  UNL1        0.1000
     39 N           8.3721   -4.4140   30.9322 N.ar    1  UNL1       -0.2296
     40 H           5.8186   -5.8749   32.8016 H       1  UNL1        0.1437
     41 H           7.0299   -6.6515   31.8866 H       1  UNL1        0.1437
@<TRIPOS>BOND
     1    33    34    1
     2    34    35   ar
     3    35    36   ar
     4    36    32    1
     5    32    26    1
     6    26    27    1
     7    27    28    1
     8    28    29    1
     9    29     1    1
    10     1     2    2
    11     1     3   am
    12     3     4    1
    13     4     5    1
    14     5     6    1
    15     6     9    1
    16     9    10   ar
    17    10    11    2
    18    10    12   ar
    19    12    20    1
    20    20    21   ar
    21    21    22   ar
    22    22    23   ar
    23    23    24   ar
    24    24    25   ar
    25    12    13   ar
    26    13    14   ar
    27    14    15   ar
    28    15    16    1
    29    15    17   ar
    30    17    18   ar
    31    18    19   ar
    32     6     7    1
    33     7     8    1
    34    29    30    1
    35    30    31    1
    36    36    37   ar
    37    37    38   ar
    38    38    39   ar
    39    39    34   ar
    40    31    26    1
    41     8     3    1
    42    19     9   ar
    43    25    20   ar
    44    19    13   ar
    45    33    40    1
    46    33    41    1
@<TRIPOS>MOLECULE
*****
 41 46 0 0 0
SMALL
GASTEIGER

@<TRIPOS>ATOM
      1 C           7.1203   -4.3795   21.5610 C.2     1  UNL1        0.2252
      2 O           8.0348   -5.3642   20.8947 O.2     1  UNL1       -0.2749
      3 N           7.0970   -4.2709   23.0569 N.am    1  UNL1       -0.2794
      4 C           7.9882   -5.1471   23.8864 C.3     1  UNL1        0.0953
      5 C           7.9649   -5.0385   25.3823 C.3     1  UNL1        0.0442
      6 C           7.0504   -4.0537   26.0487 C.3     1  UNL1        0.0933
      7 C           6.1593   -3.1776   25.2191 C.3     1  UNL1        0.0442
      8 C           6.1826   -3.2861   23.7232 C.3     1  UNL1        0.0953
      9 N           7.0271   -3.9451   27.5446 N.ar    1  UNL1       -0.2813
     10 C           6.4075   -2.8334   28.3383 C.ar    1  UNL1        0.3376
     11 O           5.7023   -1.6350   27.7756 O.2     1  UNL1       -0.2458
     12 N           6.6168   -3.1304   29.7937 N.ar    1  UNL1       -0.2278
     13 C           7.3658   -4.4258   29.8993 C.ar    1  UNL1        0.0891
     14 C           7.8497   -5.2118   31.0817 C.ar    1  UNL1        0.0488
     15 C           8.5871   -6.5013   30.8740 C.ar    1  UNL1        0.1417
     16 F           9.0711   -7.2874   32.0563 F       1  UNL1       -0.2041
     17 C           8.8407   -7.0048   29.4839 C.ar    1  UNL1        0.0312
     18 C           8.3569   -6.2188   28.3016 C.ar    1  UNL1        0.0211
     19 C           7.6194   -4.9293   28.5093 C.ar    1  UNL1        0.0802
     20 C           6.1577   -2.2813   30.9418 C.ar    1  UNL1        0.2404
     21 N           6.4453   -0.8090   30.9478 N.ar    1  UNL1       -0.2094
     22 C           5.9862    0.0401   32.0959 C.ar    1  UNL1        0.1037
     23 C           5.2396   -0.5829   33.2380 C.ar    1  UNL1        0.0415
     24 C           4.9520   -2.0550   33.2320 C.ar    1  UNL1        0.1037
     25 N           5.4111   -2.9042   32.0839 N.ar    1  UNL1       -0.2094
     26 N           4.4469   -1.7509   19.0724 N.3     1  UNL1       -0.2689
     27 C           5.7351   -1.2089   19.6173 C.3     1  UNL1        0.0729
     28 C           6.6262   -2.0850   20.4468 C.3     1  UNL1        0.0264
     29 C           6.2292   -3.5033   20.7315 C.3     1  UNL1        0.0795
     30 C           4.9410   -4.0453   20.1866 C.3     1  UNL1        0.0264
     31 C           4.0499   -3.1692   19.3571 C.3     1  UNL1        0.0729
     32 C           3.5557   -0.8748   18.2429 C.3     1  UNL1        0.0993
     33 N          -0.0017    2.9127   18.2293 N.pl3   1  UNL1       -0.3426
     34 C           0.5894    1.6878   18.8621 C.ar    1  UNL1        0.1251
     35 C           1.7771    1.0189   18.2361 C.ar    1  UNL1        0.0310
     36 C           2.3680   -0.2059   18.8689 C.ar    1  UNL1       -0.0018
     37 C           1.7712   -0.7619   20.1278 C.ar    1  UNL1        0.0179
     38 C           0.5835   -0.0930   20.7538 C.ar    1  UNL1        0.1000
     39 N          -0.0074    1.1318   20.1210 N.ar    1  UNL1       -0.2296
     40 H           0.3900    3.2777   17.4031 H       1  UNL1        0.1437
     41 H          -0.7812    3.3517   18.6402 H       1  UNL1        0.1437
@<TRIPOS>BOND
     1    33    34    1
     2    34    35   ar
     3    35    36   ar
     4    36    32    1
     5    32    26    1
     6    26    27    1
     7    27    28    1
     8    28    29    1
     9    29     1    1
    10     1     2    2
    11     1     3   am
    12     3     4    1
    13     4     5    1
    14     5     6    1
    15     6     9    1
    16     9    10   ar
    17    10    11    2
    18    10    12   ar
    19    12    20    1
    20    20    21   ar
    21    21    22   ar
    22    22    23   ar
    23    23    24   ar
    24    24    25   ar
    25    12    13   ar
    26    13    14   ar
    27    14    15   ar
    28    15    16    1
    29    15    17   ar
    30    17    18   ar
    31    18    19   ar
    32     6     7    1
    33     7     8    1
    34    29    30    1
    35    30    31    1
    36    36    37   ar
    37    37    38   ar
    38    38    39   ar
    39    39    34   ar
    40    31    26    1
    41     8     3    1
    42    19     9   ar
    43    25    20   ar
    44    19    13   ar
    45    33    40    1
    46    33    41    1
