@<TRIPOS>MOLECULE
*****
 33 35 0 0 0
SMALL
GASTEIGER

@<TRIPOS>ATOM
      1 C          -5.8505  -19.3632   21.0389 C.3     1  UNL1        0.0755
      2 C          -5.4457  -18.3380   22.0563 C.3     1  UNL1        0.0194
      3 C          -6.4818  -17.7071   22.9386 C.3     1  UNL1        0.0280
      4 C          -7.9227  -18.1013   22.8035 C.3     1  UNL1        0.1357
      5 C          -8.3275  -19.1265   21.7861 C.3     1  UNL1        0.0280
      6 C          -7.2914  -19.7574   20.9038 C.3     1  UNL1        0.0194
      7 C          -8.0314  -17.0912   23.9071 C.ar    1  UNL1        0.0275
      8 C          -8.3644  -17.5356   25.3005 C.ar    1  UNL1        0.0292
      9 C          -8.4732  -16.5256   26.4041 C.ar    1  UNL1        0.1400
     10 F          -8.8062  -16.9700   27.7974 F       1  UNL1       -0.2042
     11 C          -8.2488  -15.0711   26.1142 C.ar    1  UNL1        0.0319
     12 C          -7.9158  -14.6266   24.7209 C.ar    1  UNL1        0.0317
     13 C          -7.8071  -15.6367   23.6173 C.ar    1  UNL1        0.1378
     14 F          -7.4741  -15.1923   22.2239 F       1  UNL1       -0.2045
     15 S          -9.4014  -18.1448   23.0517 S.O2    1  UNL1        0.0090
     16 O          -9.2411  -19.4471   23.7784 O.2     1  UNL1       -0.1684
     17 O          -9.8172  -17.1297   22.5291 O.2     1  UNL1       -0.1684
     18 C         -10.8801  -18.1883   23.2998 C.ar    1  UNL1        0.1059
     19 C         -11.8292  -17.6462   22.2725 C.ar    1  UNL1        0.0192
     20 C         -13.3079  -17.6897   22.5207 C.ar    1  UNL1        0.0127
     21 C         -13.8375  -18.2752   23.7961 C.ar    1  UNL1        0.0578
     22 CL        -15.3161  -18.3187   24.0442 Cl      1  UNL1       -0.0822
     23 C         -12.8883  -18.8173   24.8234 C.ar    1  UNL1        0.0127
     24 C         -11.4097  -18.7738   24.5752 C.ar    1  UNL1        0.0192
     25 N          -4.8144  -19.9941   20.1566 N.3     1  UNL1       -0.1773
     26 H          -4.7028  -20.9566   20.4753 H       1  UNL1        0.1486
     27 O          -3.9635  -18.3016   19.2021 O.2     1  UNL1       -0.1497
     28 S          -3.4384  -19.4028   20.0747 S.O2    1  UNL1        0.1271
     29 O          -2.9132  -20.5041   20.9472 O.2     1  UNL1       -0.1497
     30 C          -2.0622  -18.8115   19.9927 C.3     1  UNL1        0.5357
     31 F          -1.8557  -19.0895   21.4521 F       1  UNL1       -0.1493
     32 F          -2.2687  -18.5335   18.5332 F       1  UNL1       -0.1493
     33 F          -0.6862  -18.2201   19.9106 F       1  UNL1       -0.1493
@<TRIPOS>BOND
     1    27    28    2
     2    28    29    2
     3    28    25    1
     4     1    25    1
     5     1     2    1
     6     2     3    1
     7     3     4    1
     8     4     7    1
     9     7     8   ar
    10     8     9   ar
    11     9    10    1
    12     9    11   ar
    13    11    12   ar
    14    12    13   ar
    15    13    14    1
    16     4    15    1
    17    15    16    2
    18    15    17    2
    19    15    18    1
    20    18    19   ar
    21    19    20   ar
    22    20    21   ar
    23    21    22    1
    24    21    23   ar
    25    23    24   ar
    26     4     5    1
    27     5     6    1
    28    28    30    1
    29    30    31    1
    30    30    32    1
    31    30    33    1
    32     6     1    1
    33    13     7   ar
    34    24    18   ar
    35    25    26    1
@<TRIPOS>MOLECULE
*****
 33 35 0 0 0
SMALL
GASTEIGER

@<TRIPOS>ATOM
      1 C           4.1279    1.0213   36.7184 C.3     1  UNL1        0.0755
      2 C           5.1680   -0.0330   36.4806 C.3     1  UNL1        0.0194
      3 C           5.4069   -0.5516   35.0936 C.3     1  UNL1        0.0280
      4 C           4.6057   -0.0159   33.9442 C.3     1  UNL1        0.1357
      5 C           3.5657    1.0385   34.1819 C.3     1  UNL1        0.0280
      6 C           3.3268    1.5571   35.5690 C.3     1  UNL1        0.0194
      7 C           5.4721   -1.0033   33.2200 C.ar    1  UNL1        0.0275
      8 C           6.6951   -0.5338   32.4894 C.ar    1  UNL1        0.0292
      9 C           7.5614   -1.5211   31.7652 C.ar    1  UNL1        0.1400
     10 F           8.7844   -1.0516   31.0347 F       1  UNL1       -0.2042
     11 C           7.2047   -2.9781   31.7715 C.ar    1  UNL1        0.0319
     12 C           5.9816   -3.4477   32.5020 C.ar    1  UNL1        0.0317
     13 C           5.1153   -2.4602   33.2263 C.ar    1  UNL1        0.1378
     14 F           3.8923   -2.9297   33.9568 F       1  UNL1       -0.2045
     15 S           4.1054    0.1770   32.5433 S.O2    1  UNL1        0.0090
     16 O           4.9485    1.4106   32.4121 O.2     1  UNL1       -0.1684
     17 O           3.3447   -0.7548   32.3719 O.2     1  UNL1       -0.1684
     18 C           3.6052    0.3699   31.1424 C.ar    1  UNL1        0.1059
     19 C           2.6028   -0.5856   30.5658 C.ar    1  UNL1        0.0192
     20 C           2.1026   -0.3927   29.1649 C.ar    1  UNL1        0.0127
     21 C           2.6045    0.7556   28.3406 C.ar    1  UNL1        0.0578
     22 CL          2.1043    0.9485   26.9398 Cl      1  UNL1       -0.0822
     23 C           3.6068    1.7111   28.9173 C.ar    1  UNL1        0.0127
     24 C           4.1071    1.5182   30.3182 C.ar    1  UNL1        0.0192
     25 N           3.8890    1.5399   38.1054 N.3     1  UNL1       -0.1773
     26 H           4.2031    0.8139   38.7494 H       1  UNL1        0.1486
     27 O           2.1379    0.4798   38.6618 O.2     1  UNL1       -0.1497
     28 S           2.5047    1.9285   38.5328 S.O2    1  UNL1        0.1271
     29 O           2.8716    3.3772   38.4038 O.2     1  UNL1       -0.1497
     30 C           1.1204    2.3171   38.9602 C.3     1  UNL1        0.5357
     31 F           1.1084    1.1883   39.9479 F       1  UNL1       -0.1493
     32 F           1.1323    3.4459   37.9725 F       1  UNL1       -0.1493
     33 F          -0.2640    2.7057   39.3875 F       1  UNL1       -0.1493
@<TRIPOS>BOND
     1    27    28    2
     2    28    29    2
     3    28    25    1
     4     1    25    1
     5     1     2    1
     6     2     3    1
     7     3     4    1
     8     4     7    1
     9     7     8   ar
    10     8     9   ar
    11     9    10    1
    12     9    11   ar
    13    11    12   ar
    14    12    13   ar
    15    13    14    1
    16     4    15    1
    17    15    16    2
    18    15    17    2
    19    15    18    1
    20    18    19   ar
    21    19    20   ar
    22    20    21   ar
    23    21    22    1
    24    21    23   ar
    25    23    24   ar
    26     4     5    1
    27     5     6    1
    28    28    30    1
    29    30    31    1
    30    30    32    1
    31    30    33    1
    32     6     1    1
    33    13     7   ar
    34    24    18   ar
    35    25    26    1
@<TRIPOS>MOLECULE
*****
 33 35 0 0 0
SMALL
GASTEIGER

@<TRIPOS>ATOM
      1 C           4.0988    1.1337   37.0465 C.3     1  UNL1        0.0755
      2 C           3.4669    1.7738   35.8461 C.3     1  UNL1        0.0194
      3 C           3.8140    1.2914   34.4689 C.3     1  UNL1        0.0280
      4 C           4.7931    0.1689   34.2920 C.3     1  UNL1        0.1357
      5 C           5.4251   -0.4712   35.4923 C.3     1  UNL1        0.0280
      6 C           5.0779    0.0112   36.8695 C.3     1  UNL1        0.0194
      7 C           4.4612    0.4536   32.8571 C.ar    1  UNL1        0.0275
      8 C           3.4492   -0.3898   32.1399 C.ar    1  UNL1        0.0292
      9 C           3.1172   -0.1053   30.7050 C.ar    1  UNL1        0.1400
     10 F           2.1052   -0.9486   29.9878 F       1  UNL1       -0.2042
     11 C           3.7973    1.0228   29.9874 C.ar    1  UNL1        0.0319
     12 C           4.8093    1.8663   30.7046 C.ar    1  UNL1        0.0317
     13 C           5.1413    1.5816   32.1395 C.ar    1  UNL1        0.1378
     14 F           6.1533    2.4250   32.8567 F       1  UNL1       -0.2045
     15 S           5.6570   -0.8547   33.6167 S.O2    1  UNL1        0.0090
     16 O           4.6064   -1.8985   33.8552 O.2     1  UNL1       -0.1684
     17 O           6.6520   -0.2351   33.2970 O.2     1  UNL1       -0.1684
     18 C           6.5207   -1.8784   32.9415 C.ar    1  UNL1        0.1059
     19 C           5.9088   -3.1362   32.3996 C.ar    1  UNL1        0.0192
     20 C           6.7725   -4.1599   31.7244 C.ar    1  UNL1        0.0127
     21 C           8.2481   -3.9260   31.5911 C.ar    1  UNL1        0.0578
     22 CL          9.1119   -4.9496   30.9159 Cl      1  UNL1       -0.0822
     23 C           8.8601   -2.6681   32.1330 C.ar    1  UNL1        0.0127
     24 C           7.9963   -1.6445   32.8082 C.ar    1  UNL1        0.0192
     25 N           3.7517    1.6161   38.4237 N.3     1  UNL1       -0.1773
     26 H           4.0375    0.8833   39.0731 H       1  UNL1        0.1486
     27 O           2.6874    3.4211   38.7537 O.2     1  UNL1       -0.1497
     28 S           2.3321    1.9638   38.7609 S.O2    1  UNL1        0.1271
     29 O           1.9768    0.5066   38.7681 O.2     1  UNL1       -0.1497
     30 C           0.9124    2.3117   39.0981 C.3     1  UNL1        0.5357
     31 F           0.9540    3.4395   38.1101 F       1  UNL1       -0.1493
     32 F           0.8709    1.1839   40.0862 F       1  UNL1       -0.1493
     33 F          -0.5071    2.6595   39.4354 F       1  UNL1       -0.1493
@<TRIPOS>BOND
     1    27    28    2
     2    28    29    2
     3    28    25    1
     4     1    25    1
     5     1     2    1
     6     2     3    1
     7     3     4    1
     8     4     7    1
     9     7     8   ar
    10     8     9   ar
    11     9    10    1
    12     9    11   ar
    13    11    12   ar
    14    12    13   ar
    15    13    14    1
    16     4    15    1
    17    15    16    2
    18    15    17    2
    19    15    18    1
    20    18    19   ar
    21    19    20   ar
    22    20    21   ar
    23    21    22    1
    24    21    23   ar
    25    23    24   ar
    26     4     5    1
    27     5     6    1
    28    28    30    1
    29    30    31    1
    30    30    32    1
    31    30    33    1
    32     6     1    1
    33    13     7   ar
    34    24    18   ar
    35    25    26    1
@<TRIPOS>MOLECULE
*****
 33 35 0 0 0
SMALL
GASTEIGER

@<TRIPOS>ATOM
      1 C           4.3687    1.0532   36.7742 C.3     1  UNL1        0.0755
      2 C           5.5438    0.1348   36.6145 C.3     1  UNL1        0.0194
      3 C           5.8915   -0.4100   35.2608 C.3     1  UNL1        0.0280
      4 C           5.0640   -0.0363   34.0668 C.3     1  UNL1        0.1357
      5 C           3.8889    0.8821   34.2265 C.3     1  UNL1        0.0280
      6 C           3.5413    1.4269   35.5802 C.3     1  UNL1        0.0194
      7 C           6.0735   -0.9332   33.4137 C.ar    1  UNL1        0.0275
      8 C           5.7056   -2.3435   33.0591 C.ar    1  UNL1        0.0292
      9 C           6.7151   -3.2404   32.4060 C.ar    1  UNL1        0.1400
     10 F           6.3472   -4.6506   32.0514 F       1  UNL1       -0.2042
     11 C           8.0925   -2.7269   32.1075 C.ar    1  UNL1        0.0319
     12 C           8.4604   -1.3166   32.4621 C.ar    1  UNL1        0.0317
     13 C           7.4509   -0.4198   33.1152 C.ar    1  UNL1        0.1378
     14 F           7.8188    0.9905   33.4698 F       1  UNL1       -0.2045
     15 S           4.5871    0.0259   32.6460 S.O2    1  UNL1        0.0090
     16 O           3.5862   -1.0534   32.9348 O.2     1  UNL1       -0.1684
     17 O           5.2802    0.8863   32.1406 O.2     1  UNL1       -0.1684
     18 C           4.1102    0.0880   31.2252 C.ar    1  UNL1        0.1059
     19 C           4.9671    0.7288   30.1739 C.ar    1  UNL1        0.0192
     20 C           4.4901    0.7910   28.7531 C.ar    1  UNL1        0.0127
     21 C           3.1564    0.2125   28.3836 C.ar    1  UNL1        0.0578
     22 CL          2.6795    0.2746   26.9628 Cl      1  UNL1       -0.0822
     23 C           2.2995   -0.4283   29.4350 C.ar    1  UNL1        0.0127
     24 C           2.7765   -0.4905   30.8557 C.ar    1  UNL1        0.0192
     25 N           4.0211    1.5980   38.1278 N.3     1  UNL1       -0.1773
     26 H           4.3426    0.9134   38.8122 H       1  UNL1        0.1486
     27 O           2.8754    3.3750   38.2991 O.2     1  UNL1       -0.1497
     28 S           2.5938    1.9113   38.4663 S.O2    1  UNL1        0.1271
     29 O           2.3122    0.4475   38.6335 O.2     1  UNL1       -0.1497
     30 C           1.1664    2.2246   38.8048 C.3     1  UNL1        0.5357
     31 F           1.2661    3.5090   38.0364 F       1  UNL1       -0.1493
     32 F           1.0667    0.9402   39.5731 F       1  UNL1       -0.1493
     33 F          -0.2609    2.5378   39.1433 F       1  UNL1       -0.1493
@<TRIPOS>BOND
     1    27    28    2
     2    28    29    2
     3    28    25    1
     4     1    25    1
     5     1     2    1
     6     2     3    1
     7     3     4    1
     8     4     7    1
     9     7     8   ar
    10     8     9   ar
    11     9    10    1
    12     9    11   ar
    13    11    12   ar
    14    12    13   ar
    15    13    14    1
    16     4    15    1
    17    15    16    2
    18    15    17    2
    19    15    18    1
    20    18    19   ar
    21    19    20   ar
    22    20    21   ar
    23    21    22    1
    24    21    23   ar
    25    23    24   ar
    26     4     5    1
    27     5     6    1
    28    28    30    1
    29    30    31    1
    30    30    32    1
    31    30    33    1
    32     6     1    1
    33    13     7   ar
    34    24    18   ar
    35    25    26    1
@<TRIPOS>MOLECULE
*****
 33 35 0 0 0
SMALL
GASTEIGER

@<TRIPOS>ATOM
      1 C           1.7662    1.6437   25.4279 C.3     1  UNL1        0.0755
      2 C           1.7820    2.6636   24.3282 C.3     1  UNL1        0.0194
      3 C           2.1809    2.2624   22.9389 C.3     1  UNL1        0.0280
      4 C           2.5638    0.8413   22.6495 C.3     1  UNL1        0.1357
      5 C           2.5479   -0.1786   23.7493 C.3     1  UNL1        0.0280
      6 C           2.1491    0.2226   25.1385 C.3     1  UNL1        0.0194
      7 C           2.7331    1.4399   21.2845 C.ar    1  UNL1        0.0275
      8 C           4.1036    1.7832   20.7809 C.ar    1  UNL1        0.0292
      9 C           4.2730    2.3818   19.4159 C.ar    1  UNL1        0.1400
     10 F           5.6435    2.7251   18.9123 F       1  UNL1       -0.2042
     11 C           3.0717    2.6369   18.5547 C.ar    1  UNL1        0.0319
     12 C           1.7011    2.2936   19.0582 C.ar    1  UNL1        0.0317
     13 C           1.5318    1.6950   20.4232 C.ar    1  UNL1        0.1378
     14 F           0.1613    1.3516   20.9269 F       1  UNL1       -0.2045
     15 S           3.0056   -0.3720   21.8860 S.O2    1  UNL1        0.0090
     16 O           4.3788   -0.2429   22.4755 O.2     1  UNL1       -0.1684
     17 O           2.0129   -0.7112   21.2730 O.2     1  UNL1       -0.1684
     18 C           3.4473   -1.5852   21.1225 C.ar    1  UNL1        0.1059
     19 C           4.2750   -2.6371   21.7997 C.ar    1  UNL1        0.0192
     20 C           4.7168   -3.8503   21.0363 C.ar    1  UNL1        0.0127
     21 C           4.3311   -4.0117   19.5958 C.ar    1  UNL1        0.0578
     22 CL          4.7728   -5.2249   18.8323 Cl      1  UNL1       -0.0822
     23 C           3.5034   -2.9598   18.9186 C.ar    1  UNL1        0.0127
     24 C           3.0616   -1.7466   19.6820 C.ar    1  UNL1        0.0192
     25 N           1.3673    2.0449   26.8172 N.3     1  UNL1       -0.1773
     26 H           2.2193    2.0510   27.3780 H       1  UNL1        0.1486
     27 O           1.4342    0.7617   28.5050 O.2     1  UNL1       -0.1497
     28 S           0.3579    1.2318   27.5720 S.O2    1  UNL1        0.1271
     29 O          -0.7184    1.7019   26.6390 O.2     1  UNL1       -0.1497
     30 C          -0.6516    0.4186   28.3269 C.3     1  UNL1        0.5357
     31 F          -1.7187    1.4097   27.9677 F       1  UNL1       -0.1493
     32 F           0.4155   -0.5724   28.6862 F       1  UNL1       -0.1493
     33 F          -1.6609   -0.3945   29.0818 F       1  UNL1       -0.1493
@<TRIPOS>BOND
     1    27    28    2
     2    28    29    2
     3    28    25    1
     4     1    25    1
     5     1     2    1
     6     2     3    1
     7     3     4    1
     8     4     7    1
     9     7     8   ar
    10     8     9   ar
    11     9    10    1
    12     9    11   ar
    13    11    12   ar
    14    12    13   ar
    15    13    14    1
    16     4    15    1
    17    15    16    2
    18    15    17    2
    19    15    18    1
    20    18    19   ar
    21    19    20   ar
    22    20    21   ar
    23    21    22    1
    24    21    23   ar
    25    23    24   ar
    26     4     5    1
    27     5     6    1
    28    28    30    1
    29    30    31    1
    30    30    32    1
    31    30    33    1
    32     6     1    1
    33    13     7   ar
    34    24    18   ar
    35    25    26    1
@<TRIPOS>MOLECULE
*****
 33 35 0 0 0
SMALL
GASTEIGER

@<TRIPOS>ATOM
      1 C           1.7147    1.6439   25.3730 C.3     1  UNL1        0.0755
      2 C           1.6832    2.6418   24.2535 C.3     1  UNL1        0.0194
      3 C           2.0725    2.2252   22.8661 C.3     1  UNL1        0.0280
      4 C           2.4933    0.8106   22.5982 C.3     1  UNL1        0.1357
      5 C           2.5248   -0.1873   23.7176 C.3     1  UNL1        0.0280
      6 C           2.1355    0.2293   25.1050 C.3     1  UNL1        0.0194
      7 C           2.6236    1.3867   21.2193 C.ar    1  UNL1        0.0275
      8 C           1.4641    1.3288   20.2696 C.ar    1  UNL1        0.0292
      9 C           1.5944    1.9049   18.8908 C.ar    1  UNL1        0.1400
     10 F           0.4348    1.8469   17.9411 F       1  UNL1       -0.2042
     11 C           2.8843    2.5390   18.4618 C.ar    1  UNL1        0.0319
     12 C           4.0439    2.5970   19.4115 C.ar    1  UNL1        0.0317
     13 C           3.9135    2.0208   20.7903 C.ar    1  UNL1        0.1378
     14 F           5.0730    2.0788   21.7401 F       1  UNL1       -0.2045
     15 S           2.9594   -0.4040   21.8513 S.O2    1  UNL1        0.0090
     16 O           4.2922   -0.3117   22.5332 O.2     1  UNL1       -0.1684
     17 O           2.0032   -0.7145   21.1690 O.2     1  UNL1       -0.1684
     18 C           3.4255   -1.6184   21.1045 C.ar    1  UNL1        0.1059
     19 C           3.0709   -1.7908   19.6572 C.ar    1  UNL1        0.0192
     20 C           3.5371   -3.0052   18.9104 C.ar    1  UNL1        0.0127
     21 C           4.3577   -4.0474   19.6108 C.ar    1  UNL1        0.0578
     22 CL          4.8238   -5.2619   18.8640 Cl      1  UNL1       -0.0822
     23 C           4.7122   -3.8750   21.0581 C.ar    1  UNL1        0.0127
     24 C           4.2461   -2.6606   21.8049 C.ar    1  UNL1        0.0192
     25 N           1.3255    2.0606   26.7603 N.3     1  UNL1       -0.1773
     26 H           2.1839    2.0912   27.3103 H       1  UNL1        0.1486
     27 O          -0.7552    1.6750   26.6122 O.2     1  UNL1       -0.1497
     28 S           0.3403    1.2418   27.5407 S.O2    1  UNL1        0.1271
     29 O           1.4358    0.8086   28.4692 O.2     1  UNL1       -0.1497
     30 C          -0.6450    0.4230   28.3211 C.3     1  UNL1        0.5357
     31 F           0.4321   -0.5719   28.6371 F       1  UNL1       -0.1493
     32 F          -1.7221    1.4179   28.0050 F       1  UNL1       -0.1493
     33 F          -1.6302   -0.3957   29.1014 F       1  UNL1       -0.1493
@<TRIPOS>BOND
     1    27    28    2
     2    28    29    2
     3    28    25    1
     4     1    25    1
     5     1     2    1
     6     2     3    1
     7     3     4    1
     8     4     7    1
     9     7     8   ar
    10     8     9   ar
    11     9    10    1
    12     9    11   ar
    13    11    12   ar
    14    12    13   ar
    15    13    14    1
    16     4    15    1
    17    15    16    2
    18    15    17    2
    19    15    18    1
    20    18    19   ar
    21    19    20   ar
    22    20    21   ar
    23    21    22    1
    24    21    23   ar
    25    23    24   ar
    26     4     5    1
    27     5     6    1
    28    28    30    1
    29    30    31    1
    30    30    32    1
    31    30    33    1
    32     6     1    1
    33    13     7   ar
    34    24    18   ar
    35    25    26    1
@<TRIPOS>MOLECULE
*****
 33 35 0 0 0
SMALL
GASTEIGER

@<TRIPOS>ATOM
      1 C           7.5410   -4.4839   25.1145 C.3     1  UNL1        0.0755
      2 C           7.6989   -4.8915   23.6797 C.3     1  UNL1        0.0194
      3 C           6.8369   -4.2664   22.6232 C.3     1  UNL1        0.0280
      4 C           5.8169   -3.2337   23.0016 C.3     1  UNL1        0.1357
      5 C           5.6590   -2.8262   24.4364 C.3     1  UNL1        0.0280
      6 C           6.5210   -3.4513   25.4929 C.3     1  UNL1        0.0194
      7 C           5.5937   -3.2894   21.5193 C.ar    1  UNL1        0.0275
      8 C           4.4788   -4.1222   20.9595 C.ar    1  UNL1        0.0292
      9 C           4.2556   -4.1779   19.4772 C.ar    1  UNL1        0.1400
     10 F           3.1407   -5.0107   18.9174 F       1  UNL1       -0.2042
     11 C           5.1473   -3.4007   18.5548 C.ar    1  UNL1        0.0319
     12 C           6.2622   -2.5679   19.1146 C.ar    1  UNL1        0.0317
     13 C           6.4854   -2.5122   20.5969 C.ar    1  UNL1        0.1378
     14 F           7.6002   -1.6794   21.1567 F       1  UNL1       -0.2045
     15 S           4.7194   -2.2203   22.8652 S.O2    1  UNL1        0.0090
     16 O           5.7152   -1.1157   23.0603 O.2     1  UNL1       -0.1684
     17 O           3.7217   -2.8899   22.6850 O.2     1  UNL1       -0.1684
     18 C           3.6220   -1.2069   22.7288 C.ar    1  UNL1        0.1059
     19 C           3.0284   -0.9211   21.3811 C.ar    1  UNL1        0.0192
     20 C           1.9310    0.0923   21.2448 C.ar    1  UNL1        0.0127
     21 C           1.4271    0.8199   22.4558 C.ar    1  UNL1        0.0578
     22 CL          0.3297    1.8333   22.3195 Cl      1  UNL1       -0.0822
     23 C           2.0207    0.5340   23.8035 C.ar    1  UNL1        0.0127
     24 C           3.1181   -0.4794   23.9399 C.ar    1  UNL1        0.0192
     25 N           8.4030   -5.1090   26.1710 N.3     1  UNL1       -0.1773
     26 H           8.7537   -5.9853   25.7844 H       1  UNL1        0.1486
     27 O           7.0129   -6.5331   26.9055 O.2     1  UNL1       -0.1497
     28 S           7.8250   -5.4303   27.5173 S.O2    1  UNL1        0.1271
     29 O           8.6371   -4.3276   28.1291 O.2     1  UNL1       -0.1497
     30 C           7.2470   -5.7517   28.8637 C.3     1  UNL1        0.5357
     31 F           8.6114   -6.1292   29.3595 F       1  UNL1       -0.1493
     32 F           5.8826   -5.3742   28.3680 F       1  UNL1       -0.1493
     33 F           6.6689   -6.0730   30.2100 F       1  UNL1       -0.1493
@<TRIPOS>BOND
     1    27    28    2
     2    28    29    2
     3    28    25    1
     4     1    25    1
     5     1     2    1
     6     2     3    1
     7     3     4    1
     8     4     7    1
     9     7     8   ar
    10     8     9   ar
    11     9    10    1
    12     9    11   ar
    13    11    12   ar
    14    12    13   ar
    15    13    14    1
    16     4    15    1
    17    15    16    2
    18    15    17    2
    19    15    18    1
    20    18    19   ar
    21    19    20   ar
    22    20    21   ar
    23    21    22    1
    24    21    23   ar
    25    23    24   ar
    26     4     5    1
    27     5     6    1
    28    28    30    1
    29    30    31    1
    30    30    32    1
    31    30    33    1
    32     6     1    1
    33    13     7   ar
    34    24    18   ar
    35    25    26    1
@<TRIPOS>MOLECULE
*****
 33 35 0 0 0
SMALL
GASTEIGER

@<TRIPOS>ATOM
      1 C           8.1185   -4.9165   24.4811 C.3     1  UNL1        0.0755
      2 C           8.2067   -5.1238   22.9981 C.3     1  UNL1        0.0194
      3 C           7.2808   -4.3814   22.0807 C.3     1  UNL1        0.0280
      4 C           6.2667   -3.4319   22.6463 C.3     1  UNL1        0.1357
      5 C           6.1785   -3.2246   24.1292 C.3     1  UNL1        0.0280
      6 C           7.1044   -3.9669   25.0466 C.3     1  UNL1        0.0194
      7 C           5.9665   -3.2925   21.1832 C.ar    1  UNL1        0.0275
      8 C           4.8063   -4.0291   20.5821 C.ar    1  UNL1        0.0292
      9 C           4.5060   -3.8898   19.1191 C.ar    1  UNL1        0.1400
     10 F           3.3458   -4.6264   18.5181 F       1  UNL1       -0.2042
     11 C           5.3661   -3.0138   18.2572 C.ar    1  UNL1        0.0319
     12 C           6.5263   -2.2772   18.8581 C.ar    1  UNL1        0.0317
     13 C           6.8265   -2.4166   20.3212 C.ar    1  UNL1        0.1378
     14 F           7.9867   -1.6800   20.9223 F       1  UNL1       -0.2045
     15 S           5.1483   -2.4338   22.7037 S.O2    1  UNL1        0.0090
     16 O           4.1653   -3.5475   22.9120 O.2     1  UNL1       -0.1684
     17 O           5.7017   -1.3630   22.5513 O.2     1  UNL1       -0.1684
     18 C           4.0300   -1.4359   22.7612 C.ar    1  UNL1        0.1059
     19 C           3.5577   -0.9142   24.0859 C.ar    1  UNL1        0.0192
     20 C           2.4393    0.0837   24.1434 C.ar    1  UNL1        0.0127
     21 C           1.7932    0.5600   22.8763 C.ar    1  UNL1        0.0578
     22 CL          0.6748    1.5579   22.9338 Cl      1  UNL1       -0.0822
     23 C           2.2654    0.0383   21.5515 C.ar    1  UNL1        0.0127
     24 C           3.3838   -0.9596   21.4941 C.ar    1  UNL1        0.0192
     25 N           9.0443   -5.6589   25.3985 N.3     1  UNL1       -0.1773
     26 H           9.8664   -5.9081   24.8486 H       1  UNL1        0.1486
     27 O           9.0039   -7.7161   24.8829 O.2     1  UNL1       -0.1497
     28 S           8.5808   -6.9135   26.0774 S.O2    1  UNL1        0.1271
     29 O           8.1577   -6.1109   27.2718 O.2     1  UNL1       -0.1497
     30 C           8.1173   -8.1683   26.7562 C.3     1  UNL1        0.5357
     31 F           6.7170   -7.9047   26.2874 F       1  UNL1       -0.1493
     32 F           9.5175   -8.4319   27.2250 F       1  UNL1       -0.1493
     33 F           7.6538   -9.4230   27.4351 F       1  UNL1       -0.1493
@<TRIPOS>BOND
     1    27    28    2
     2    28    29    2
     3    28    25    1
     4     1    25    1
     5     1     2    1
     6     2     3    1
     7     3     4    1
     8     4     7    1
     9     7     8   ar
    10     8     9   ar
    11     9    10    1
    12     9    11   ar
    13    11    12   ar
    14    12    13   ar
    15    13    14    1
    16     4    15    1
    17    15    16    2
    18    15    17    2
    19    15    18    1
    20    18    19   ar
    21    19    20   ar
    22    20    21   ar
    23    21    22    1
    24    21    23   ar
    25    23    24   ar
    26     4     5    1
    27     5     6    1
    28    28    30    1
    29    30    31    1
    30    30    32    1
    31    30    33    1
    32     6     1    1
    33    13     7   ar
    34    24    18   ar
    35    25    26    1
@<TRIPOS>MOLECULE
*****
 33 35 0 0 0
SMALL
GASTEIGER

@<TRIPOS>ATOM
      1 C           1.8420    0.7605   31.0790 C.3     1  UNL1        0.0755
      2 C           2.5574   -0.2675   30.2536 C.3     1  UNL1        0.0194
      3 C           3.8421   -0.8641   30.7472 C.3     1  UNL1        0.0280
      4 C           4.4114   -0.4327   32.0662 C.3     1  UNL1        0.1357
      5 C           3.6960    0.5954   32.8915 C.3     1  UNL1        0.0280
      6 C           2.4113    1.1920   32.3979 C.3     1  UNL1        0.0194
      7 C           5.4497   -1.4314   31.6485 C.ar    1  UNL1        0.0275
      8 C           5.4738   -2.7945   32.2740 C.ar    1  UNL1        0.0292
      9 C           6.5120   -3.7932   31.8564 C.ar    1  UNL1        0.1400
     10 F           6.5361   -5.1563   32.4819 F       1  UNL1       -0.2042
     11 C           7.5264   -3.4288   30.8132 C.ar    1  UNL1        0.0319
     12 C           7.5024   -2.0657   30.1876 C.ar    1  UNL1        0.0317
     13 C           6.4641   -1.0669   30.6053 C.ar    1  UNL1        0.1378
     14 F           6.4401    0.2962   29.9798 F       1  UNL1       -0.2045
     15 S           5.3413   -0.3480   33.2401 S.O2    1  UNL1        0.0090
     16 O           4.4069   -1.2046   34.0420 O.2     1  UNL1       -0.1684
     17 O           6.2580    0.3418   32.8400 O.2     1  UNL1       -0.1684
     18 C           6.2712   -0.2634   34.4141 C.ar    1  UNL1        0.1059
     19 C           5.7181   -0.2317   35.8081 C.ar    1  UNL1        0.0192
     20 C           6.6480   -0.1471   36.9820 C.ar    1  UNL1        0.0127
     21 C           8.1308   -0.0942   36.7621 C.ar    1  UNL1        0.0578
     22 CL          9.0606   -0.0096   37.9360 Cl      1  UNL1       -0.0822
     23 C           8.6839   -0.1259   35.3681 C.ar    1  UNL1        0.0127
     24 C           7.7540   -0.2105   34.1941 C.ar    1  UNL1        0.0192
     25 N           0.5573    1.3572   30.5854 N.3     1  UNL1       -0.1773
     26 H          -0.1933    0.9308   31.1288 H       1  UNL1        0.1486
     27 O           1.0415    2.4021   28.8040 O.2     1  UNL1       -0.1497
     28 S           0.1752    1.2249   29.1410 S.O2    1  UNL1        0.1271
     29 O          -0.6912    0.0477   29.4780 O.2     1  UNL1       -0.1497
     30 C          -0.2070    1.0927   27.6964 C.3     1  UNL1        0.5357
     31 F          -1.6444    1.3272   28.0552 F       1  UNL1       -0.1493
     32 F           1.2305    0.8582   27.3377 F       1  UNL1       -0.1493
     33 F          -0.5890    0.9605   26.2520 F       1  UNL1       -0.1493
@<TRIPOS>BOND
     1    27    28    2
     2    28    29    2
     3    28    25    1
     4     1    25    1
     5     1     2    1
     6     2     3    1
     7     3     4    1
     8     4     7    1
     9     7     8   ar
    10     8     9   ar
    11     9    10    1
    12     9    11   ar
    13    11    12   ar
    14    12    13   ar
    15    13    14    1
    16     4    15    1
    17    15    16    2
    18    15    17    2
    19    15    18    1
    20    18    19   ar
    21    19    20   ar
    22    20    21   ar
    23    21    22    1
    24    21    23   ar
    25    23    24   ar
    26     4     5    1
    27     5     6    1
    28    28    30    1
    29    30    31    1
    30    30    32    1
    31    30    33    1
    32     6     1    1
    33    13     7   ar
    34    24    18   ar
    35    25    26    1
