@<TRIPOS>MOLECULE
*****
 28 30 0 0 0
SMALL
GASTEIGER

@<TRIPOS>ATOM
      1 O          -5.5020  -20.4602   21.9737 O.3     1  UNL1       -0.4673
      2 C          -4.5212  -19.3456   22.1869 C.ar    1  UNL1        0.1612
      3 C          -3.0727  -19.5472   21.8534 C.ar    1  UNL1        0.1359
      4 N          -2.0918  -18.4326   22.0666 N.ar    1  UNL1       -0.2360
      5 C          -2.5594  -17.1163   22.6133 C.ar    1  UNL1        0.1358
      6 C          -4.0080  -16.9148   22.9468 C.ar    1  UNL1        0.1607
      7 C          -4.9888  -18.0294   22.7336 C.ar    1  UNL1        0.0770
      8 O          -4.4756  -15.5985   23.4934 O.3     1  UNL1       -0.4737
      9 C          -5.2700  -15.5542   24.7651 C.3     1  UNL1        0.2079
     10 C          -6.7555  -15.3527   24.7148 C.3     1  UNL1        0.0742
     11 C          -7.5797  -15.5364   25.9544 C.3     1  UNL1        0.0921
     12 C          -8.8110  -15.6941   25.1124 C.3     1  UNL1        0.0294
     13 C          -6.3485  -15.3787   26.7964 C.3     1  UNL1        0.0294
     14 O          -8.4040  -15.7200   27.1941 O.3     1  UNL1       -0.3866
     15 H          -9.3323  -15.8558   26.9480 H       1  UNL1        0.2102
     16 C          -6.5444  -20.3471   20.9010 C.3     1  UNL1        0.2507
     17 C          -8.4099  -19.4975   18.7105 C.3     1  UNL1        0.0358
     18 C          -8.8483  -19.4158   20.1428 C.2     1  UNL1        0.0342
     19 C          -7.9155  -19.8406   21.2380 C.2     1  UNL1        0.1013
     20 N          -8.3539  -19.7590   22.6702 N.2     1  UNL1       -0.2501
     21 C          -9.7250  -19.2525   23.0072 C.2     1  UNL1        0.0661
     22 C         -10.1633  -19.1708   24.4394 C.3     1  UNL1        0.0718
     23 C         -11.5344  -18.6643   24.7763 C.2     1  UNL1       -0.0198
     24 C         -12.4672  -18.2395   23.6811 C.2     1  UNL1       -0.0040
     25 C         -12.0288  -18.3212   22.2489 C.2     1  UNL1        0.0040
     26 C         -10.6578  -18.8277   21.9120 C.2     1  UNL1        0.0525
     27 C         -10.2194  -18.9093   20.4797 C.2     1  UNL1        0.1940
     28 O         -11.1521  -18.4845   19.3845 O.2     1  UNL1       -0.2868
@<TRIPOS>BOND
     1    17    18    1
     2    18    19    2
     3    19    16    1
     4    16     1    1
     5     1     2    1
     6     2     3   ar
     7     3     4   ar
     8     4     5   ar
     9     5     6   ar
    10     6     8    1
    11     8     9    1
    12     9    10    1
    13    10    11    1
    14    11    12    1
    15    11    13    1
    16    11    14    1
    17     6     7   ar
    18    19    20    1
    19    20    21    2
    20    21    22    1
    21    22    23    1
    22    23    24    2
    23    24    25    1
    24    25    26    2
    25    26    27    1
    26    27    28    2
    27    27    18    1
    28     7     2   ar
    29    26    21    1
    30    14    15    1
@<TRIPOS>MOLECULE
*****
 28 30 0 0 0
SMALL
GASTEIGER

@<TRIPOS>ATOM
      1 O          -5.8952  -15.4609   24.2662 O.3     1  UNL1       -0.4673
      2 C          -4.7195  -15.9638   23.4822 C.ar    1  UNL1        0.1612
      3 C          -3.8159  -14.9939   22.7802 C.ar    1  UNL1        0.1359
      4 N          -2.6401  -15.4969   21.9961 N.ar    1  UNL1       -0.2360
      5 C          -2.3680  -16.9697   21.9142 C.ar    1  UNL1        0.1358
      6 C          -3.2716  -17.9396   22.6163 C.ar    1  UNL1        0.1607
      7 C          -4.4473  -17.4366   23.4003 C.ar    1  UNL1        0.0770
      8 O          -2.9994  -19.4124   22.5343 O.3     1  UNL1       -0.4737
      9 C          -2.9168  -20.0865   21.1968 C.3     1  UNL1        0.2079
     10 C          -4.1725  -20.4633   20.4680 C.3     1  UNL1        0.0742
     11 C          -5.2040  -19.4184   20.1614 C.3     1  UNL1        0.0921
     12 C          -4.2140  -18.6944   19.2980 C.3     1  UNL1        0.0294
     13 C          -6.1941  -20.1424   21.0249 C.3     1  UNL1        0.0294
     14 O          -6.2355  -18.3734   19.8549 O.3     1  UNL1       -0.3866
     15 H          -5.8542  -17.7068   19.2624 H       1  UNL1        0.2102
     16 C          -7.2056  -15.2158   23.5787 C.3     1  UNL1        0.2507
     17 C          -8.6302  -16.5183   25.8752 C.3     1  UNL1        0.0358
     18 C          -8.8582  -17.0085   24.4760 C.2     1  UNL1        0.0342
     19 C          -8.1460  -16.3573   23.3277 C.2     1  UNL1        0.1013
     20 N          -8.3740  -16.8474   21.9286 N.2     1  UNL1       -0.2501
     21 C          -9.3143  -17.9889   21.6776 C.2     1  UNL1        0.0661
     22 C          -9.5423  -18.4790   20.2785 C.3     1  UNL1        0.0718
     23 C         -10.4826  -19.6205   20.0276 C.2     1  UNL1       -0.0198
     24 C         -11.1949  -20.2717   21.1758 C.2     1  UNL1       -0.0040
     25 C         -10.9669  -19.7816   22.5750 C.2     1  UNL1        0.0040
     26 C         -10.0266  -18.6402   22.8259 C.2     1  UNL1        0.0525
     27 C          -9.7985  -18.1499   24.2251 C.2     1  UNL1        0.1940
     28 O         -10.5108  -18.8012   25.3734 O.2     1  UNL1       -0.2868
@<TRIPOS>BOND
     1    17    18    1
     2    18    19    2
     3    19    16    1
     4    16     1    1
     5     1     2    1
     6     2     3   ar
     7     3     4   ar
     8     4     5   ar
     9     5     6   ar
    10     6     8    1
    11     8     9    1
    12     9    10    1
    13    10    11    1
    14    11    12    1
    15    11    13    1
    16    11    14    1
    17     6     7   ar
    18    19    20    1
    19    20    21    2
    20    21    22    1
    21    22    23    1
    22    23    24    2
    23    24    25    1
    24    25    26    2
    25    26    27    1
    26    27    28    2
    27    27    18    1
    28     7     2   ar
    29    26    21    1
    30    14    15    1
@<TRIPOS>MOLECULE
*****
 28 30 0 0 0
SMALL
GASTEIGER

@<TRIPOS>ATOM
      1 O          -9.4467  -15.5671   24.6373 O.3     1  UNL1       -0.4673
      2 C          -8.0060  -15.5570   25.0549 C.ar    1  UNL1        0.1612
      3 C          -7.6452  -15.3761   26.4995 C.ar    1  UNL1        0.1359
      4 N          -6.2045  -15.3659   26.9171 N.ar    1  UNL1       -0.2360
      5 C          -5.1247  -15.5367   25.8900 C.ar    1  UNL1        0.1358
      6 C          -5.4856  -15.7177   24.4453 C.ar    1  UNL1        0.1607
      7 C          -6.9262  -15.7278   24.0278 C.ar    1  UNL1        0.0770
      8 O          -4.4058  -15.8885   23.4183 O.3     1  UNL1       -0.4737
      9 C          -3.8366  -17.2498   23.1477 C.3     1  UNL1        0.2079
     10 C          -2.8483  -17.4420   22.0359 C.3     1  UNL1        0.0742
     11 C          -2.4198  -18.8250   21.6440 C.3     1  UNL1        0.0921
     12 C          -3.5654  -19.4005   22.4226 C.3     1  UNL1        0.0294
     13 C          -1.2743  -18.2495   20.8653 C.3     1  UNL1        0.0294
     14 O          -1.9914  -20.2080   21.2521 O.3     1  UNL1       -0.3866
     15 H          -2.5975  -20.8570   21.6423 H       1  UNL1        0.2102
     16 C         -10.1307  -16.8673   24.3345 C.3     1  UNL1        0.2507
     17 C         -12.1514  -16.6322   22.1296 C.3     1  UNL1        0.0358
     18 C         -10.9019  -17.4351   21.9193 C.2     1  UNL1        0.0342
     19 C          -9.8915  -17.5527   23.0218 C.2     1  UNL1        0.1013
     20 N          -8.6421  -18.3555   22.8115 N.2     1  UNL1       -0.2501
     21 C          -8.4029  -19.0409   21.4988 C.2     1  UNL1        0.0661
     22 C          -7.1535  -19.8437   21.2886 C.3     1  UNL1        0.0718
     23 C          -6.9144  -20.5290   19.9759 C.2     1  UNL1       -0.0198
     24 C          -7.9247  -20.4115   18.8735 C.2     1  UNL1       -0.0040
     25 C          -9.1742  -19.6086   19.0837 C.2     1  UNL1        0.0040
     26 C          -9.4133  -18.9233   20.3964 C.2     1  UNL1        0.0525
     27 C         -10.6628  -18.1204   20.6067 C.2     1  UNL1        0.1940
     28 O         -11.6731  -18.0028   19.5042 O.2     1  UNL1       -0.2868
@<TRIPOS>BOND
     1    17    18    1
     2    18    19    2
     3    19    16    1
     4    16     1    1
     5     1     2    1
     6     2     3   ar
     7     3     4   ar
     8     4     5   ar
     9     5     6   ar
    10     6     8    1
    11     8     9    1
    12     9    10    1
    13    10    11    1
    14    11    12    1
    15    11    13    1
    16    11    14    1
    17     6     7   ar
    18    19    20    1
    19    20    21    2
    20    21    22    1
    21    22    23    1
    22    23    24    2
    23    24    25    1
    24    25    26    2
    25    26    27    1
    26    27    28    2
    27    27    18    1
    28     7     2   ar
    29    26    21    1
    30    14    15    1
@<TRIPOS>MOLECULE
*****
 28 30 0 0 0
SMALL
GASTEIGER

@<TRIPOS>ATOM
      1 O          -5.2037  -14.9692   23.7193 O.3     1  UNL1       -0.4673
      2 C          -6.5866  -15.4091   24.0988 C.ar    1  UNL1        0.1612
      3 C          -7.0254  -15.3506   25.5319 C.ar    1  UNL1        0.1359
      4 N          -8.4084  -15.7905   25.9115 N.ar    1  UNL1       -0.2360
      5 C          -9.3524  -16.2890   24.8578 C.ar    1  UNL1        0.1358
      6 C          -8.9135  -16.3476   23.4246 C.ar    1  UNL1        0.1607
      7 C          -7.5306  -15.9077   23.0451 C.ar    1  UNL1        0.0770
      8 O          -9.8576  -16.8461   22.3709 O.3     1  UNL1       -0.4737
      9 C          -9.8580  -18.2970   21.9901 C.3     1  UNL1        0.2079
     10 C         -10.7892  -19.2522   22.6760 C.3     1  UNL1        0.0742
     11 C         -10.5205  -19.6771   24.0892 C.3     1  UNL1        0.0921
     12 C          -9.2582  -20.3551   23.6454 C.3     1  UNL1        0.0294
     13 C         -11.7827  -18.9991   24.5330 C.3     1  UNL1        0.0294
     14 O         -10.2518  -20.1019   25.5025 O.3     1  UNL1       -0.3866
     15 H          -9.4243  -20.6069   25.5365 H       1  UNL1        0.2102
     16 C          -4.0689  -15.9496   23.7534 C.3     1  UNL1        0.2507
     17 C          -1.7438  -16.1540   21.8687 C.3     1  UNL1        0.0358
     18 C          -2.8485  -17.1671   21.8096 C.2     1  UNL1        0.0342
     19 C          -4.0111  -17.0649   22.7520 C.2     1  UNL1        0.1013
     20 N          -5.1157  -18.0779   22.6929 N.2     1  UNL1       -0.2501
     21 C          -5.0578  -19.1932   21.6915 C.2     1  UNL1        0.0661
     22 C          -6.1624  -20.2062   21.6324 C.3     1  UNL1        0.0718
     23 C          -6.1045  -21.3215   20.6310 C.2     1  UNL1       -0.0198
     24 C          -4.9420  -21.4237   19.6887 C.2     1  UNL1       -0.0040
     25 C          -3.8374  -20.4107   19.7477 C.2     1  UNL1        0.0040
     26 C          -3.8953  -19.2954   20.7491 C.2     1  UNL1        0.0525
     27 C          -2.7906  -18.2823   20.8082 C.2     1  UNL1        0.1940
     28 O          -1.6281  -18.3845   19.8658 O.2     1  UNL1       -0.2868
@<TRIPOS>BOND
     1    17    18    1
     2    18    19    2
     3    19    16    1
     4    16     1    1
     5     1     2    1
     6     2     3   ar
     7     3     4   ar
     8     4     5   ar
     9     5     6   ar
    10     6     8    1
    11     8     9    1
    12     9    10    1
    13    10    11    1
    14    11    12    1
    15    11    13    1
    16    11    14    1
    17     6     7   ar
    18    19    20    1
    19    20    21    2
    20    21    22    1
    21    22    23    1
    22    23    24    2
    23    24    25    1
    24    25    26    2
    25    26    27    1
    26    27    28    2
    27    27    18    1
    28     7     2   ar
    29    26    21    1
    30    14    15    1
@<TRIPOS>MOLECULE
*****
 28 30 0 0 0
SMALL
GASTEIGER

@<TRIPOS>ATOM
      1 O          -4.5850  -16.0607   23.6723 O.3     1  UNL1       -0.4673
      2 C          -5.6995  -15.8269   24.6486 C.ar    1  UNL1        0.1612
      3 C          -5.3887  -15.5569   26.0910 C.ar    1  UNL1        0.1359
      4 N          -6.5032  -15.3231   27.0674 N.ar    1  UNL1       -0.2360
      5 C          -7.9285  -15.3592   26.6013 C.ar    1  UNL1        0.1358
      6 C          -8.2393  -15.6292   25.1589 C.ar    1  UNL1        0.1607
      7 C          -7.1248  -15.8630   24.1826 C.ar    1  UNL1        0.0770
      8 O          -9.6646  -15.6653   24.6929 O.3     1  UNL1       -0.4737
      9 C         -10.0841  -16.6460   23.6381 C.3     1  UNL1        0.2079
     10 C         -10.6186  -16.1533   22.3260 C.3     1  UNL1        0.0742
     11 C         -11.7605  -16.8673   21.6657 C.3     1  UNL1        0.0921
     12 C         -12.0618  -17.5760   22.9529 C.3     1  UNL1        0.0294
     13 C         -11.4593  -16.1587   20.3784 C.3     1  UNL1        0.0294
     14 O         -12.9025  -17.5814   21.0053 O.3     1  UNL1       -0.3866
     15 H         -13.3323  -18.1673   21.6478 H       1  UNL1        0.2102
     16 C          -4.1406  -17.4595   23.3624 C.3     1  UNL1        0.2507
     17 C          -2.6825  -19.5270   21.7502 C.3     1  UNL1        0.0358
     18 C          -4.1504  -19.3060   21.5348 C.2     1  UNL1        0.0342
     19 C          -4.8795  -18.2722   22.3408 C.2     1  UNL1        0.1013
     20 N          -6.3473  -18.0512   22.1254 N.2     1  UNL1       -0.2501
     21 C          -7.0862  -18.8640   21.1039 C.2     1  UNL1        0.0661
     22 C          -8.5541  -18.6429   20.8885 C.3     1  UNL1        0.0718
     23 C          -9.2929  -19.4557   19.8670 C.2     1  UNL1       -0.0198
     24 C          -8.5639  -20.4895   19.0609 C.2     1  UNL1       -0.0040
     25 C          -7.0960  -20.7105   19.2763 C.2     1  UNL1        0.0040
     26 C          -6.3572  -19.8978   20.2978 C.2     1  UNL1        0.0525
     27 C          -4.8893  -20.1188   20.5133 C.2     1  UNL1        0.1940
     28 O          -4.1602  -21.1526   19.7072 O.2     1  UNL1       -0.2868
@<TRIPOS>BOND
     1    17    18    1
     2    18    19    2
     3    19    16    1
     4    16     1    1
     5     1     2    1
     6     2     3   ar
     7     3     4   ar
     8     4     5   ar
     9     5     6   ar
    10     6     8    1
    11     8     9    1
    12     9    10    1
    13    10    11    1
    14    11    12    1
    15    11    13    1
    16    11    14    1
    17     6     7   ar
    18    19    20    1
    19    20    21    2
    20    21    22    1
    21    22    23    1
    22    23    24    2
    23    24    25    1
    24    25    26    2
    25    26    27    1
    26    27    28    2
    27    27    18    1
    28     7     2   ar
    29    26    21    1
    30    14    15    1
@<TRIPOS>MOLECULE
*****
 28 30 0 0 0
SMALL
GASTEIGER

@<TRIPOS>ATOM
      1 O         -11.2980  -19.0920   22.2646 O.3     1  UNL1       -0.4673
      2 C         -10.0737  -19.3820   21.4480 C.ar    1  UNL1        0.1612
      3 C         -10.1603  -19.4104   19.9508 C.ar    1  UNL1        0.1359
      4 N          -8.9359  -19.7004   19.1341 N.ar    1  UNL1       -0.2360
      5 C          -7.6251  -19.9621   19.8146 C.ar    1  UNL1        0.1358
      6 C          -7.5386  -19.9337   21.3119 C.ar    1  UNL1        0.1607
      7 C          -8.7628  -19.6437   22.1286 C.ar    1  UNL1        0.0770
      8 O          -6.2277  -20.1954   21.9925 O.3     1  UNL1       -0.4737
      9 C          -4.9796  -19.5253   21.4992 C.3     1  UNL1        0.2079
     10 C          -4.0392  -18.8805   22.4738 C.3     1  UNL1        0.0742
     11 C          -2.6163  -18.6155   22.0799 C.3     1  UNL1        0.0921
     12 C          -2.5829  -19.9130   21.3279 C.3     1  UNL1        0.0294
     13 C          -2.6498  -17.3181   22.8318 C.3     1  UNL1        0.0294
     14 O          -1.1935  -18.3505   21.6859 O.3     1  UNL1       -0.3866
     15 H          -0.8664  -19.0844   21.1426 H       1  UNL1        0.2102
     16 C         -11.4285  -17.7805   22.9808 C.3     1  UNL1        0.2507
     17 C          -9.7327  -16.0719   21.1905 C.3     1  UNL1        0.0358
     18 C          -9.3609  -16.2461   22.6333 C.2     1  UNL1        0.0342
     19 C         -10.2088  -17.1004   23.5284 C.2     1  UNL1        0.1013
     20 N          -9.8371  -17.2746   24.9711 N.2     1  UNL1       -0.2501
     21 C          -8.6173  -16.5945   25.5188 C.2     1  UNL1        0.0661
     22 C          -8.2456  -16.7687   26.9615 C.3     1  UNL1        0.0718
     23 C          -7.0260  -16.0886   27.5090 C.2     1  UNL1       -0.0198
     24 C          -6.1781  -15.2343   26.6139 C.2     1  UNL1       -0.0040
     25 C          -6.5498  -15.0601   25.1712 C.2     1  UNL1        0.0040
     26 C          -7.7694  -15.7402   24.6237 C.2     1  UNL1        0.0525
     27 C          -8.1412  -15.5660   23.1809 C.2     1  UNL1        0.1940
     28 O          -7.2933  -14.7117   22.2858 O.2     1  UNL1       -0.2868
@<TRIPOS>BOND
     1    17    18    1
     2    18    19    2
     3    19    16    1
     4    16     1    1
     5     1     2    1
     6     2     3   ar
     7     3     4   ar
     8     4     5   ar
     9     5     6   ar
    10     6     8    1
    11     8     9    1
    12     9    10    1
    13    10    11    1
    14    11    12    1
    15    11    13    1
    16    11    14    1
    17     6     7   ar
    18    19    20    1
    19    20    21    2
    20    21    22    1
    21    22    23    1
    22    23    24    2
    23    24    25    1
    24    25    26    2
    25    26    27    1
    26    27    28    2
    27    27    18    1
    28     7     2   ar
    29    26    21    1
    30    14    15    1
@<TRIPOS>MOLECULE
*****
 28 30 0 0 0
SMALL
GASTEIGER

@<TRIPOS>ATOM
      1 O          -5.6022  -20.0628   20.8092 O.3     1  UNL1       -0.4673
      2 C          -4.5218  -19.2904   21.5064 C.ar    1  UNL1        0.1612
      3 C          -3.0821  -19.6497   21.2870 C.ar    1  UNL1        0.1359
      4 N          -2.0016  -18.8773   21.9842 N.ar    1  UNL1       -0.2360
      5 C          -2.3609  -17.7457   22.9009 C.ar    1  UNL1        0.1358
      6 C          -3.8006  -17.3864   23.1203 C.ar    1  UNL1        0.1607
      7 C          -4.8810  -18.1588   22.4231 C.ar    1  UNL1        0.0770
      8 O          -4.1599  -16.2547   24.0370 O.3     1  UNL1       -0.4737
      9 C          -5.4866  -15.5688   23.8974 C.3     1  UNL1        0.2079
     10 C          -6.5265  -15.7223   24.9674 C.3     1  UNL1        0.0742
     11 C          -7.9823  -15.6368   24.6162 C.3     1  UNL1        0.0921
     12 C          -7.6425  -15.8104   23.1656 C.3     1  UNL1        0.0294
     13 C          -8.3221  -15.4633   26.0669 C.3     1  UNL1        0.0294
     14 O          -9.4381  -15.5513   24.2650 O.3     1  UNL1       -0.3866
     15 H          -9.5447  -15.6387   23.3049 H       1  UNL1        0.2102
     16 C          -6.7762  -19.3417   20.2162 C.3     1  UNL1        0.2507
     17 C          -7.2222  -20.8963   22.7429 C.3     1  UNL1        0.0358
     18 C          -8.2207  -19.8633   22.3118 C.2     1  UNL1        0.0342
     19 C          -7.9977  -19.0860   21.0485 C.2     1  UNL1        0.1013
     20 N          -8.9962  -18.0529   20.6174 N.2     1  UNL1       -0.2501
     21 C         -10.2177  -17.7972   21.4496 C.2     1  UNL1        0.0661
     22 C         -11.2162  -16.7642   21.0185 C.3     1  UNL1        0.0718
     23 C         -12.4376  -16.5085   21.8508 C.2     1  UNL1       -0.0198
     24 C         -12.6606  -17.2858   23.1141 C.2     1  UNL1       -0.0040
     25 C         -11.6621  -18.3188   23.5452 C.2     1  UNL1        0.0040
     26 C         -10.4407  -18.5745   22.7130 C.2     1  UNL1        0.0525
     27 C          -9.4421  -19.6076   23.1441 C.2     1  UNL1        0.1940
     28 O          -9.6651  -20.3849   24.4074 O.2     1  UNL1       -0.2868
@<TRIPOS>BOND
     1    17    18    1
     2    18    19    2
     3    19    16    1
     4    16     1    1
     5     1     2    1
     6     2     3   ar
     7     3     4   ar
     8     4     5   ar
     9     5     6   ar
    10     6     8    1
    11     8     9    1
    12     9    10    1
    13    10    11    1
    14    11    12    1
    15    11    13    1
    16    11    14    1
    17     6     7   ar
    18    19    20    1
    19    20    21    2
    20    21    22    1
    21    22    23    1
    22    23    24    2
    23    24    25    1
    24    25    26    2
    25    26    27    1
    26    27    28    2
    27    27    18    1
    28     7     2   ar
    29    26    21    1
    30    14    15    1
@<TRIPOS>MOLECULE
*****
 28 30 0 0 0
SMALL
GASTEIGER

@<TRIPOS>ATOM
      1 O          -6.6394  -15.7921   23.4303 O.3     1  UNL1       -0.4673
      2 C          -7.9171  -15.7512   22.6456 C.ar    1  UNL1        0.1612
      3 C          -8.0571  -14.8063   21.4892 C.ar    1  UNL1        0.1359
      4 N          -9.3349  -14.7654   20.7044 N.ar    1  UNL1       -0.2360
      5 C         -10.4726  -15.6694   21.0762 C.ar    1  UNL1        0.1358
      6 C         -10.3326  -16.6144   22.2327 C.ar    1  UNL1        0.1607
      7 C          -9.0548  -16.6553   23.0174 C.ar    1  UNL1        0.0770
      8 O         -11.4703  -17.5185   22.6045 O.3     1  UNL1       -0.4737
      9 C         -11.5550  -18.8970   22.0191 C.3     1  UNL1        0.2079
     10 C         -10.9536  -20.0606   22.7502 C.3     1  UNL1        0.0742
     11 C         -10.5581  -19.9183   24.1901 C.3     1  UNL1        0.0921
     12 C          -9.2359  -20.5602   23.8904 C.3     1  UNL1        0.0294
     13 C         -11.8802  -19.2764   24.4898 C.3     1  UNL1        0.0294
     14 O         -10.1626  -19.7760   25.6300 O.3     1  UNL1       -0.3866
     15 H          -9.2712  -20.1367   25.7576 H       1  UNL1        0.2102
     16 C          -5.9368  -17.0987   23.6518 C.3     1  UNL1        0.2507
     17 C          -6.3310  -19.6575   22.1362 C.3     1  UNL1        0.0358
     18 C          -5.0900  -18.8425   21.9221 C.2     1  UNL1        0.0342
     19 C          -4.8929  -17.5631   22.6799 C.2     1  UNL1        0.1013
     20 N          -3.6519  -16.7482   22.4658 N.2     1  UNL1       -0.2501
     21 C          -2.6080  -17.2127   21.4939 C.2     1  UNL1        0.0661
     22 C          -1.3671  -16.3977   21.2798 C.3     1  UNL1        0.0718
     23 C          -0.3232  -16.8622   20.3079 C.2     1  UNL1       -0.0198
     24 C          -0.5203  -18.1416   19.5501 C.2     1  UNL1       -0.0040
     25 C          -1.7613  -18.9565   19.7641 C.2     1  UNL1        0.0040
     26 C          -2.8051  -18.4921   20.7360 C.2     1  UNL1        0.0525
     27 C          -4.0462  -19.3070   20.9502 C.2     1  UNL1        0.1940
     28 O          -4.2433  -20.5864   20.1924 O.2     1  UNL1       -0.2868
@<TRIPOS>BOND
     1    17    18    1
     2    18    19    2
     3    19    16    1
     4    16     1    1
     5     1     2    1
     6     2     3   ar
     7     3     4   ar
     8     4     5   ar
     9     5     6   ar
    10     6     8    1
    11     8     9    1
    12     9    10    1
    13    10    11    1
    14    11    12    1
    15    11    13    1
    16    11    14    1
    17     6     7   ar
    18    19    20    1
    19    20    21    2
    20    21    22    1
    21    22    23    1
    22    23    24    2
    23    24    25    1
    24    25    26    2
    25    26    27    1
    26    27    28    2
    27    27    18    1
    28     7     2   ar
    29    26    21    1
    30    14    15    1
@<TRIPOS>MOLECULE
*****
 28 30 0 0 0
SMALL
GASTEIGER

@<TRIPOS>ATOM
      1 O         -13.5570   -8.1848   16.2105 O.3     1  UNL1       -0.4673
      2 C         -14.5847   -8.2515   17.3011 C.ar    1  UNL1        0.1612
      3 C         -14.8078   -9.5353   18.0440 C.ar    1  UNL1        0.1359
      4 N         -15.8355   -9.6020   19.1346 N.ar    1  UNL1       -0.2360
      5 C         -16.6401   -8.3847   19.4823 C.ar    1  UNL1        0.1358
      6 C         -16.4170   -7.1008   18.7394 C.ar    1  UNL1        0.1607
      7 C         -15.3893   -7.0342   17.6488 C.ar    1  UNL1        0.0770
      8 O         -17.2216   -5.8836   19.0871 O.3     1  UNL1       -0.4737
      9 C         -16.6055   -4.7847   19.9013 C.3     1  UNL1        0.2079
     10 C         -15.5422   -3.9128   19.3018 C.3     1  UNL1        0.0742
     11 C         -14.3762   -3.4712   20.1355 C.3     1  UNL1        0.0921
     12 C         -14.8237   -2.0454   20.0063 C.3     1  UNL1        0.0294
     13 C         -13.9286   -4.8970   20.2648 C.3     1  UNL1        0.0294
     14 O         -13.2101   -3.0296   20.9693 O.3     1  UNL1       -0.3866
     15 H         -13.2316   -2.0651   21.0702 H       1  UNL1        0.2102
     16 C         -12.1371   -7.8298   16.5387 C.3     1  UNL1        0.2507
     17 C          -9.9278   -7.4758   18.5371 C.3     1  UNL1        0.0358
     18 C         -10.7020   -6.2845   18.0562 C.2     1  UNL1        0.0342
     19 C         -11.8067   -6.4615   17.0570 C.2     1  UNL1        0.1013
     20 N         -12.5810   -5.2702   16.5761 N.2     1  UNL1       -0.2501
     21 C         -12.2506   -3.9018   17.0943 C.2     1  UNL1        0.0661
     22 C         -13.0249   -2.7106   16.6134 C.3     1  UNL1        0.0718
     23 C         -12.6945   -1.3423   17.1317 C.2     1  UNL1       -0.0198
     24 C         -11.5898   -1.1653   18.1309 C.2     1  UNL1       -0.0040
     25 C         -10.8155   -2.3566   18.6118 C.2     1  UNL1        0.0040
     26 C         -11.1459   -3.7248   18.0935 C.2     1  UNL1        0.0525
     27 C         -10.3717   -4.9162   18.5745 C.2     1  UNL1        0.1940
     28 O          -9.2670   -4.7392   19.5737 O.2     1  UNL1       -0.2868
@<TRIPOS>BOND
     1    17    18    1
     2    18    19    2
     3    19    16    1
     4    16     1    1
     5     1     2    1
     6     2     3   ar
     7     3     4   ar
     8     4     5   ar
     9     5     6   ar
    10     6     8    1
    11     8     9    1
    12     9    10    1
    13    10    11    1
    14    11    12    1
    15    11    13    1
    16    11    14    1
    17     6     7   ar
    18    19    20    1
    19    20    21    2
    20    21    22    1
    21    22    23    1
    22    23    24    2
    23    24    25    1
    24    25    26    2
    25    26    27    1
    26    27    28    2
    27    27    18    1
    28     7     2   ar
    29    26    21    1
    30    14    15    1
