@<TRIPOS>MOLECULE
*****
 24 26 0 0 0
SMALL
GASTEIGER

@<TRIPOS>ATOM
      1 C          -8.6590  -16.6970   23.8918 C.3     1  UNL1        0.0728
      2 C          -8.9875  -16.8491   25.3475 C.3     1  UNL1        0.0257
      3 C          -8.3930  -15.6836   26.0810 C.3     1  UNL1        0.0690
      4 N          -7.6969  -14.8113   25.0787 N.3     1  UNL1       -0.2971
      5 C          -7.8614  -15.4377   23.7257 C.3     1  UNL1        0.0759
      6 H          -6.7059  -14.7415   25.3097 H       1  UNL1        0.1233
      7 C          -8.4898  -16.8134   22.4059 C.2     1  UNL1        0.1910
      8 O          -9.3565  -16.0048   21.4868 O.2     1  UNL1       -0.2897
      9 C          -7.4537  -17.7384   21.8392 C.ar    1  UNL1        0.1158
     10 C          -7.8264  -18.7101   20.7590 C.ar    1  UNL1        0.0221
     11 C          -6.7904  -19.6351   20.1923 C.ar    1  UNL1        0.0031
     12 C          -5.3818  -19.5884   20.7058 C.ar    1  UNL1        0.0177
     13 C          -4.3459  -20.5134   20.1391 C.ar    1  UNL1        0.0015
     14 C          -2.9373  -20.4667   20.6527 C.ar    1  UNL1        0.0001
     15 C          -2.5647  -19.4950   21.7329 C.ar    1  UNL1        0.0015
     16 C          -3.6006  -18.5700   22.2996 C.ar    1  UNL1        0.0191
     17 C          -5.0092  -18.6167   21.7861 C.ar    1  UNL1        0.0814
     18 N          -6.0452  -17.6917   22.3528 N.ar    1  UNL1       -0.2425
     19 C          -9.4212  -17.9808   23.7473 C.3     1  UNL1        0.0087
     20 C         -10.9143  -17.9869   23.8918 C.3     1  UNL1        0.0005
     21 C         -12.3904  -16.7227   23.0415 C.3     1  UNL1        0.0000
     22 C         -11.7856  -18.0447   22.6721 C.3     1  UNL1        0.0000
     23 C         -11.1809  -19.3667   22.3028 C.3     1  UNL1        0.0000
     24 C         -12.6569  -18.1026   21.4525 C.3     1  UNL1        0.0000
@<TRIPOS>BOND
     1    21    22    1
     2    22    23    1
     3    22    24    1
     4    22    20    1
     5    20    19    1
     6    19     1    1
     7     1     7    1
     8     7     8    2
     9     7     9    1
    10     9    10   ar
    11    10    11   ar
    12    11    12   ar
    13    12    13   ar
    14    13    14   ar
    15    14    15   ar
    16    15    16   ar
    17    16    17   ar
    18    17    18   ar
    19     1     2    1
    20     2     3    1
    21     3     4    1
    22     4     5    1
    23     5     1    1
    24    18     9   ar
    25    17    12   ar
    26     4     6    1
@<TRIPOS>MOLECULE
*****
 24 26 0 0 0
SMALL
GASTEIGER

@<TRIPOS>ATOM
      1 C          -9.3009  -18.0144   23.5454 C.3     1  UNL1        0.0728
      2 C          -9.8134  -18.1223   24.9509 C.3     1  UNL1        0.0257
      3 C         -10.3654  -19.5044   25.1382 C.3     1  UNL1        0.0690
      4 N         -10.1940  -20.2506   23.8484 N.3     1  UNL1       -0.2971
      5 C          -9.5361  -19.3298   22.8640 C.3     1  UNL1        0.0759
      6 H         -11.1047  -20.5428   23.4939 H       1  UNL1        0.1233
      7 C          -8.7135  -17.6141   22.2245 C.2     1  UNL1        0.1910
      8 O          -9.4080  -16.5925   21.3736 O.2     1  UNL1       -0.2897
      9 C          -7.4316  -18.2353   21.7545 C.ar    1  UNL1        0.1158
     10 C          -7.4360  -19.1650   20.5774 C.ar    1  UNL1        0.0221
     11 C          -6.1542  -19.7862   20.1074 C.ar    1  UNL1        0.0031
     12 C          -4.8678  -19.4777   20.8146 C.ar    1  UNL1        0.0177
     13 C          -3.5859  -20.0989   20.3446 C.ar    1  UNL1        0.0015
     14 C          -2.2996  -19.7904   21.0518 C.ar    1  UNL1        0.0001
     15 C          -2.2951  -18.8607   22.2289 C.ar    1  UNL1        0.0015
     16 C          -3.5769  -18.2395   22.6989 C.ar    1  UNL1        0.0191
     17 C          -4.8633  -18.5480   21.9917 C.ar    1  UNL1        0.0814
     18 N          -6.1452  -17.9268   22.4617 N.ar    1  UNL1       -0.2425
     19 C          -8.9428  -16.6153   23.9506 C.3     1  UNL1        0.0087
     20 C          -8.8151  -16.2647   25.4035 C.3     1  UNL1        0.0005
     21 C          -7.1762  -15.2116   24.5640 C.3     1  UNL1        0.0000
     22 C          -7.5220  -15.7190   25.9326 C.3     1  UNL1        0.0000
     23 C          -7.8678  -16.2263   27.3011 C.3     1  UNL1        0.0000
     24 C          -6.2288  -15.1732   26.4616 C.3     1  UNL1        0.0000
@<TRIPOS>BOND
     1    21    22    1
     2    22    23    1
     3    22    24    1
     4    22    20    1
     5    20    19    1
     6    19     1    1
     7     1     7    1
     8     7     8    2
     9     7     9    1
    10     9    10   ar
    11    10    11   ar
    12    11    12   ar
    13    12    13   ar
    14    13    14   ar
    15    14    15   ar
    16    15    16   ar
    17    16    17   ar
    18    17    18   ar
    19     1     2    1
    20     2     3    1
    21     3     4    1
    22     4     5    1
    23     5     1    1
    24    18     9   ar
    25    17    12   ar
    26     4     6    1
@<TRIPOS>MOLECULE
*****
 24 26 0 0 0
SMALL
GASTEIGER

@<TRIPOS>ATOM
      1 C          -9.4194  -18.8989   23.0793 C.3     1  UNL1        0.0728
      2 C         -10.0273  -18.2449   24.2845 C.3     1  UNL1        0.0257
      3 C         -10.1783  -19.2883   25.3514 C.3     1  UNL1        0.0690
      4 N          -9.6636  -20.5872   24.8055 N.3     1  UNL1       -0.2971
      5 C          -9.1946  -20.3465   23.4013 C.3     1  UNL1        0.0759
      6 H         -10.4094  -21.2830   24.8069 H       1  UNL1        0.1233
      7 C          -8.8328  -19.2662   21.7485 C.2     1  UNL1        0.1910
      8 O          -9.7340  -19.5326   20.5794 O.2     1  UNL1       -0.2897
      9 C          -7.3449  -19.3673   21.5869 C.ar    1  UNL1        0.1158
     10 C          -6.7623  -20.3193   20.5847 C.ar    1  UNL1        0.0221
     11 C          -5.2745  -20.4203   20.4231 C.ar    1  UNL1        0.0031
     12 C          -4.3692  -19.5694   21.2636 C.ar    1  UNL1        0.0177
     13 C          -2.8814  -19.6705   21.1020 C.ar    1  UNL1        0.0015
     14 C          -1.9762  -18.8196   21.9425 C.ar    1  UNL1        0.0001
     15 C          -2.5588  -17.8676   22.9447 C.ar    1  UNL1        0.0015
     16 C          -4.0466  -17.7666   23.1063 C.ar    1  UNL1        0.0191
     17 C          -4.9518  -18.6174   22.2658 C.ar    1  UNL1        0.0814
     18 N          -6.4397  -18.5164   22.4274 N.ar    1  UNL1       -0.2425
     19 C          -9.5215  -17.5280   22.4791 C.3     1  UNL1        0.0087
     20 C         -10.8526  -16.8410   22.4003 C.3     1  UNL1        0.0005
     21 C         -12.6212  -17.2803   21.3144 C.3     1  UNL1        0.0000
     22 C         -11.4083  -16.4328   21.0682 C.3     1  UNL1        0.0000
     23 C         -10.1955  -15.5853   20.8219 C.3     1  UNL1        0.0000
     24 C         -11.9640  -16.0246   19.7360 C.3     1  UNL1        0.0000
@<TRIPOS>BOND
     1    21    22    1
     2    22    23    1
     3    22    24    1
     4    22    20    1
     5    20    19    1
     6    19     1    1
     7     1     7    1
     8     7     8    2
     9     7     9    1
    10     9    10   ar
    11    10    11   ar
    12    11    12   ar
    13    12    13   ar
    14    13    14   ar
    15    14    15   ar
    16    15    16   ar
    17    16    17   ar
    18    17    18   ar
    19     1     2    1
    20     2     3    1
    21     3     4    1
    22     4     5    1
    23     5     1    1
    24    18     9   ar
    25    17    12   ar
    26     4     6    1
@<TRIPOS>MOLECULE
*****
 24 26 0 0 0
SMALL
GASTEIGER

@<TRIPOS>ATOM
      1 C          -9.4091  -17.7236   22.5600 C.3     1  UNL1        0.0728
      2 C         -10.0950  -16.3906   22.6122 C.3     1  UNL1        0.0257
      3 C         -10.6555  -16.1040   21.2507 C.3     1  UNL1        0.0690
      4 N         -10.3161  -17.2600   20.3571 N.3     1  UNL1       -0.2971
      5 C          -9.5458  -18.2609   21.1663 C.3     1  UNL1        0.0759
      6 H          -9.7478  -16.9369   19.5741 H       1  UNL1        0.1233
      7 C          -8.6621  -19.0000   22.8101 C.2     1  UNL1        0.1910
      8 O          -9.3139  -20.1127   23.5762 O.2     1  UNL1       -0.2897
      9 C          -7.2632  -19.1637   22.2940 C.ar    1  UNL1        0.1158
     10 C          -6.9732  -20.1689   21.2190 C.ar    1  UNL1        0.0221
     11 C          -5.5743  -20.3326   20.7030 C.ar    1  UNL1        0.0031
     12 C          -4.4654  -19.4912   21.2619 C.ar    1  UNL1        0.0177
     13 C          -3.0665  -19.6550   20.7458 C.ar    1  UNL1        0.0015
     14 C          -1.9577  -18.8136   21.3048 C.ar    1  UNL1        0.0001
     15 C          -2.2476  -17.8085   22.3798 C.ar    1  UNL1        0.0015
     16 C          -3.6465  -17.6447   22.8958 C.ar    1  UNL1        0.0191
     17 C          -4.7553  -18.4861   22.3369 C.ar    1  UNL1        0.0814
     18 N          -6.1543  -18.3224   22.8530 N.ar    1  UNL1       -0.2425
     19 C          -9.1163  -17.4531   24.0060 C.3     1  UNL1        0.0087
     20 C          -8.8527  -16.0507   24.4683 C.3     1  UNL1        0.0005
     21 C          -8.4557  -16.3632   26.5286 C.3     1  UNL1        0.0000
     22 C          -7.6965  -15.7666   25.3808 C.3     1  UNL1        0.0000
     23 C          -6.9373  -15.1699   24.2330 C.3     1  UNL1        0.0000
     24 C          -6.5403  -15.4825   26.2932 C.3     1  UNL1        0.0000
@<TRIPOS>BOND
     1    21    22    1
     2    22    23    1
     3    22    24    1
     4    22    20    1
     5    20    19    1
     6    19     1    1
     7     1     7    1
     8     7     8    2
     9     7     9    1
    10     9    10   ar
    11    10    11   ar
    12    11    12   ar
    13    12    13   ar
    14    13    14   ar
    15    14    15   ar
    16    15    16   ar
    17    16    17   ar
    18    17    18   ar
    19     1     2    1
    20     2     3    1
    21     3     4    1
    22     4     5    1
    23     5     1    1
    24    18     9   ar
    25    17    12   ar
    26     4     6    1
@<TRIPOS>MOLECULE
*****
 24 26 0 0 0
SMALL
GASTEIGER

@<TRIPOS>ATOM
      1 C          -8.0784  -17.6808   22.1115 C.3     1  UNL1        0.0728
      2 C          -8.8222  -16.3811   22.1986 C.3     1  UNL1        0.0257
      3 C         -10.0347  -16.4813   21.3212 C.3     1  UNL1        0.0690
      4 N         -10.0402  -17.8429   20.6920 N.3     1  UNL1       -0.2971
      5 C          -8.8312  -18.5842   21.1804 C.3     1  UNL1        0.0759
      6 H         -10.0055  -17.7550   19.6763 H       1  UNL1        0.1233
      7 C          -7.1360  -18.8424   22.2241 C.2     1  UNL1        0.1910
      8 O          -7.6539  -20.1924   22.6232 O.2     1  UNL1       -0.2897
      9 C          -5.6757  -18.6539   21.9375 C.ar    1  UNL1        0.1158
     10 C          -4.6945  -18.5678   23.0688 C.ar    1  UNL1        0.0221
     11 C          -3.2342  -18.3793   22.7823 C.ar    1  UNL1        0.0031
     12 C          -2.7551  -18.2770   21.3645 C.ar    1  UNL1        0.0177
     13 C          -1.2949  -18.0885   21.0780 C.ar    1  UNL1        0.0015
     14 C          -0.8159  -17.9862   19.6603 C.ar    1  UNL1        0.0001
     15 C          -1.7972  -18.0724   18.5290 C.ar    1  UNL1        0.0015
     16 C          -3.2574  -18.2608   18.8155 C.ar    1  UNL1        0.0191
     17 C          -3.7364  -18.3631   20.2332 C.ar    1  UNL1        0.0814
     18 N          -5.1967  -18.5516   20.5198 N.ar    1  UNL1       -0.2425
     19 C          -7.1286  -17.0202   23.0662 C.3     1  UNL1        0.0087
     20 C          -7.6524  -16.1026   24.1309 C.3     1  UNL1        0.0005
     21 C          -5.6603  -15.3766   24.1970 C.3     1  UNL1        0.0000
     22 C          -6.7381  -15.6108   25.2136 C.3     1  UNL1        0.0000
     23 C          -7.8159  -15.8451   26.2301 C.3     1  UNL1        0.0000
     24 C          -5.8238  -15.1190   26.2963 C.3     1  UNL1        0.0000
@<TRIPOS>BOND
     1    21    22    1
     2    22    23    1
     3    22    24    1
     4    22    20    1
     5    20    19    1
     6    19     1    1
     7     1     7    1
     8     7     8    2
     9     7     9    1
    10     9    10   ar
    11    10    11   ar
    12    11    12   ar
    13    12    13   ar
    14    13    14   ar
    15    14    15   ar
    16    15    16   ar
    17    16    17   ar
    18    17    18   ar
    19     1     2    1
    20     2     3    1
    21     3     4    1
    22     4     5    1
    23     5     1    1
    24    18     9   ar
    25    17    12   ar
    26     4     6    1
@<TRIPOS>MOLECULE
*****
 24 26 0 0 0
SMALL
GASTEIGER

@<TRIPOS>ATOM
      1 C         -10.9869  -17.9161   21.8929 C.3     1  UNL1        0.0728
      2 C         -10.6860  -18.0845   20.4331 C.3     1  UNL1        0.0257
      3 C         -11.5348  -17.1116   19.6697 C.3     1  UNL1        0.0690
      4 N         -12.3603  -16.3420   20.6576 N.3     1  UNL1       -0.2971
      5 C         -12.0217  -16.8392   22.0317 C.3     1  UNL1        0.0759
      6 H         -13.3519  -16.4906   20.4704 H       1  UNL1        0.1233
      7 C         -11.0754  -17.9755   23.3891 C.2     1  UNL1        0.1910
      8 O         -12.2918  -18.5575   24.0460 O.2     1  UNL1       -0.2897
      9 C          -9.9473  -17.4529   24.2285 C.ar    1  UNL1        0.1158
     10 C          -9.9203  -17.7266   25.7030 C.ar    1  UNL1        0.0221
     11 C          -8.7923  -17.2040   26.5424 C.ar    1  UNL1        0.0031
     12 C          -7.6913  -16.4076   25.9071 C.ar    1  UNL1        0.0177
     13 C          -6.5633  -15.8850   26.7465 C.ar    1  UNL1        0.0015
     14 C          -5.4623  -15.0886   26.1112 C.ar    1  UNL1        0.0001
     15 C          -5.4893  -14.8149   24.6367 C.ar    1  UNL1        0.0015
     16 C          -6.6173  -15.3375   23.7973 C.ar    1  UNL1        0.0191
     17 C          -7.7183  -16.1338   24.4326 C.ar    1  UNL1        0.0814
     18 N          -8.8463  -16.6565   23.5932 N.ar    1  UNL1       -0.2425
     19 C          -9.9705  -19.0055   22.0670 C.3     1  UNL1        0.0087
     20 C          -8.8878  -19.1913   21.0456 C.3     1  UNL1        0.0005
     21 C          -8.0944  -20.1097   22.7855 C.3     1  UNL1        0.0000
     22 C          -7.5282  -19.6612   21.4708 C.3     1  UNL1        0.0000
     23 C          -6.9621  -19.2127   20.1563 C.3     1  UNL1        0.0000
     24 C          -6.1687  -20.1311   21.8961 C.3     1  UNL1        0.0000
@<TRIPOS>BOND
     1    21    22    1
     2    22    23    1
     3    22    24    1
     4    22    20    1
     5    20    19    1
     6    19     1    1
     7     1     7    1
     8     7     8    2
     9     7     9    1
    10     9    10   ar
    11    10    11   ar
    12    11    12   ar
    13    12    13   ar
    14    13    14   ar
    15    14    15   ar
    16    15    16   ar
    17    16    17   ar
    18    17    18   ar
    19     1     2    1
    20     2     3    1
    21     3     4    1
    22     4     5    1
    23     5     1    1
    24    18     9   ar
    25    17    12   ar
    26     4     6    1
@<TRIPOS>MOLECULE
*****
 24 26 0 0 0
SMALL
GASTEIGER

@<TRIPOS>ATOM
      1 C         -10.5525  -17.2449   21.5202 C.3     1  UNL1        0.0728
      2 C         -11.1745  -18.6092   21.5618 C.3     1  UNL1        0.0257
      3 C         -12.6307  -18.4649   21.2324 C.3     1  UNL1        0.0690
      4 N         -12.9086  -17.0115   20.9871 N.3     1  UNL1       -0.2971
      5 C         -11.6242  -16.2575   21.1651 C.3     1  UNL1        0.0759
      6 H         -13.6030  -16.6745   21.6540 H       1  UNL1        0.1233
      7 C          -9.6677  -16.0341   21.5544 C.2     1  UNL1        0.1910
      8 O          -9.7394  -15.0214   20.4502 O.2     1  UNL1       -0.2897
      9 C          -8.7111  -15.8361   22.6928 C.ar    1  UNL1        0.1158
     10 C          -7.2854  -15.4598   22.4176 C.ar    1  UNL1        0.0221
     11 C          -6.3289  -15.2617   23.5559 C.ar    1  UNL1        0.0031
     12 C          -6.7981  -15.4400   24.9695 C.ar    1  UNL1        0.0177
     13 C          -5.8416  -15.2419   26.1079 C.ar    1  UNL1        0.0015
     14 C          -6.3108  -15.4202   27.5214 C.ar    1  UNL1        0.0001
     15 C          -7.7365  -15.7965   27.7965 C.ar    1  UNL1        0.0015
     16 C          -8.6930  -15.9945   26.6582 C.ar    1  UNL1        0.0191
     17 C          -8.2238  -15.8163   25.2447 C.ar    1  UNL1        0.0814
     18 N          -9.1803  -16.0143   24.1063 N.ar    1  UNL1       -0.2425
     19 C          -9.2957  -17.9793   21.8826 C.3     1  UNL1        0.0087
     20 C          -8.7428  -19.0218   20.9567 C.3     1  UNL1        0.0005
     21 C          -7.8557  -19.9968   22.6188 C.3     1  UNL1        0.0000
     22 C          -7.4033  -19.6373   21.2345 C.3     1  UNL1        0.0000
     23 C          -6.9510  -19.2778   19.8504 C.3     1  UNL1        0.0000
     24 C          -6.0639  -20.2528   21.5124 C.3     1  UNL1        0.0000
@<TRIPOS>BOND
     1    21    22    1
     2    22    23    1
     3    22    24    1
     4    22    20    1
     5    20    19    1
     6    19     1    1
     7     1     7    1
     8     7     8    2
     9     7     9    1
    10     9    10   ar
    11    10    11   ar
    12    11    12   ar
    13    12    13   ar
    14    13    14   ar
    15    14    15   ar
    16    15    16   ar
    17    16    17   ar
    18    17    18   ar
    19     1     2    1
    20     2     3    1
    21     3     4    1
    22     4     5    1
    23     5     1    1
    24    18     9   ar
    25    17    12   ar
    26     4     6    1
@<TRIPOS>MOLECULE
*****
 24 26 0 0 0
SMALL
GASTEIGER

@<TRIPOS>ATOM
      1 C         -10.4019  -17.0701   22.5785 C.3     1  UNL1        0.0728
      2 C         -11.5938  -17.1761   23.4831 C.3     1  UNL1        0.0257
      3 C         -12.6530  -17.9580   22.7645 C.3     1  UNL1        0.0690
      4 N         -12.1158  -18.3353   21.4157 N.3     1  UNL1       -0.2971
      5 C         -10.7245  -17.7865   21.3009 C.3     1  UNL1        0.0759
      6 H         -12.7059  -17.9383   20.6846 H       1  UNL1        0.1233
      7 C          -9.0851  -16.8026   21.9120 C.2     1  UNL1        0.1910
      8 O          -8.7340  -15.4109   21.4762 O.2     1  UNL1       -0.2897
      9 C          -8.1192  -17.9269   21.6811 C.ar    1  UNL1        0.1158
     10 C          -8.3385  -19.2527   22.3476 C.ar    1  UNL1        0.0221
     11 C          -7.3727  -20.3769   22.1168 C.ar    1  UNL1        0.0031
     12 C          -6.1876  -20.1754   21.2196 C.ar    1  UNL1        0.0177
     13 C          -5.2219  -21.2997   20.9888 C.ar    1  UNL1        0.0015
     14 C          -4.0368  -21.0981   20.0916 C.ar    1  UNL1        0.0001
     15 C          -3.8175  -19.7723   19.4252 C.ar    1  UNL1        0.0015
     16 C          -4.7833  -18.6480   19.6560 C.ar    1  UNL1        0.0191
     17 C          -5.9683  -18.8496   20.5532 C.ar    1  UNL1        0.0814
     18 N          -6.9342  -17.7253   20.7840 N.ar    1  UNL1       -0.2425
     19 C          -9.8040  -16.2977   23.7169 C.3     1  UNL1        0.0087
     20 C          -9.1867  -17.0250   24.8745 C.3     1  UNL1        0.0005
     21 C          -8.9442  -17.2888   26.9653 C.3     1  UNL1        0.0000
     22 C          -8.5096  -16.2549   25.9692 C.3     1  UNL1        0.0000
     23 C          -8.0751  -15.2211   24.9732 C.3     1  UNL1        0.0000
     24 C          -7.8325  -15.4848   27.0640 C.3     1  UNL1        0.0000
@<TRIPOS>BOND
     1    21    22    1
     2    22    23    1
     3    22    24    1
     4    22    20    1
     5    20    19    1
     6    19     1    1
     7     1     7    1
     8     7     8    2
     9     7     9    1
    10     9    10   ar
    11    10    11   ar
    12    11    12   ar
    13    12    13   ar
    14    13    14   ar
    15    14    15   ar
    16    15    16   ar
    17    16    17   ar
    18    17    18   ar
    19     1     2    1
    20     2     3    1
    21     3     4    1
    22     4     5    1
    23     5     1    1
    24    18     9   ar
    25    17    12   ar
    26     4     6    1
@<TRIPOS>MOLECULE
*****
 24 26 0 0 0
SMALL
GASTEIGER

@<TRIPOS>ATOM
      1 C         -10.6266  -18.8327   22.8703 C.3     1  UNL1        0.0728
      2 C         -11.8964  -18.5008   23.5966 C.3     1  UNL1        0.0257
      3 C         -11.7798  -19.0252   24.9971 C.3     1  UNL1        0.0690
      4 N         -10.4380  -19.6811   25.1363 N.3     1  UNL1       -0.2971
      5 C          -9.7253  -19.5621   23.8218 C.3     1  UNL1        0.0759
      6 H         -10.5570  -20.6649   25.3777 H       1  UNL1        0.1233
      7 C          -9.4959  -19.0203   21.9026 C.2     1  UNL1        0.1910
      8 O          -9.7412  -19.6903   20.5833 O.2     1  UNL1       -0.2897
      9 C          -8.1198  -18.5377   22.2545 C.ar    1  UNL1        0.1158
     10 C          -7.9477  -17.2811   23.0552 C.ar    1  UNL1        0.0221
     11 C          -6.5717  -16.7985   23.4070 C.ar    1  UNL1        0.0031
     12 C          -5.3678  -17.5727   22.9581 C.ar    1  UNL1        0.0177
     13 C          -3.9919  -17.0901   23.3100 C.ar    1  UNL1        0.0015
     14 C          -2.7881  -17.8642   22.8611 C.ar    1  UNL1        0.0001
     15 C          -2.9602  -19.1209   22.0603 C.ar    1  UNL1        0.0015
     16 C          -4.3362  -19.6034   21.7085 C.ar    1  UNL1        0.0191
     17 C          -5.5400  -18.8293   22.1574 C.ar    1  UNL1        0.0814
     18 N          -6.9160  -19.3118   21.8056 N.ar    1  UNL1       -0.2425
     19 C         -11.2916  -18.1425   21.7164 C.3     1  UNL1        0.0087
     20 C         -11.3697  -16.6449   21.6822 C.3     1  UNL1        0.0005
     21 C         -12.5931  -16.3410   19.9761 C.3     1  UNL1        0.0000
     22 C         -11.2130  -15.9151   20.3811 C.3     1  UNL1        0.0000
     23 C          -9.8330  -15.4894   20.7861 C.3     1  UNL1        0.0000
     24 C         -11.0563  -15.1854   19.0800 C.3     1  UNL1        0.0000
@<TRIPOS>BOND
     1    21    22    1
     2    22    23    1
     3    22    24    1
     4    22    20    1
     5    20    19    1
     6    19     1    1
     7     1     7    1
     8     7     8    2
     9     7     9    1
    10     9    10   ar
    11    10    11   ar
    12    11    12   ar
    13    12    13   ar
    14    13    14   ar
    15    14    15   ar
    16    15    16   ar
    17    16    17   ar
    18    17    18   ar
    19     1     2    1
    20     2     3    1
    21     3     4    1
    22     4     5    1
    23     5     1    1
    24    18     9   ar
    25    17    12   ar
    26     4     6    1
