@<TRIPOS>MOLECULE
*****
 21 24 0 0 0
SMALL
GASTEIGER

@<TRIPOS>ATOM
      1 C         -12.0063  -16.7696   22.7412 C.3     1  UNL1        0.0310
      2 C         -10.8505  -17.4619   22.0817 C.ar    1  UNL1       -0.0221
      3 C          -9.4571  -17.2489   22.5944 C.ar    1  UNL1       -0.0046
      4 C          -8.3013  -17.9412   21.9349 C.ar    1  UNL1       -0.0045
      5 C          -8.5390  -18.8465   20.7628 C.ar    1  UNL1       -0.0197
      6 C          -9.9325  -19.0595   20.2501 C.ar    1  UNL1       -0.0101
      7 C         -11.0882  -18.3672   20.9096 C.ar    1  UNL1       -0.0075
      8 C         -10.1702  -19.9648   19.0779 C.3     1  UNL1        0.0989
      9 N          -9.0145  -20.6571   18.4184 N.3     1  UNL1       -0.2671
     10 C          -9.2522  -21.5623   17.2463 C.3     1  UNL1        0.0899
     11 C          -7.6209  -20.4440   18.9311 C.3     1  UNL1        0.0811
     12 C          -7.3832  -19.5388   20.1033 C.3     1  UNL1        0.0602
     13 C          -5.9898  -19.3258   20.6159 C.ar    1  UNL1       -0.0170
     14 C          -5.6866  -19.5288   22.0709 C.ar    1  UNL1       -0.0034
     15 C          -4.2932  -19.3158   22.5835 C.ar    1  UNL1        0.0062
     16 C          -3.2028  -18.8998   21.6412 C.ar    1  UNL1        0.0295
     17 S          -1.7452  -18.6172   21.8549 S.2     1  UNL1       -0.0864
     18 C          -1.1475  -18.2395   20.5320 C.ar    1  UNL1        0.0354
     19 C          -2.2356  -18.2887   19.5007 C.ar    1  UNL1        0.0075
     20 C          -3.5058  -18.6968   20.1863 C.ar    1  UNL1        0.0062
     21 C          -4.8993  -18.9098   19.6736 C.ar    1  UNL1       -0.0034
@<TRIPOS>BOND
     1     1     2    1
     2     2     3   ar
     3     3     4   ar
     4     4     5   ar
     5     5     6   ar
     6     6     7   ar
     7     6     8    1
     8     8     9    1
     9     9    10    1
    10     9    11    1
    11    11    12    1
    12    12    13    1
    13    13    14   ar
    14    14    15   ar
    15    15    16   ar
    16    16    17   ar
    17    17    18   ar
    18    18    19   ar
    19    19    20   ar
    20    20    21   ar
    21     7     2   ar
    22    21    13   ar
    23    12     5    1
    24    20    16   ar
@<TRIPOS>MOLECULE
*****
 21 24 0 0 0
SMALL
GASTEIGER

@<TRIPOS>ATOM
      1 C         -11.6610  -17.0459   22.0720 C.3     1  UNL1        0.0310
      2 C         -10.2379  -16.9525   22.5368 C.ar    1  UNL1       -0.0221
      3 C          -9.1336  -17.5102   21.6885 C.ar    1  UNL1       -0.0046
      4 C          -7.7105  -17.4168   22.1534 C.ar    1  UNL1       -0.0045
      5 C          -7.3917  -16.7658   23.4666 C.ar    1  UNL1       -0.0197
      6 C          -8.4959  -16.2082   24.3149 C.ar    1  UNL1       -0.0101
      7 C          -9.9190  -16.3015   23.8500 C.ar    1  UNL1       -0.0075
      8 C          -8.1771  -15.5571   25.6281 C.3     1  UNL1        0.0989
      9 N          -6.7540  -15.4638   26.0930 N.3     1  UNL1       -0.2671
     10 C          -6.4351  -14.8128   27.4062 C.3     1  UNL1        0.0899
     11 C          -5.6497  -16.0214   25.2446 C.3     1  UNL1        0.0811
     12 C          -5.9686  -16.6724   23.9314 C.3     1  UNL1        0.0602
     13 C          -4.8644  -17.2300   23.0831 C.ar    1  UNL1       -0.0170
     14 C          -4.8867  -18.6739   22.6768 C.ar    1  UNL1       -0.0034
     15 C          -3.7825  -19.2315   21.8285 C.ar    1  UNL1        0.0062
     16 C          -2.6559  -18.3454   21.3864 C.ar    1  UNL1        0.0295
     17 S          -1.4378  -18.6111   20.5523 S.2     1  UNL1       -0.0864
     18 C          -0.6626  -17.3317   20.4430 C.ar    1  UNL1        0.0354
     19 C          -1.4016  -16.2751   21.2096 C.ar    1  UNL1        0.0075
     20 C          -2.6334  -16.9016   21.7926 C.ar    1  UNL1        0.0062
     21 C          -3.7377  -16.3439   22.6410 C.ar    1  UNL1       -0.0034
@<TRIPOS>BOND
     1     1     2    1
     2     2     3   ar
     3     3     4   ar
     4     4     5   ar
     5     5     6   ar
     6     6     7   ar
     7     6     8    1
     8     8     9    1
     9     9    10    1
    10     9    11    1
    11    11    12    1
    12    12    13    1
    13    13    14   ar
    14    14    15   ar
    15    15    16   ar
    16    16    17   ar
    17    17    18   ar
    18    18    19   ar
    19    19    20   ar
    20    20    21   ar
    21     7     2   ar
    22    21    13   ar
    23    12     5    1
    24    20    16   ar
@<TRIPOS>MOLECULE
*****
 21 24 0 0 0
SMALL
GASTEIGER

@<TRIPOS>ATOM
      1 C         -11.5249  -17.6498   22.0116 C.3     1  UNL1        0.0310
      2 C         -10.1458  -17.3556   22.5231 C.ar    1  UNL1       -0.0221
      3 C          -8.9473  -17.7042   21.6913 C.ar    1  UNL1       -0.0046
      4 C          -7.5682  -17.4101   22.2027 C.ar    1  UNL1       -0.0045
      5 C          -7.3876  -16.7674   23.5459 C.ar    1  UNL1       -0.0197
      6 C          -8.5862  -16.4189   24.3777 C.ar    1  UNL1       -0.0101
      7 C          -9.9653  -16.7130   23.8663 C.ar    1  UNL1       -0.0075
      8 C          -8.4057  -15.7762   25.7211 C.3     1  UNL1        0.0989
      9 N          -7.0266  -15.4820   26.2325 N.3     1  UNL1       -0.2671
     10 C          -6.8460  -14.8394   27.5757 C.3     1  UNL1        0.0899
     11 C          -5.8280  -15.8306   25.4006 C.3     1  UNL1        0.0811
     12 C          -6.0085  -16.4733   24.0574 C.3     1  UNL1        0.0602
     13 C          -4.8100  -16.8219   23.2256 C.ar    1  UNL1       -0.0170
     14 C          -3.7855  -15.7727   22.9096 C.ar    1  UNL1       -0.0034
     15 C          -2.5869  -16.1213   22.0778 C.ar    1  UNL1        0.0062
     16 C          -2.4128  -17.5190   21.5619 C.ar    1  UNL1        0.0295
     17 S          -1.3425  -18.1536   20.7243 S.2     1  UNL1       -0.0864
     18 C          -1.7054  -19.5950   20.5226 C.ar    1  UNL1        0.0354
     19 C          -3.0001  -19.8512   21.2356 C.ar    1  UNL1        0.0075
     20 C          -3.4372  -18.5681   21.8779 C.ar    1  UNL1        0.0062
     21 C          -4.6358  -18.2196   22.7097 C.ar    1  UNL1       -0.0034
@<TRIPOS>BOND
     1     1     2    1
     2     2     3   ar
     3     3     4   ar
     4     4     5   ar
     5     5     6   ar
     6     6     7   ar
     7     6     8    1
     8     8     9    1
     9     9    10    1
    10     9    11    1
    11    11    12    1
    12    12    13    1
    13    13    14   ar
    14    14    15   ar
    15    15    16   ar
    16    16    17   ar
    17    17    18   ar
    18    18    19   ar
    19    19    20   ar
    20    20    21   ar
    21     7     2   ar
    22    21    13   ar
    23    12     5    1
    24    20    16   ar
@<TRIPOS>MOLECULE
*****
 21 24 0 0 0
SMALL
GASTEIGER

@<TRIPOS>ATOM
      1 C         -12.5025   -0.3624   18.5635 C.3     1  UNL1        0.0310
      2 C         -12.6681   -1.8530   18.5367 C.ar    1  UNL1       -0.0221
      3 C         -14.0283   -2.4530   18.3372 C.ar    1  UNL1       -0.0046
      4 C         -14.1939   -3.9436   18.3105 C.ar    1  UNL1       -0.0045
      5 C         -12.9994   -4.8341   18.4832 C.ar    1  UNL1       -0.0197
      6 C         -11.6392   -4.2341   18.6827 C.ar    1  UNL1       -0.0101
      7 C         -11.4736   -2.7435   18.7095 C.ar    1  UNL1       -0.0075
      8 C         -10.4445   -5.1247   18.8554 C.3     1  UNL1        0.0989
      9 N         -10.6101   -6.6153   18.8287 N.3     1  UNL1       -0.2671
     10 C          -9.4156   -7.5058   19.0014 C.3     1  UNL1        0.0899
     11 C         -11.9704   -7.2153   18.6292 C.3     1  UNL1        0.0811
     12 C         -13.1650   -6.3247   18.4564 C.3     1  UNL1        0.0602
     13 C         -14.5251   -6.9248   18.2569 C.ar    1  UNL1       -0.0170
     14 C         -14.9852   -7.2987   16.8790 C.ar    1  UNL1       -0.0034
     15 C         -16.3454   -7.8988   16.6795 C.ar    1  UNL1        0.0062
     16 C         -17.2456   -8.1249   17.8579 C.ar    1  UNL1        0.0295
     17 S         -18.6289   -8.6940   17.9696 S.2     1  UNL1       -0.0864
     18 C         -19.0238   -8.6718   19.4165 C.ar    1  UNL1        0.0354
     19 C         -17.8845   -8.0889   20.1990 C.ar    1  UNL1        0.0075
     20 C         -16.7856   -7.7509   19.2357 C.ar    1  UNL1        0.0062
     21 C         -15.4253   -7.1508   19.4353 C.ar    1  UNL1       -0.0034
@<TRIPOS>BOND
     1     1     2    1
     2     2     3   ar
     3     3     4   ar
     4     4     5   ar
     5     5     6   ar
     6     6     7   ar
     7     6     8    1
     8     8     9    1
     9     9    10    1
    10     9    11    1
    11    11    12    1
    12    12    13    1
    13    13    14   ar
    14    14    15   ar
    15    15    16   ar
    16    16    17   ar
    17    17    18   ar
    18    18    19   ar
    19    19    20   ar
    20    20    21   ar
    21     7     2   ar
    22    21    13   ar
    23    12     5    1
    24    20    16   ar
@<TRIPOS>MOLECULE
*****
 21 24 0 0 0
SMALL
GASTEIGER

@<TRIPOS>ATOM
      1 C           5.5374   -2.1842   25.9772 C.3     1  UNL1        0.0310
      2 C           4.9551   -2.0630   24.6001 C.ar    1  UNL1       -0.0221
      3 C           4.1449   -0.8555   24.2321 C.ar    1  UNL1       -0.0046
      4 C           3.5626   -0.7343   22.8550 C.ar    1  UNL1       -0.0045
      5 C           3.7905   -1.8206   21.8460 C.ar    1  UNL1       -0.0197
      6 C           4.6007   -3.0280   22.2141 C.ar    1  UNL1       -0.0101
      7 C           5.1830   -3.1493   23.5911 C.ar    1  UNL1       -0.0075
      8 C           4.8287   -4.1144   21.2051 C.3     1  UNL1        0.0989
      9 N           4.2464   -3.9931   19.8281 N.3     1  UNL1       -0.2671
     10 C           4.4743   -5.0794   18.8191 C.3     1  UNL1        0.0899
     11 C           3.4361   -2.7856   19.4600 C.3     1  UNL1        0.0811
     12 C           3.2082   -1.6993   20.4690 C.3     1  UNL1        0.0602
     13 C           2.3980   -0.4919   20.1009 C.ar    1  UNL1       -0.0170
     14 C           0.9303   -0.4513   20.4081 C.ar    1  UNL1       -0.0034
     15 C           0.1201    0.7562   20.0400 C.ar    1  UNL1        0.0062
     16 C           0.7775    1.9232   19.3648 C.ar    1  UNL1        0.0295
     17 S           0.2401    3.2395   18.8869 S.2     1  UNL1       -0.0864
     18 C           1.3756    4.0125   18.2843 C.ar    1  UNL1        0.0354
     19 C           2.6148    3.1739   18.3899 C.ar    1  UNL1        0.0075
     20 C           2.2452    1.8827   19.0577 C.ar    1  UNL1        0.0062
     21 C           3.0554    0.6751   19.4257 C.ar    1  UNL1       -0.0034
@<TRIPOS>BOND
     1     1     2    1
     2     2     3   ar
     3     3     4   ar
     4     4     5   ar
     5     5     6   ar
     6     6     7   ar
     7     6     8    1
     8     8     9    1
     9     9    10    1
    10     9    11    1
    11    11    12    1
    12    12    13    1
    13    13    14   ar
    14    14    15   ar
    15    15    16   ar
    16    16    17   ar
    17    17    18   ar
    18    18    19   ar
    19    19    20   ar
    20    20    21   ar
    21     7     2   ar
    22    21    13   ar
    23    12     5    1
    24    20    16   ar
@<TRIPOS>MOLECULE
*****
 21 24 0 0 0
SMALL
GASTEIGER

@<TRIPOS>ATOM
      1 C          -8.5752  -14.9935   26.7759 C.3     1  UNL1        0.0310
      2 C          -8.3159  -15.8905   25.6019 C.ar    1  UNL1       -0.0221
      3 C          -6.9426  -15.9639   25.0031 C.ar    1  UNL1       -0.0046
      4 C          -6.6833  -16.8608   23.8291 C.ar    1  UNL1       -0.0045
      5 C          -7.7973  -17.6843   23.2539 C.ar    1  UNL1       -0.0197
      6 C          -9.1706  -17.6109   23.8528 C.ar    1  UNL1       -0.0101
      7 C          -9.4299  -16.7140   25.0268 C.ar    1  UNL1       -0.0075
      8 C         -10.2847  -18.4344   23.2776 C.3     1  UNL1        0.0989
      9 N         -10.0254  -19.3313   22.1036 N.3     1  UNL1       -0.2671
     10 C         -11.1394  -20.1548   21.5285 C.3     1  UNL1        0.0899
     11 C          -8.6520  -19.4048   21.5048 C.3     1  UNL1        0.0811
     12 C          -7.5380  -18.5813   22.0799 C.3     1  UNL1        0.0602
     13 C          -6.1647  -18.6547   21.4811 C.ar    1  UNL1       -0.0170
     14 C          -5.9986  -18.9484   20.0195 C.ar    1  UNL1       -0.0034
     15 C          -4.6253  -19.0219   19.4206 C.ar    1  UNL1        0.0062
     16 C          -3.4181  -18.8016   20.2833 C.ar    1  UNL1        0.0295
     17 S          -1.9499  -18.8117   19.9765 S.2     1  UNL1       -0.0864
     18 C          -1.2086  -18.5243   21.2484 C.ar    1  UNL1        0.0354
     19 C          -2.2187  -18.3365   22.3414 C.ar    1  UNL1        0.0075
     20 C          -3.5842  -18.5079   21.7448 C.ar    1  UNL1        0.0062
     21 C          -4.9576  -18.4345   22.3437 C.ar    1  UNL1       -0.0034
@<TRIPOS>BOND
     1     1     2    1
     2     2     3   ar
     3     3     4   ar
     4     4     5   ar
     5     5     6   ar
     6     6     7   ar
     7     6     8    1
     8     8     9    1
     9     9    10    1
    10     9    11    1
    11    11    12    1
    12    12    13    1
    13    13    14   ar
    14    14    15   ar
    15    15    16   ar
    16    16    17   ar
    17    17    18   ar
    18    18    19   ar
    19    19    20   ar
    20    20    21   ar
    21     7     2   ar
    22    21    13   ar
    23    12     5    1
    24    20    16   ar
@<TRIPOS>MOLECULE
*****
 21 24 0 0 0
SMALL
GASTEIGER

@<TRIPOS>ATOM
      1 C          -9.6543   -6.3939   18.9364 C.3     1  UNL1        0.0310
      2 C         -10.9926   -5.7206   19.0113 C.ar    1  UNL1       -0.0221
      3 C         -11.0825   -4.2239   18.9707 C.ar    1  UNL1       -0.0046
      4 C         -12.4208   -3.5506   19.0456 C.ar    1  UNL1       -0.0045
      5 C         -13.6692   -4.3741   19.1611 C.ar    1  UNL1       -0.0197
      6 C         -13.5793   -5.8708   19.2017 C.ar    1  UNL1       -0.0101
      7 C         -12.2410   -6.5441   19.1268 C.ar    1  UNL1       -0.0075
      8 C         -14.8278   -6.6943   19.3172 C.3     1  UNL1        0.0989
      9 N         -16.1661   -6.0210   19.3921 N.3     1  UNL1       -0.2671
     10 C         -17.4145   -6.8444   19.5076 C.3     1  UNL1        0.0899
     11 C         -16.2559   -4.5242   19.3515 C.3     1  UNL1        0.0811
     12 C         -15.0075   -3.7008   19.2360 C.3     1  UNL1        0.0602
     13 C         -15.0974   -2.2040   19.1954 C.ar    1  UNL1       -0.0170
     14 C         -14.2385   -1.4266   18.2425 C.ar    1  UNL1       -0.0034
     15 C         -14.3284    0.0701   18.2020 C.ar    1  UNL1        0.0062
     16 C         -15.2772    0.7895   19.1142 C.ar    1  UNL1        0.0295
     17 S         -15.5822    2.2466   19.2984 S.2     1  UNL1       -0.0864
     18 C         -16.6295    2.3697   20.3651 C.ar    1  UNL1        0.0354
     19 C         -16.9719    0.9887   20.8401 C.ar    1  UNL1        0.0075
     20 C         -16.1361    0.0121   20.0671 C.ar    1  UNL1        0.0062
     21 C         -16.0463   -1.4847   20.1077 C.ar    1  UNL1       -0.0034
@<TRIPOS>BOND
     1     1     2    1
     2     2     3   ar
     3     3     4   ar
     4     4     5   ar
     5     5     6   ar
     6     6     7   ar
     7     6     8    1
     8     8     9    1
     9     9    10    1
    10     9    11    1
    11    11    12    1
    12    12    13    1
    13    13    14   ar
    14    14    15   ar
    15    15    16   ar
    16    16    17   ar
    17    17    18   ar
    18    18    19   ar
    19    19    20   ar
    20    20    21   ar
    21     7     2   ar
    22    21    13   ar
    23    12     5    1
    24    20    16   ar
@<TRIPOS>MOLECULE
*****
 21 24 0 0 0
SMALL
GASTEIGER

@<TRIPOS>ATOM
      1 C           4.7957   -5.3214   18.9821 C.3     1  UNL1        0.0310
      2 C           4.3095   -4.0982   19.7015 C.ar    1  UNL1       -0.0221
      3 C           3.5238   -3.0561   18.9622 C.ar    1  UNL1       -0.0046
      4 C           3.0376   -1.8329   19.6815 C.ar    1  UNL1       -0.0045
      5 C           3.3372   -1.6518   21.1401 C.ar    1  UNL1       -0.0197
      6 C           4.1229   -2.6940   21.8793 C.ar    1  UNL1       -0.0101
      7 C           4.6091   -3.9172   21.1600 C.ar    1  UNL1       -0.0075
      8 C           4.4225   -2.5129   23.3379 C.3     1  UNL1        0.0989
      9 N           3.9363   -1.2897   24.0572 N.3     1  UNL1       -0.2671
     10 C           4.2359   -1.1086   25.5158 C.3     1  UNL1        0.0899
     11 C           3.1505   -0.2476   23.3179 C.3     1  UNL1        0.0811
     12 C           2.8510   -0.4286   21.8594 C.3     1  UNL1        0.0602
     13 C           2.0652    0.6135   21.1201 C.ar    1  UNL1       -0.0170
     14 C           0.5688    0.6369   21.2218 C.ar    1  UNL1       -0.0034
     15 C          -0.2169    1.6790   20.4825 C.ar    1  UNL1        0.0062
     16 C           0.4936    2.6978   19.6416 C.ar    1  UNL1        0.0295
     17 S          -0.0100    3.8366   18.8054 S.2     1  UNL1       -0.0864
     18 C           1.1750    4.5171   18.1869 C.ar    1  UNL1        0.0354
     19 C           2.4111    3.7988   18.6409 C.ar    1  UNL1        0.0075
     20 C           1.9900    2.6744   19.5399 C.ar    1  UNL1        0.0062
     21 C           2.7758    1.6323   20.2792 C.ar    1  UNL1       -0.0034
@<TRIPOS>BOND
     1     1     2    1
     2     2     3   ar
     3     3     4   ar
     4     4     5   ar
     5     5     6   ar
     6     6     7   ar
     7     6     8    1
     8     8     9    1
     9     9    10    1
    10     9    11    1
    11    11    12    1
    12    12    13    1
    13    13    14   ar
    14    14    15   ar
    15    15    16   ar
    16    16    17   ar
    17    17    18   ar
    18    18    19   ar
    19    19    20   ar
    20    20    21   ar
    21     7     2   ar
    22    21    13   ar
    23    12     5    1
    24    20    16   ar
@<TRIPOS>MOLECULE
*****
 21 24 0 0 0
SMALL
GASTEIGER

@<TRIPOS>ATOM
      1 C           1.4470    1.2643   26.9193 C.3     1  UNL1        0.0310
      2 C           1.4972    1.1544   25.4242 C.ar    1  UNL1       -0.0221
      3 C           2.5171    0.2696   24.7710 C.ar    1  UNL1       -0.0046
      4 C           2.5672    0.1597   23.2758 C.ar    1  UNL1       -0.0045
      5 C           1.5974    0.9347   22.4339 C.ar    1  UNL1       -0.0197
      6 C           0.5775    1.8196   23.0871 C.ar    1  UNL1       -0.0101
      7 C           0.5274    1.9294   24.5823 C.ar    1  UNL1       -0.0075
      8 C          -0.3923    2.5946   22.2452 C.3     1  UNL1        0.0989
      9 N          -0.3422    2.4848   20.7501 N.3     1  UNL1       -0.2671
     10 C          -1.3120    3.2598   19.9082 C.3     1  UNL1        0.0899
     11 C           0.6778    1.5998   20.0969 C.3     1  UNL1        0.0811
     12 C           1.6475    0.8248   20.9388 C.3     1  UNL1        0.0602
     13 C           2.6674   -0.0601   20.2856 C.ar    1  UNL1       -0.0170
     14 C           3.9249    0.5334   19.7228 C.ar    1  UNL1       -0.0034
     15 C           4.9448   -0.3515   19.0696 C.ar    1  UNL1        0.0062
     16 C           4.7073   -1.8298   18.9791 C.ar    1  UNL1        0.0295
     17 S           5.5255   -2.9440   18.3968 S.2     1  UNL1       -0.0864
     18 C           4.7738   -4.2261   18.5997 C.ar    1  UNL1        0.0354
     19 C           3.4910   -3.9042   19.3074 C.ar    1  UNL1        0.0075
     20 C           3.4499   -2.4232   19.5418 C.ar    1  UNL1        0.0062
     21 C           2.4300   -1.5384   20.1951 C.ar    1  UNL1       -0.0034
@<TRIPOS>BOND
     1     1     2    1
     2     2     3   ar
     3     3     4   ar
     4     4     5   ar
     5     5     6   ar
     6     6     7   ar
     7     6     8    1
     8     8     9    1
     9     9    10    1
    10     9    11    1
    11    11    12    1
    12    12    13    1
    13    13    14   ar
    14    14    15   ar
    15    15    16   ar
    16    16    17   ar
    17    17    18   ar
    18    18    19   ar
    19    19    20   ar
    20    20    21   ar
    21     7     2   ar
    22    21    13   ar
    23    12     5    1
    24    20    16   ar
