@<TRIPOS>MOLECULE
*****
 22 23 0 0 0
SMALL
GASTEIGER

@<TRIPOS>ATOM
      1 C         -11.3991  -17.7558   21.1464 C.ar    1  UNL1        0.0123
      2 C         -12.6153  -17.5954   22.0096 C.ar    1  UNL1       -0.0013
      3 C         -12.6270  -18.1562   23.4007 C.ar    1  UNL1       -0.0001
      4 C         -11.4225  -18.8775   23.9288 C.ar    1  UNL1        0.0031
      5 C         -10.2063  -19.0380   23.0657 C.ar    1  UNL1        0.0369
      6 C          -8.8807  -19.6955   23.3115 C.ar    1  UNL1        0.0360
      7 C          -8.0497  -19.5411   22.0724 C.ar    1  UNL1        0.1253
      8 O          -8.8617  -18.7881   21.0606 O.2     1  UNL1       -0.4580
      9 C         -10.1946  -18.4772   21.6745 C.ar    1  UNL1        0.1408
     10 C         -11.7501  -15.7583   19.5228 C.3     1  UNL1        0.0051
     11 C         -11.3873  -17.1950   19.7553 C.3     1  UNL1        0.0295
     12 C          -6.6521  -20.0502   21.8789 C.3     1  UNL1        0.0951
     13 C          -5.8635  -19.6364   20.6719 C.3     1  UNL1        0.1337
     14 O          -6.3165  -18.4709   19.8434 O.3     1  UNL1       -0.3826
     15 H          -5.6995  -18.3386   19.1067 H       1  UNL1        0.2104
     16 C          -4.6219  -20.3882   20.2933 C.3     1  UNL1        0.0985
     17 N          -3.5370  -19.7021   19.5171 N.3     1  UNL1       -0.2976
     18 H          -3.9968  -19.1537   18.7903 H       1  UNL1        0.1232
     19 C          -2.5826  -18.7802   20.2166 C.3     1  UNL1        0.0421
     20 C          -2.7439  -17.7764   19.1137 C.3     1  UNL1        0.0158
     21 C          -2.4214  -19.7839   21.3195 C.3     1  UNL1        0.0158
     22 C          -1.6282  -17.8583   20.9161 C.3     1  UNL1        0.0158
@<TRIPOS>BOND
     1    10    11    1
     2    11     1    1
     3     1     2   ar
     4     2     3   ar
     5     3     4   ar
     6     4     5   ar
     7     5     6   ar
     8     6     7   ar
     9     7    12    1
    10    12    13    1
    11    13    14    1
    12    13    16    1
    13    16    17    1
    14    17    19    1
    15    19    20    1
    16    19    21    1
    17    19    22    1
    18     7     8   ar
    19     8     9   ar
    20     9     1   ar
    21     9     5   ar
    22    14    15    1
    23    17    18    1
@<TRIPOS>MOLECULE
*****
 22 23 0 0 0
SMALL
GASTEIGER

@<TRIPOS>ATOM
      1 C          -3.4456  -18.7820   21.7839 C.ar    1  UNL1        0.0123
      2 C          -2.8840  -19.8681   20.9150 C.ar    1  UNL1       -0.0013
      3 C          -3.8076  -20.7775   20.1599 C.ar    1  UNL1       -0.0001
      4 C          -5.2927  -20.6007   20.2737 C.ar    1  UNL1        0.0031
      5 C          -5.8544  -19.5146   21.1426 C.ar    1  UNL1        0.0369
      6 C          -7.2637  -19.1022   21.4488 C.ar    1  UNL1        0.0360
      7 C          -7.2111  -17.9379   22.3932 C.ar    1  UNL1        0.1253
      8 O          -5.7694  -17.6309   22.6705 O.2     1  UNL1       -0.4580
      9 C          -4.9308  -18.6053   21.8977 C.ar    1  UNL1        0.1408
     10 C          -2.1665  -16.5288   21.9756 C.3     1  UNL1        0.0051
     11 C          -2.5221  -17.8727   22.5390 C.3     1  UNL1        0.0295
     12 C          -8.3929  -17.2088   22.9605 C.3     1  UNL1        0.0951
     13 C          -9.0880  -16.1586   22.1458 C.3     1  UNL1        0.1337
     14 O          -8.2897  -15.0844   21.4684 O.3     1  UNL1       -0.3826
     15 H          -8.8880  -14.4916   20.9873 H       1  UNL1        0.2104
     16 C         -10.5815  -16.1826   22.0084 C.3     1  UNL1        0.0985
     17 N         -11.2248  -17.0442   20.9625 N.3     1  UNL1       -0.2976
     18 H         -10.7856  -16.8055   20.0734 H       1  UNL1        0.1232
     19 C         -11.1709  -18.5383   21.0846 C.3     1  UNL1        0.0421
     20 C         -11.8513  -18.4537   22.4187 C.3     1  UNL1        0.0158
     21 C         -10.4905  -18.6228   19.7505 C.3     1  UNL1        0.0158
     22 C         -11.1171  -20.0323   21.2067 C.3     1  UNL1        0.0158
@<TRIPOS>BOND
     1    10    11    1
     2    11     1    1
     3     1     2   ar
     4     2     3   ar
     5     3     4   ar
     6     4     5   ar
     7     5     6   ar
     8     6     7   ar
     9     7    12    1
    10    12    13    1
    11    13    14    1
    12    13    16    1
    13    16    17    1
    14    17    19    1
    15    19    20    1
    16    19    21    1
    17    19    22    1
    18     7     8   ar
    19     8     9   ar
    20     9     1   ar
    21     9     5   ar
    22    14    15    1
    23    17    18    1
@<TRIPOS>MOLECULE
*****
 22 23 0 0 0
SMALL
GASTEIGER

@<TRIPOS>ATOM
      1 C          -3.3838  -18.8111   21.7210 C.ar    1  UNL1        0.0123
      2 C          -2.7439  -19.8275   20.8224 C.ar    1  UNL1       -0.0013
      3 C          -3.5984  -20.7716   20.0298 C.ar    1  UNL1       -0.0001
      4 C          -5.0929  -20.6994   20.1357 C.ar    1  UNL1        0.0031
      5 C          -5.7328  -19.6830   21.0342 C.ar    1  UNL1        0.0369
      6 C          -7.1689  -19.3770   21.3409 C.ar    1  UNL1        0.0360
      7 C          -7.2019  -18.2437   22.3230 C.ar    1  UNL1        0.1253
      8 O          -5.7862  -17.8494   22.6234 O.2     1  UNL1       -0.4580
      9 C          -4.8783  -18.7389   21.8269 C.ar    1  UNL1        0.1408
     10 C          -2.2641  -16.4833   21.9988 C.3     1  UNL1        0.0051
     11 C          -2.5292  -17.8670   22.5136 C.3     1  UNL1        0.0295
     12 C          -8.4343  -17.6152   22.9029 C.3     1  UNL1        0.0951
     13 C          -8.6871  -16.1486   22.7160 C.3     1  UNL1        0.1337
     14 O          -9.8164  -15.6874   21.8430 O.3     1  UNL1       -0.3826
     15 H          -9.8403  -14.7178   21.8305 H       1  UNL1        0.2104
     16 C          -7.8107  -15.1430   23.4021 C.3     1  UNL1        0.0985
     17 N          -8.0762  -14.7669   24.8298 N.3     1  UNL1       -0.2976
     18 H          -9.0321  -15.0558   25.0375 H       1  UNL1        0.1232
     19 C          -7.2101  -15.3173   25.9239 C.3     1  UNL1        0.0421
     20 C          -8.4035  -15.3956   26.8292 C.3     1  UNL1        0.0158
     21 C          -6.0167  -15.2389   25.0185 C.3     1  UNL1        0.0158
     22 C          -6.3440  -15.8677   27.0179 C.3     1  UNL1        0.0158
@<TRIPOS>BOND
     1    10    11    1
     2    11     1    1
     3     1     2   ar
     4     2     3   ar
     5     3     4   ar
     6     4     5   ar
     7     5     6   ar
     8     6     7   ar
     9     7    12    1
    10    12    13    1
    11    13    14    1
    12    13    16    1
    13    16    17    1
    14    17    19    1
    15    19    20    1
    16    19    21    1
    17    19    22    1
    18     7     8   ar
    19     8     9   ar
    20     9     1   ar
    21     9     5   ar
    22    14    15    1
    23    17    18    1
@<TRIPOS>MOLECULE
*****
 22 23 0 0 0
SMALL
GASTEIGER

@<TRIPOS>ATOM
      1 C         -10.2801  -18.6163   22.7161 C.ar    1  UNL1        0.0123
      2 C         -11.5816  -18.0887   22.1893 C.ar    1  UNL1       -0.0013
      3 C         -11.8232  -18.0293   20.7100 C.ar    1  UNL1       -0.0001
      4 C         -10.7632  -18.4975   19.7576 C.ar    1  UNL1        0.0031
      5 C          -9.4617  -19.0251   20.2844 C.ar    1  UNL1        0.0369
      6 C          -8.2396  -19.5536   19.5936 C.ar    1  UNL1        0.0360
      7 C          -7.2427  -19.9396   20.6458 C.ar    1  UNL1        0.1253
      8 O          -7.8487  -19.6497   21.9870 O.2     1  UNL1       -0.4580
      9 C          -9.2201  -19.0845   21.7636 C.ar    1  UNL1        0.1408
     10 C         -10.0226  -19.9997   24.9000 C.3     1  UNL1        0.0051
     11 C         -10.0385  -18.6757   24.1953 C.3     1  UNL1        0.0295
     12 C          -5.8792  -20.5146   20.4001 C.3     1  UNL1        0.0951
     13 C          -4.6983  -19.6033   20.2422 C.3     1  UNL1        0.1337
     14 O          -4.7633  -18.4504   19.2847 O.3     1  UNL1       -0.3826
     15 H          -3.9231  -17.9661   19.3042 H       1  UNL1        0.2104
     16 C          -3.4524  -19.8449   21.0417 C.3     1  UNL1        0.0985
     17 N          -2.2000  -19.0811   20.7279 N.3     1  UNL1       -0.2976
     18 H          -2.0934  -19.0944   19.7136 H       1  UNL1        0.1232
     19 C          -2.0662  -17.6505   21.1587 C.3     1  UNL1        0.0421
     20 C          -1.5850  -17.2823   19.7865 C.3     1  UNL1        0.0158
     21 C          -2.5475  -18.0187   22.5308 C.3     1  UNL1        0.0158
     22 C          -1.9325  -16.2200   21.5894 C.3     1  UNL1        0.0158
@<TRIPOS>BOND
     1    10    11    1
     2    11     1    1
     3     1     2   ar
     4     2     3   ar
     5     3     4   ar
     6     4     5   ar
     7     5     6   ar
     8     6     7   ar
     9     7    12    1
    10    12    13    1
    11    13    14    1
    12    13    16    1
    13    16    17    1
    14    17    19    1
    15    19    20    1
    16    19    21    1
    17    19    22    1
    18     7     8   ar
    19     8     9   ar
    20     9     1   ar
    21     9     5   ar
    22    14    15    1
    23    17    18    1
@<TRIPOS>MOLECULE
*****
 22 23 0 0 0
SMALL
GASTEIGER

@<TRIPOS>ATOM
      1 C          -7.3918  -15.7324   26.1934 C.ar    1  UNL1        0.0123
      2 C          -5.9290  -15.4861   26.4155 C.ar    1  UNL1       -0.0013
      3 C          -4.9954  -15.4072   25.2442 C.ar    1  UNL1       -0.0001
      4 C          -5.5246  -15.5747   23.8507 C.ar    1  UNL1        0.0031
      5 C          -6.9874  -15.8211   23.6286 C.ar    1  UNL1        0.0369
      6 C          -7.7928  -16.0240   22.3795 C.ar    1  UNL1        0.0360
      7 C          -9.2241  -16.2282   22.7788 C.ar    1  UNL1        0.1253
      8 O          -9.3034  -16.1515   24.2747 O.2     1  UNL1       -0.4580
      9 C          -7.9210  -15.8999   24.7999 C.ar    1  UNL1        0.1408
     10 C          -8.7661  -14.5564   28.0585 C.3     1  UNL1        0.0051
     11 C          -8.3255  -15.8113   27.3648 C.3     1  UNL1        0.0295
     12 C         -10.3742  -16.4671   21.8460 C.3     1  UNL1        0.0951
     13 C         -11.7500  -16.7005   22.3961 C.3     1  UNL1        0.1337
     14 O         -12.6387  -15.5345   22.7135 O.3     1  UNL1       -0.3826
     15 H         -13.4860  -15.8579   23.0575 H       1  UNL1        0.2104
     16 C         -12.2373  -18.1000   22.6289 C.3     1  UNL1        0.0985
     17 N         -11.7749  -18.8645   23.8338 N.3     1  UNL1       -0.2976
     18 H         -12.5175  -19.5235   24.0672 H       1  UNL1        0.1232
     19 C         -10.4991  -19.6514   23.7786 C.3     1  UNL1        0.0421
     20 C         -10.8661  -20.1505   22.4125 C.3     1  UNL1        0.0158
     21 C         -10.1321  -19.1523   25.1447 C.3     1  UNL1        0.0158
     22 C          -9.2233  -20.4384   23.7234 C.3     1  UNL1        0.0158
@<TRIPOS>BOND
     1    10    11    1
     2    11     1    1
     3     1     2   ar
     4     2     3   ar
     5     3     4   ar
     6     4     5   ar
     7     5     6   ar
     8     6     7   ar
     9     7    12    1
    10    12    13    1
    11    13    14    1
    12    13    16    1
    13    16    17    1
    14    17    19    1
    15    19    20    1
    16    19    21    1
    17    19    22    1
    18     7     8   ar
    19     8     9   ar
    20     9     1   ar
    21     9     5   ar
    22    14    15    1
    23    17    18    1
@<TRIPOS>MOLECULE
*****
 22 23 0 0 0
SMALL
GASTEIGER

@<TRIPOS>ATOM
      1 C          -3.8358  -18.5802   22.5423 C.ar    1  UNL1        0.0123
      2 C          -2.4942  -19.0306   22.0450 C.ar    1  UNL1       -0.0013
      3 C          -2.3976  -19.8798   20.8124 C.ar    1  UNL1       -0.0001
      4 C          -3.6426  -20.2788   20.0770 C.ar    1  UNL1        0.0031
      5 C          -4.9842  -19.8285   20.5743 C.ar    1  UNL1        0.0369
      6 C          -6.3747  -20.0627   20.0627 C.ar    1  UNL1        0.0360
      7 C          -7.3306  -19.3582   20.9791 C.ar    1  UNL1        0.1253
      8 O          -6.5309  -18.6885   22.0571 O.2     1  UNL1       -0.4580
      9 C          -5.0808  -18.9792   21.8069 C.ar    1  UNL1        0.1408
     10 C          -4.5555  -16.3686   23.7001 C.3     1  UNL1        0.0051
     11 C          -3.9324  -17.7309   23.7749 C.3     1  UNL1        0.0295
     12 C          -8.8240  -19.3285   20.8417 C.3     1  UNL1        0.0951
     13 C          -9.5963  -18.1297   21.3068 C.3     1  UNL1        0.1337
     14 O         -10.2668  -17.2351   20.3066 O.3     1  UNL1       -0.3826
     15 H         -10.7191  -16.5132   20.7706 H       1  UNL1        0.2104
     16 C          -9.6982  -17.8254   22.7721 C.3     1  UNL1        0.0985
     17 N         -10.7814  -16.9185   23.2762 N.3     1  UNL1       -0.2976
     18 H         -10.8305  -16.1309   22.6299 H       1  UNL1        0.1232
     19 C         -12.1802  -17.4366   23.4344 C.3     1  UNL1        0.0421
     20 C         -11.6679  -18.5588   24.2878 C.3     1  UNL1        0.0158
     21 C         -12.6924  -16.3144   22.5810 C.3     1  UNL1        0.0158
     22 C         -13.5789  -17.9548   23.5926 C.3     1  UNL1        0.0158
@<TRIPOS>BOND
     1    10    11    1
     2    11     1    1
     3     1     2   ar
     4     2     3   ar
     5     3     4   ar
     6     4     5   ar
     7     5     6   ar
     8     6     7   ar
     9     7    12    1
    10    12    13    1
    11    13    14    1
    12    13    16    1
    13    16    17    1
    14    17    19    1
    15    19    20    1
    16    19    21    1
    17    19    22    1
    18     7     8   ar
    19     8     9   ar
    20     9     1   ar
    21     9     5   ar
    22    14    15    1
    23    17    18    1
@<TRIPOS>MOLECULE
*****
 22 23 0 0 0
SMALL
GASTEIGER

@<TRIPOS>ATOM
      1 C          -9.6356  -17.7454   23.8531 C.ar    1  UNL1        0.0123
      2 C         -11.1120  -17.9899   23.9543 C.ar    1  UNL1       -0.0013
      3 C         -11.8267  -18.7275   22.8611 C.ar    1  UNL1       -0.0001
      4 C         -11.0650  -19.2207   21.6668 C.ar    1  UNL1        0.0031
      5 C          -9.5886  -18.9762   21.5656 C.ar    1  UNL1        0.0369
      6 C          -8.5804  -19.3407   20.5164 C.ar    1  UNL1        0.0360
      7 C          -7.2426  -18.8284   20.9611 C.ar    1  UNL1        0.1253
      8 O          -7.4240  -18.1472   22.2852 O.2     1  UNL1       -0.4580
      9 C          -8.8738  -18.2386   22.6588 C.ar    1  UNL1        0.1408
     10 C          -8.9115  -15.5078   24.9572 C.3     1  UNL1        0.0051
     11 C          -8.9208  -17.0077   24.9463 C.3     1  UNL1        0.0295
     12 C          -5.9503  -18.9720   20.2132 C.3     1  UNL1        0.0951
     13 C          -5.1469  -20.2323   20.3391 C.3     1  UNL1        0.1337
     14 O          -5.8251  -21.5669   20.2429 O.3     1  UNL1       -0.3826
     15 H          -5.1669  -22.2721   20.3447 H       1  UNL1        0.2104
     16 C          -3.6653  -20.1583   20.5613 C.3     1  UNL1        0.0985
     17 N          -3.1267  -19.6210   21.8541 N.3     1  UNL1       -0.2976
     18 H          -2.2946  -20.1675   22.0762 H       1  UNL1        0.1232
     19 C          -2.7376  -18.1764   21.9618 C.3     1  UNL1        0.0421
     20 C          -3.6919  -18.0046   23.1062 C.3     1  UNL1        0.0158
     21 C          -1.7832  -18.3482   20.8174 C.3     1  UNL1        0.0158
     22 C          -2.3484  -16.7318   22.0695 C.3     1  UNL1        0.0158
@<TRIPOS>BOND
     1    10    11    1
     2    11     1    1
     3     1     2   ar
     4     2     3   ar
     5     3     4   ar
     6     4     5   ar
     7     5     6   ar
     8     6     7   ar
     9     7    12    1
    10    12    13    1
    11    13    14    1
    12    13    16    1
    13    16    17    1
    14    17    19    1
    15    19    20    1
    16    19    21    1
    17    19    22    1
    18     7     8   ar
    19     8     9   ar
    20     9     1   ar
    21     9     5   ar
    22    14    15    1
    23    17    18    1
@<TRIPOS>MOLECULE
*****
 22 23 0 0 0
SMALL
GASTEIGER

@<TRIPOS>ATOM
      1 C          -7.4580  -15.7792   26.1057 C.ar    1  UNL1        0.0123
      2 C          -5.9764  -15.5484   26.1462 C.ar    1  UNL1       -0.0013
      3 C          -5.1985  -15.4434   24.8680 C.ar    1  UNL1       -0.0001
      4 C          -5.9021  -15.5692   23.5493 C.ar    1  UNL1        0.0031
      5 C          -7.3836  -15.8000   23.5088 C.ar    1  UNL1        0.0369
      6 C          -8.3432  -15.9634   22.3675 C.ar    1  UNL1        0.0360
      7 C          -9.7141  -16.1694   22.9403 C.ar    1  UNL1        0.1253
      8 O          -9.6019  -16.1333   24.4356 O.2     1  UNL1       -0.4580
      9 C          -8.1616  -15.9050   24.7870 C.ar    1  UNL1        0.1408
     10 C          -8.7442  -14.6436   28.0566 C.3     1  UNL1        0.0051
     11 C          -8.2359  -15.8842   27.3839 C.3     1  UNL1        0.0295
     12 C         -10.9757  -16.3753   22.1555 C.3     1  UNL1        0.0951
     13 C         -11.7340  -17.6636   22.2790 C.3     1  UNL1        0.1337
     14 O         -12.8956  -17.7627   23.2229 O.3     1  UNL1       -0.3826
     15 H         -13.2710  -18.6561   23.1811 H       1  UNL1        0.2104
     16 C         -11.3307  -18.8529   21.4587 C.3     1  UNL1        0.0985
     17 N         -10.1232  -19.6552   21.8441 N.3     1  UNL1       -0.2976
     18 H         -10.3669  -20.6366   21.7105 H       1  UNL1        0.1232
     19 C          -8.8186  -19.4330   21.1381 C.3     1  UNL1        0.0421
     20 C          -9.5470  -19.3004   19.8336 C.3     1  UNL1        0.0158
     21 C          -8.0901  -19.5657   22.4426 C.3     1  UNL1        0.0158
     22 C          -7.5139  -19.2108   20.4321 C.3     1  UNL1        0.0158
@<TRIPOS>BOND
     1    10    11    1
     2    11     1    1
     3     1     2   ar
     4     2     3   ar
     5     3     4   ar
     6     4     5   ar
     7     5     6   ar
     8     6     7   ar
     9     7    12    1
    10    12    13    1
    11    13    14    1
    12    13    16    1
    13    16    17    1
    14    17    19    1
    15    19    20    1
    16    19    21    1
    17    19    22    1
    18     7     8   ar
    19     8     9   ar
    20     9     1   ar
    21     9     5   ar
    22    14    15    1
    23    17    18    1
@<TRIPOS>MOLECULE
*****
 22 23 0 0 0
SMALL
GASTEIGER

@<TRIPOS>ATOM
      1 C          -8.3309  -16.2533   23.9472 C.ar    1  UNL1        0.0123
      2 C          -9.0753  -15.8016   25.1685 C.ar    1  UNL1       -0.0013
      3 C          -8.3201  -15.3827   26.3950 C.ar    1  UNL1       -0.0001
      4 C          -6.8205  -15.4156   26.4002 C.ar    1  UNL1        0.0031
      5 C          -6.0761  -15.8673   25.1788 C.ar    1  UNL1        0.0369
      6 C          -4.6105  -16.0040   24.8900 C.ar    1  UNL1        0.0360
      7 C          -4.4599  -16.5073   23.4850 C.ar    1  UNL1        0.1253
      8 O          -5.8324  -16.6817   22.9055 O.2     1  UNL1       -0.4580
      9 C          -6.8313  -16.2862   23.9523 C.ar    1  UNL1        0.1408
     10 C          -9.4035  -18.1204   22.4934 C.3     1  UNL1        0.0051
     11 C          -9.0861  -16.6721   22.7207 C.3     1  UNL1        0.0295
     12 C          -3.1643  -16.7871   22.7828 C.3     1  UNL1        0.0951
     13 C          -2.7105  -18.2026   22.5819 C.3     1  UNL1        0.1337
     14 O          -1.2701  -18.4928   22.2801 O.3     1  UNL1       -0.3826
     15 H          -1.1472  -19.4497   22.1799 H       1  UNL1        0.2104
     16 C          -3.6971  -19.3279   22.6827 C.3     1  UNL1        0.0985
     17 N          -4.1803  -20.0153   21.4401 N.3     1  UNL1       -0.2976
     18 H          -4.3468  -20.9905   21.6888 H       1  UNL1        0.1232
     19 C          -5.4178  -19.5281   20.7464 C.3     1  UNL1        0.0421
     20 C          -4.5787  -18.9989   19.6212 C.3     1  UNL1        0.0158
     21 C          -6.2569  -20.0572   21.8715 C.3     1  UNL1        0.0158
     22 C          -6.6553  -19.0408   20.0527 C.3     1  UNL1        0.0158
@<TRIPOS>BOND
     1    10    11    1
     2    11     1    1
     3     1     2   ar
     4     2     3   ar
     5     3     4   ar
     6     4     5   ar
     7     5     6   ar
     8     6     7   ar
     9     7    12    1
    10    12    13    1
    11    13    14    1
    12    13    16    1
    13    16    17    1
    14    17    19    1
    15    19    20    1
    16    19    21    1
    17    19    22    1
    18     7     8   ar
    19     8     9   ar
    20     9     1   ar
    21     9     5   ar
    22    14    15    1
    23    17    18    1
