@<TRIPOS>MOLECULE
*****
 35 39 0 0 0
SMALL
GASTEIGER

@<TRIPOS>ATOM
      1 C           6.9446   -2.9343   22.9058 C.ar    1  UNL1        0.1453
      2 C           6.4239   -2.6312   24.2795 C.ar    1  UNL1        0.0375
      3 C           6.5654   -3.6451   25.3758 C.ar    1  UNL1        0.0033
      4 C           7.2275   -4.9622   25.0984 C.ar    1  UNL1        0.0046
      5 C           7.3690   -5.9761   26.1948 C.ar    1  UNL1        0.0537
      6 C           8.0312   -7.2932   25.9174 C.ar    1  UNL1        0.0045
      7 C           8.5519   -7.5963   24.5437 C.ar    1  UNL1        0.0001
      8 C           8.4104   -6.5823   23.4474 C.ar    1  UNL1        0.0001
      9 C           7.7482   -5.2653   23.7248 C.ar    1  UNL1        0.0032
     10 C           7.6068   -4.2513   22.6284 C.ar    1  UNL1        0.0375
     11 C           6.8483   -5.6730   27.5684 C.2     1  UNL1        0.2517
     12 O           5.3891   -5.8427   27.8717 O.2     1  UNL1       -0.2697
     13 N           7.7868   -5.2003   28.6388 N.am    1  UNL1       -0.2497
     14 H           8.7445   -5.0889   28.4397 H       1  UNL1        0.1581
     15 C           7.2661   -4.8971   30.0125 C.ar    1  UNL1        0.2324
     16 C           6.7848   -3.5621   30.4982 C.ar    1  UNL1        0.0742
     17 C           6.3565   -3.7157   31.9276 C.ar    1  UNL1        0.1025
     18 C           5.8079   -2.6300   32.8052 C.3     1  UNL1        0.0557
     19 N           6.5732   -5.1458   32.3252 N.ar    1  UNL1       -0.0798
     20 O           7.1353   -5.8759   31.1416 O.2     1  UNL1       -0.3384
     21 O           6.8032   -1.9203   21.8095 O.3     1  UNL1       -0.4534
     22 C           1.6776   -0.4063   20.9814 C.ar    1  UNL1        0.1739
     23 C           2.0725   -1.2125   19.7797 C.ar    1  UNL1        0.0592
     24 C           3.4527   -1.7926   19.6863 C.ar    1  UNL1        0.0875
     25 N           3.8476   -2.5989   18.4847 N.ar    1  UNL1       -0.2435
     26 C           5.2277   -3.1789   18.3913 C.ar    1  UNL1        0.1020
     27 C           6.2129   -2.9527   19.4996 C.ar    1  UNL1        0.0581
     28 C           5.8180   -2.1465   20.7012 C.ar    1  UNL1        0.1483
     29 C           4.4379   -1.5665   20.7946 C.ar    1  UNL1        0.0554
     30 C           4.0429   -0.7602   21.9963 C.ar    1  UNL1        0.0446
     31 C           2.6627   -0.1801   22.0897 C.ar    1  UNL1        0.1726
     32 C           0.0341    1.5660   20.5824 C.3     1  UNL1        0.2526
     33 O           0.2974    0.1738   21.0748 O.3     1  UNL1       -0.4683
     34 O           2.2677    0.6261   23.2913 O.3     1  UNL1       -0.4684
     35 C           2.6312    0.1499   24.6665 C.3     1  UNL1        0.2526
@<TRIPOS>BOND
     1    32    33    1
     2    33    22    1
     3    22    23   ar
     4    23    24   ar
     5    24    25   ar
     6    25    26   ar
     7    26    27   ar
     8    27    28   ar
     9    28    21    1
    10    21     1    1
    11     1     2   ar
    12     2     3   ar
    13     3     4   ar
    14     4     5   ar
    15     5    11    1
    16    11    12    2
    17    11    13   am
    18    13    15    1
    19    15    16   ar
    20    16    17   ar
    21    17    18    1
    22    17    19   ar
    23    19    20   ar
    24     5     6   ar
    25     6     7   ar
    26     7     8   ar
    27     8     9   ar
    28     9    10   ar
    29    28    29   ar
    30    29    30   ar
    31    30    31   ar
    32    31    34    1
    33    34    35    1
    34    31    22   ar
    35    29    24   ar
    36    10     1   ar
    37     9     4   ar
    38    20    15   ar
    39    13    14    1
@<TRIPOS>MOLECULE
*****
 35 39 0 0 0
SMALL
GASTEIGER

@<TRIPOS>ATOM
      1 C           2.5945    0.5878   24.7319 C.ar    1  UNL1        0.1453
      2 C           3.5490   -0.5492   24.9469 C.ar    1  UNL1        0.0375
      3 C           3.9126   -1.4496   23.8037 C.ar    1  UNL1        0.0033
      4 C           3.3215   -1.2132   22.4454 C.ar    1  UNL1        0.0046
      5 C           3.6851   -2.1137   21.3022 C.ar    1  UNL1        0.0537
      6 C           3.0941   -1.8773   19.9440 C.ar    1  UNL1        0.0045
      7 C           2.1395   -0.7403   19.7290 C.ar    1  UNL1        0.0001
      8 C           1.7760    0.1602   20.8722 C.ar    1  UNL1        0.0001
      9 C           2.3670   -0.0763   22.2304 C.ar    1  UNL1        0.0032
     10 C           2.0034    0.8243   23.3737 C.ar    1  UNL1        0.0375
     11 C           4.6396   -3.2506   21.5172 C.2     1  UNL1        0.2517
     12 O           4.1429   -4.6653   21.4742 O.2     1  UNL1       -0.2697
     13 N           6.0909   -2.9728   21.7752 N.am    1  UNL1       -0.2497
     14 H           6.4169   -2.0443   21.8035 H       1  UNL1        0.1581
     15 C           7.0455   -4.1097   21.9903 C.ar    1  UNL1        0.2324
     16 C           7.5229   -4.6213   23.3171 C.ar    1  UNL1        0.0742
     17 C           8.4627   -5.7624   23.0630 C.ar    1  UNL1        0.1025
     18 C           9.1741   -6.5683   24.1092 C.3     1  UNL1        0.0557
     19 N           8.5662   -5.9561   21.5791 N.ar    1  UNL1       -0.0798
     20 O           7.6904   -4.9347   20.9162 O.2     1  UNL1       -0.3384
     21 O           2.2309    1.4883   25.8751 O.3     1  UNL1       -0.4534
     22 C           4.0613   -0.5573   30.5351 C.ar    1  UNL1        0.1739
     23 C           2.5649   -0.6314   30.6075 C.ar    1  UNL1        0.0592
     24 C           1.7332   -0.1386   29.4606 C.ar    1  UNL1        0.0875
     25 N           0.2368   -0.2127   29.5330 N.ar    1  UNL1       -0.2435
     26 C          -0.5949    0.2801   28.3861 C.ar    1  UNL1        0.1020
     27 C           0.0698    0.8471   27.1668 C.ar    1  UNL1        0.0581
     28 C           1.5662    0.9213   27.0944 C.ar    1  UNL1        0.1483
     29 C           2.3979    0.4284   28.2413 C.ar    1  UNL1        0.0554
     30 C           3.8944    0.5026   28.1689 C.ar    1  UNL1        0.0446
     31 C           4.7260    0.0097   29.3158 C.ar    1  UNL1        0.1726
     32 C           4.3029   -1.9981   32.6835 C.3     1  UNL1        0.2526
     33 O           4.8931   -1.0501   31.6820 O.3     1  UNL1       -0.4683
     34 O           6.2225    0.0839   29.2434 O.3     1  UNL1       -0.4684
     35 C           7.0114   -1.1083   28.7892 C.3     1  UNL1        0.2526
@<TRIPOS>BOND
     1    32    33    1
     2    33    22    1
     3    22    23   ar
     4    23    24   ar
     5    24    25   ar
     6    25    26   ar
     7    26    27   ar
     8    27    28   ar
     9    28    21    1
    10    21     1    1
    11     1     2   ar
    12     2     3   ar
    13     3     4   ar
    14     4     5   ar
    15     5    11    1
    16    11    12    2
    17    11    13   am
    18    13    15    1
    19    15    16   ar
    20    16    17   ar
    21    17    18    1
    22    17    19   ar
    23    19    20   ar
    24     5     6   ar
    25     6     7   ar
    26     7     8   ar
    27     8     9   ar
    28     9    10   ar
    29    28    29   ar
    30    29    30   ar
    31    30    31   ar
    32    31    34    1
    33    34    35    1
    34    31    22   ar
    35    29    24   ar
    36    10     1   ar
    37     9     4   ar
    38    20    15   ar
    39    13    14    1
@<TRIPOS>MOLECULE
*****
 35 39 0 0 0
SMALL
GASTEIGER

@<TRIPOS>ATOM
      1 C           3.8443   -1.1367   25.0814 C.ar    1  UNL1        0.1453
      2 C           2.8549   -0.0835   24.6790 C.ar    1  UNL1        0.0375
      3 C           2.3927    0.0064   23.2549 C.ar    1  UNL1        0.0033
      4 C           2.9198   -0.9569   22.2330 C.ar    1  UNL1        0.0046
      5 C           2.4575   -0.8670   20.8088 C.ar    1  UNL1        0.0537
      6 C           2.9846   -1.8304   19.7870 C.ar    1  UNL1        0.0045
      7 C           3.9740   -2.8836   20.1894 C.ar    1  UNL1        0.0001
      8 C           4.4363   -2.9735   21.6135 C.ar    1  UNL1        0.0001
      9 C           3.9092   -2.0101   22.6353 C.ar    1  UNL1        0.0032
     10 C           4.3714   -2.1000   24.0595 C.ar    1  UNL1        0.0375
     11 C           1.4682    0.1862   20.4065 C.2     1  UNL1        0.2517
     12 O           0.0020   -0.0369   20.6317 O.2     1  UNL1       -0.2697
     13 N           1.9449    1.4624   19.7790 N.am    1  UNL1       -0.2497
     14 H           2.9072    1.6088   19.6313 H       1  UNL1        0.1581
     15 C           0.9556    2.5157   19.3767 C.ar    1  UNL1        0.2324
     16 C           0.2487    2.6032   18.0566 C.ar    1  UNL1        0.0742
     17 C          -0.6443    3.8079   18.0879 C.ar    1  UNL1        0.1025
     18 C          -1.5358    4.2738   16.9751 C.3     1  UNL1        0.0557
     19 N          -0.4894    4.4651   19.4274 N.ar    1  UNL1       -0.0798
     20 O           0.4994    3.6665   20.2239 O.2     1  UNL1       -0.3384
     21 O           4.3066   -1.2266   26.5055 O.3     1  UNL1       -0.4534
     22 C           1.3248    1.4135   30.1645 C.ar    1  UNL1        0.1739
     23 C           2.5925    2.2011   30.0145 C.ar    1  UNL1        0.0592
     24 C           3.6549    1.7380   29.0622 C.ar    1  UNL1        0.0875
     25 N           4.9226    2.5256   28.9122 N.ar    1  UNL1       -0.2435
     26 C           5.9850    2.0624   27.9599 C.ar    1  UNL1        0.1020
     27 C           5.7796    0.8117   27.1577 C.ar    1  UNL1        0.0581
     28 C           4.5119    0.0241   27.3077 C.ar    1  UNL1        0.1483
     29 C           3.4496    0.4873   28.2600 C.ar    1  UNL1        0.0554
     30 C           2.1818   -0.3003   28.4101 C.ar    1  UNL1        0.0446
     31 C           1.1194    0.1628   29.3623 C.ar    1  UNL1        0.1726
     32 C           0.4806    3.1102   31.9419 C.3     1  UNL1        0.2526
     33 O           0.2623    1.8767   31.1168 O.3     1  UNL1       -0.4683
     34 O          -0.1484   -0.6248   29.5124 O.3     1  UNL1       -0.4684
     35 C          -1.3716   -0.2317   28.7383 C.3     1  UNL1        0.2526
@<TRIPOS>BOND
     1    32    33    1
     2    33    22    1
     3    22    23   ar
     4    23    24   ar
     5    24    25   ar
     6    25    26   ar
     7    26    27   ar
     8    27    28   ar
     9    28    21    1
    10    21     1    1
    11     1     2   ar
    12     2     3   ar
    13     3     4   ar
    14     4     5   ar
    15     5    11    1
    16    11    12    2
    17    11    13   am
    18    13    15    1
    19    15    16   ar
    20    16    17   ar
    21    17    18    1
    22    17    19   ar
    23    19    20   ar
    24     5     6   ar
    25     6     7   ar
    26     7     8   ar
    27     8     9   ar
    28     9    10   ar
    29    28    29   ar
    30    29    30   ar
    31    30    31   ar
    32    31    34    1
    33    34    35    1
    34    31    22   ar
    35    29    24   ar
    36    10     1   ar
    37     9     4   ar
    38    20    15   ar
    39    13    14    1
@<TRIPOS>MOLECULE
*****
 35 39 0 0 0
SMALL
GASTEIGER

@<TRIPOS>ATOM
      1 C           0.7697    1.3778   23.8978 C.ar    1  UNL1        0.1453
      2 C           1.9786    0.6343   24.3837 C.ar    1  UNL1        0.0375
      3 C           2.8199   -0.1436   23.4157 C.ar    1  UNL1        0.0033
      4 C           2.4524   -0.1781   21.9619 C.ar    1  UNL1        0.0046
      5 C           3.2938   -0.9561   20.9939 C.ar    1  UNL1        0.0537
      6 C           2.9263   -0.9906   19.5400 C.ar    1  UNL1        0.0045
      7 C           1.7175   -0.2471   19.0541 C.ar    1  UNL1        0.0001
      8 C           0.8762    0.5308   20.0221 C.ar    1  UNL1        0.0001
      9 C           1.2436    0.5653   21.4759 C.ar    1  UNL1        0.0032
     10 C           0.4023    1.3433   22.4439 C.ar    1  UNL1        0.0375
     11 C           4.5025   -1.6995   21.4798 C.2     1  UNL1        0.2517
     12 O           5.8727   -1.1321   21.2547 O.2     1  UNL1       -0.2697
     13 N           4.3411   -3.0104   22.1908 N.am    1  UNL1       -0.2497
     14 H           3.4418   -3.3828   22.3385 H       1  UNL1        0.1581
     15 C           5.5499   -3.7539   22.6767 C.ar    1  UNL1        0.2324
     16 C           6.0154   -3.8458   24.0997 C.ar    1  UNL1        0.0742
     17 C           7.2586   -4.6847   24.1274 C.ar    1  UNL1        0.1025
     18 C           8.0585   -5.0355   25.3469 C.3     1  UNL1        0.0557
     19 N           7.5614   -5.1113   22.7215 N.ar    1  UNL1       -0.0798
     20 O           6.5054   -4.5360   21.8250 O.2     1  UNL1       -0.3384
     21 O          -0.0715    2.1558   24.8658 O.3     1  UNL1       -0.4534
     22 C           0.6034    2.1031   30.2315 C.ar    1  UNL1        0.1739
     23 C           1.2456    3.3679   29.7439 C.ar    1  UNL1        0.0592
     24 C           1.2374    3.6973   28.2805 C.ar    1  UNL1        0.0875
     25 N           1.8796    4.9621   27.7928 N.ar    1  UNL1       -0.2435
     26 C           1.8714    5.2915   26.3295 C.ar    1  UNL1        0.1020
     27 C           1.2210    4.3560   25.3538 C.ar    1  UNL1        0.0581
     28 C           0.5788    3.0912   25.8414 C.ar    1  UNL1        0.1483
     29 C           0.5870    2.7619   27.3048 C.ar    1  UNL1        0.0554
     30 C          -0.0552    1.4970   27.7925 C.ar    1  UNL1        0.0446
     31 C          -0.0470    1.1676   29.2559 C.ar    1  UNL1        0.1726
     32 C           1.4174    2.6071   32.6468 C.3     1  UNL1        0.2526
     33 O           0.6116    1.7737   31.6950 O.3     1  UNL1       -0.4683
     34 O          -0.6892   -0.0972   29.7436 O.3     1  UNL1       -0.4684
     35 C          -1.5774   -0.8882   28.8295 C.3     1  UNL1        0.2526
@<TRIPOS>BOND
     1    32    33    1
     2    33    22    1
     3    22    23   ar
     4    23    24   ar
     5    24    25   ar
     6    25    26   ar
     7    26    27   ar
     8    27    28   ar
     9    28    21    1
    10    21     1    1
    11     1     2   ar
    12     2     3   ar
    13     3     4   ar
    14     4     5   ar
    15     5    11    1
    16    11    12    2
    17    11    13   am
    18    13    15    1
    19    15    16   ar
    20    16    17   ar
    21    17    18    1
    22    17    19   ar
    23    19    20   ar
    24     5     6   ar
    25     6     7   ar
    26     7     8   ar
    27     8     9   ar
    28     9    10   ar
    29    28    29   ar
    30    29    30   ar
    31    30    31   ar
    32    31    34    1
    33    34    35    1
    34    31    22   ar
    35    29    24   ar
    36    10     1   ar
    37     9     4   ar
    38    20    15   ar
    39    13    14    1
@<TRIPOS>MOLECULE
*****
 35 39 0 0 0
SMALL
GASTEIGER

@<TRIPOS>ATOM
      1 C           2.1835   -0.7950   20.7236 C.ar    1  UNL1        0.1453
      2 C           2.6392   -0.9603   22.1431 C.ar    1  UNL1        0.0375
      3 C           2.0998   -0.0589   23.2138 C.ar    1  UNL1        0.0033
      4 C           1.1046    1.0079   22.8650 C.ar    1  UNL1        0.0046
      5 C           0.5651    1.9093   23.9357 C.ar    1  UNL1        0.0537
      6 C          -0.4301    2.9761   23.5869 C.ar    1  UNL1        0.0045
      7 C          -0.8858    3.1413   22.1674 C.ar    1  UNL1        0.0001
      8 C          -0.3463    2.2399   21.0967 C.ar    1  UNL1        0.0001
      9 C           0.6488    1.1732   21.4455 C.ar    1  UNL1        0.0032
     10 C           1.1883    0.2717   20.3748 C.ar    1  UNL1        0.0375
     11 C           1.0208    1.7440   25.3552 C.2     1  UNL1        0.2517
     12 O           2.2803    2.4122   25.8212 O.2     1  UNL1       -0.2697
     13 N           0.2171    0.9104   26.3087 N.am    1  UNL1       -0.2497
     14 H          -0.6096    0.4719   26.0028 H       1  UNL1        0.1581
     15 C           0.6728    0.7451   27.7282 C.ar    1  UNL1        0.2324
     16 C           1.8278   -0.0922   28.1916 C.ar    1  UNL1        0.0742
     17 C           1.9223    0.0332   29.6833 C.ar    1  UNL1        0.1025
     18 C           2.9356   -0.6383   30.5622 C.3     1  UNL1        0.0557
     19 N           0.8256    0.9481   30.1419 N.ar    1  UNL1       -0.0798
     20 O           0.0534    1.3881   28.9336 O.2     1  UNL1       -0.3384
     21 O           2.7230   -1.6964   19.6529 O.3     1  UNL1       -0.4534
     22 C           7.9078   -3.0642   20.3578 C.ar    1  UNL1        0.1739
     23 C           7.8789   -2.1356   19.1802 C.ar    1  UNL1        0.0592
     24 C           6.5755   -1.5615   18.7095 C.ar    1  UNL1        0.0875
     25 N           6.5466   -0.6329   17.5318 N.ar    1  UNL1       -0.2435
     26 C           5.2432   -0.0589   17.0612 C.ar    1  UNL1        0.1020
     27 C           3.9687   -0.4134   17.7682 C.ar    1  UNL1        0.0581
     28 C           3.9975   -1.3419   18.9459 C.ar    1  UNL1        0.1483
     29 C           5.3009   -1.9160   19.4165 C.ar    1  UNL1        0.0554
     30 C           5.3298   -2.8446   20.5942 C.ar    1  UNL1        0.0446
     31 C           6.6332   -3.4187   21.0648 C.ar    1  UNL1        0.1726
     32 C           9.4621   -5.1135   20.7246 C.3     1  UNL1        0.2526
     33 O           9.2112   -3.6383   20.8285 O.3     1  UNL1       -0.4683
     34 O           6.6622   -4.3473   22.2425 O.3     1  UNL1       -0.4684
     35 C           6.2844   -3.8438   23.6041 C.3     1  UNL1        0.2526
@<TRIPOS>BOND
     1    32    33    1
     2    33    22    1
     3    22    23   ar
     4    23    24   ar
     5    24    25   ar
     6    25    26   ar
     7    26    27   ar
     8    27    28   ar
     9    28    21    1
    10    21     1    1
    11     1     2   ar
    12     2     3   ar
    13     3     4   ar
    14     4     5   ar
    15     5    11    1
    16    11    12    2
    17    11    13   am
    18    13    15    1
    19    15    16   ar
    20    16    17   ar
    21    17    18    1
    22    17    19   ar
    23    19    20   ar
    24     5     6   ar
    25     6     7   ar
    26     7     8   ar
    27     8     9   ar
    28     9    10   ar
    29    28    29   ar
    30    29    30   ar
    31    30    31   ar
    32    31    34    1
    33    34    35    1
    34    31    22   ar
    35    29    24   ar
    36    10     1   ar
    37     9     4   ar
    38    20    15   ar
    39    13    14    1
@<TRIPOS>MOLECULE
*****
 35 39 0 0 0
SMALL
GASTEIGER

@<TRIPOS>ATOM
      1 C           4.8100   -3.3465   22.3857 C.ar    1  UNL1        0.1453
      2 C           4.0455   -2.3513   23.2074 C.ar    1  UNL1        0.0375
      3 C           4.5493   -1.9530   24.5629 C.ar    1  UNL1        0.0033
      4 C           5.8176   -2.5499   25.0968 C.ar    1  UNL1        0.0046
      5 C           6.3214   -2.1516   26.4524 C.ar    1  UNL1        0.0537
      6 C           7.5898   -2.7485   26.9863 C.ar    1  UNL1        0.0045
      7 C           8.3542   -3.7438   26.1646 C.ar    1  UNL1        0.0001
      8 C           7.8504   -4.1421   24.8091 C.ar    1  UNL1        0.0001
      9 C           6.5821   -3.5451   24.2752 C.ar    1  UNL1        0.0032
     10 C           6.0783   -3.9435   22.9196 C.ar    1  UNL1        0.0375
     11 C           5.5570   -1.1564   27.2740 C.2     1  UNL1        0.2517
     12 O           5.9582    0.2889   27.2658 O.2     1  UNL1       -0.2697
     13 N           4.3913   -1.6065   28.1038 N.am    1  UNL1       -0.2497
     14 H           4.1280   -2.5551   28.1091 H       1  UNL1        0.1581
     15 C           3.6268   -0.6113   28.9254 C.ar    1  UNL1        0.2324
     16 C           2.1993   -0.2029   28.7122 C.ar    1  UNL1        0.0742
     17 C           1.8458    0.8111   29.7595 C.ar    1  UNL1        0.1025
     18 C           0.5166    1.4879   29.9184 C.3     1  UNL1        0.0557
     19 N           3.0549    1.0293   30.6202 N.ar    1  UNL1       -0.0798
     20 O           4.1555    0.1503   30.1046 O.2     1  UNL1       -0.3384
     21 O           4.3062   -3.7448   21.0301 O.3     1  UNL1       -0.4534
     22 C           1.9267    0.4514   18.5847 C.ar    1  UNL1        0.1739
     23 C           3.1716    0.1632   17.7990 C.ar    1  UNL1        0.0592
     24 C           4.0777   -0.9579   18.2140 C.ar    1  UNL1        0.0875
     25 N           5.3226   -1.2460   17.4284 N.ar    1  UNL1       -0.2435
     26 C           6.2286   -2.3670   17.8433 C.ar    1  UNL1        0.1020
     27 C           5.8898   -3.2000   19.0439 C.ar    1  UNL1        0.0581
     28 C           4.6450   -2.9119   19.8296 C.ar    1  UNL1        0.1483
     29 C           3.7389   -1.7908   19.4146 C.ar    1  UNL1        0.0554
     30 C           2.4940   -1.5026   20.2002 C.ar    1  UNL1        0.0446
     31 C           1.5879   -0.3816   19.7853 C.ar    1  UNL1        0.1726
     32 C           1.3662    2.9876   18.5272 C.3     1  UNL1        0.2526
     33 O           1.0206    1.5725   18.1697 O.3     1  UNL1       -0.4683
     34 O           0.3430   -0.0934   20.5709 O.3     1  UNL1       -0.4684
     35 C           0.3244    1.0343   21.5598 C.3     1  UNL1        0.2526
@<TRIPOS>BOND
     1    32    33    1
     2    33    22    1
     3    22    23   ar
     4    23    24   ar
     5    24    25   ar
     6    25    26   ar
     7    26    27   ar
     8    27    28   ar
     9    28    21    1
    10    21     1    1
    11     1     2   ar
    12     2     3   ar
    13     3     4   ar
    14     4     5   ar
    15     5    11    1
    16    11    12    2
    17    11    13   am
    18    13    15    1
    19    15    16   ar
    20    16    17   ar
    21    17    18    1
    22    17    19   ar
    23    19    20   ar
    24     5     6   ar
    25     6     7   ar
    26     7     8   ar
    27     8     9   ar
    28     9    10   ar
    29    28    29   ar
    30    29    30   ar
    31    30    31   ar
    32    31    34    1
    33    34    35    1
    34    31    22   ar
    35    29    24   ar
    36    10     1   ar
    37     9     4   ar
    38    20    15   ar
    39    13    14    1
@<TRIPOS>MOLECULE
*****
 35 39 0 0 0
SMALL
GASTEIGER

@<TRIPOS>ATOM
      1 C           5.6200   -1.9112   22.3898 C.ar    1  UNL1        0.1453
      2 C           4.3522   -1.3844   22.9941 C.ar    1  UNL1        0.0375
      3 C           3.3005   -0.7731   22.1165 C.ar    1  UNL1        0.0033
      4 C           3.5167   -0.6884   20.6346 C.ar    1  UNL1        0.0046
      5 C           2.4650   -0.0770   19.7569 C.ar    1  UNL1        0.0537
      6 C           2.6812    0.0076   18.2750 C.ar    1  UNL1        0.0045
      7 C           3.9490   -0.5192   17.6707 C.ar    1  UNL1        0.0001
      8 C           5.0006   -1.1305   18.5483 C.ar    1  UNL1        0.0001
      9 C           4.7845   -1.2152   20.0303 C.ar    1  UNL1        0.0032
     10 C           5.8362   -1.8266   20.9079 C.ar    1  UNL1        0.0375
     11 C           1.1972    0.4498   20.3613 C.2     1  UNL1        0.2517
     12 O           0.0717   -0.4891   20.6800 O.2     1  UNL1       -0.2697
     13 N           1.0550    1.9154   20.6468 N.am    1  UNL1       -0.2497
     14 H           1.7938    2.5316   20.4376 H       1  UNL1        0.1581
     15 C          -0.2128    2.4422   21.2512 C.ar    1  UNL1        0.2324
     16 C          -0.3616    3.0123   22.6306 C.ar    1  UNL1        0.0742
     17 C          -1.7951    3.4139   22.8141 C.ar    1  UNL1        0.1025
     18 C          -2.3874    4.0293   24.0472 C.3     1  UNL1        0.0557
     19 N          -2.5324    3.0919   21.5480 N.ar    1  UNL1       -0.0798
     20 O          -1.5544    2.4914   20.5821 O.2     1  UNL1       -0.3384
     21 O           6.6716   -2.5226   23.2674 O.3     1  UNL1       -0.4534
     22 C           7.5621   -7.2581   25.7234 C.ar    1  UNL1        0.1739
     23 C           8.1624   -7.3803   24.3543 C.ar    1  UNL1        0.0592
     24 C           8.0899   -6.2269   23.3979 C.ar    1  UNL1        0.0875
     25 N           8.6902   -6.3490   22.0287 N.ar    1  UNL1       -0.2435
     26 C           8.6176   -5.1957   21.0725 C.ar    1  UNL1        0.1020
     27 C           7.9448   -3.9202   21.4854 C.ar    1  UNL1        0.0581
     28 C           7.3445   -3.7981   22.8545 C.ar    1  UNL1        0.1483
     29 C           7.4170   -4.9514   23.8108 C.ar    1  UNL1        0.0554
     30 C           6.8167   -4.8293   25.1801 C.ar    1  UNL1        0.0446
     31 C           6.8892   -5.9827   26.1363 C.ar    1  UNL1        0.1726
     32 C           8.6585   -8.4136   27.7760 C.3     1  UNL1        0.2526
     33 O           7.6346   -8.4115   26.6798 O.3     1  UNL1       -0.4683
     34 O           6.2889   -5.8606   27.5056 O.3     1  UNL1       -0.4684
     35 C           6.3395   -4.5495   28.2325 C.3     1  UNL1        0.2526
@<TRIPOS>BOND
     1    32    33    1
     2    33    22    1
     3    22    23   ar
     4    23    24   ar
     5    24    25   ar
     6    25    26   ar
     7    26    27   ar
     8    27    28   ar
     9    28    21    1
    10    21     1    1
    11     1     2   ar
    12     2     3   ar
    13     3     4   ar
    14     4     5   ar
    15     5    11    1
    16    11    12    2
    17    11    13   am
    18    13    15    1
    19    15    16   ar
    20    16    17   ar
    21    17    18    1
    22    17    19   ar
    23    19    20   ar
    24     5     6   ar
    25     6     7   ar
    26     7     8   ar
    27     8     9   ar
    28     9    10   ar
    29    28    29   ar
    30    29    30   ar
    31    30    31   ar
    32    31    34    1
    33    34    35    1
    34    31    22   ar
    35    29    24   ar
    36    10     1   ar
    37     9     4   ar
    38    20    15   ar
    39    13    14    1
@<TRIPOS>MOLECULE
*****
 35 39 0 0 0
SMALL
GASTEIGER

@<TRIPOS>ATOM
      1 C           0.2490    1.9302   20.9723 C.ar    1  UNL1        0.1453
      2 C          -0.8724    2.8870   21.2500 C.ar    1  UNL1        0.0375
      3 C          -1.2522    3.2069   22.6654 C.ar    1  UNL1        0.0033
      4 C          -0.5107    2.5701   23.8031 C.ar    1  UNL1        0.0046
      5 C          -0.8906    2.8901   25.2186 C.ar    1  UNL1        0.0537
      6 C          -0.1491    2.2532   26.3564 C.ar    1  UNL1        0.0045
      7 C           0.9723    1.2964   26.0787 C.ar    1  UNL1        0.0001
      8 C           1.3522    0.9764   24.6634 C.ar    1  UNL1        0.0001
      9 C           0.6106    1.6133   23.5256 C.ar    1  UNL1        0.0032
     10 C           0.9905    1.2933   22.1101 C.ar    1  UNL1        0.0375
     11 C          -2.0119    3.8468   25.4962 C.2     1  UNL1        0.2517
     12 O          -1.8246    5.3143   25.2480 O.2     1  UNL1       -0.2697
     13 N          -3.3207    3.3362   26.0219 N.am    1  UNL1       -0.2497
     14 H          -3.4437    2.3731   26.1847 H       1  UNL1        0.1581
     15 C          -4.4421    4.2930   26.2995 C.ar    1  UNL1        0.2324
     16 C          -5.4865    4.7360   25.3181 C.ar    1  UNL1        0.0742
     17 C          -6.4058    5.6915   26.0193 C.ar    1  UNL1        0.1025
     18 C          -7.5930    6.3788   25.4124 C.3     1  UNL1        0.0557
     19 N          -5.9297    5.8391   27.4341 N.ar    1  UNL1       -0.0798
     20 O          -4.7160    4.9748   27.6072 O.2     1  UNL1       -0.3384
     21 O           0.6288    1.6102   19.5570 O.3     1  UNL1       -0.4534
     22 C           5.1956   -0.7376   17.8591 C.ar    1  UNL1        0.1739
     23 C           5.3908    0.7375   17.6696 C.ar    1  UNL1        0.0592
     24 C           4.2979    1.6933   18.0467 C.ar    1  UNL1        0.0875
     25 N           4.4932    3.1684   17.8573 N.ar    1  UNL1       -0.2435
     26 C           3.4003    4.1241   18.2343 C.ar    1  UNL1        0.1020
     27 C           2.1122    3.6047   18.8009 C.ar    1  UNL1        0.0581
     28 C           1.9169    2.1296   18.9904 C.ar    1  UNL1        0.1483
     29 C           3.0098    1.1739   18.6133 C.ar    1  UNL1        0.0554
     30 C           2.8146   -0.3013   18.8028 C.ar    1  UNL1        0.0446
     31 C           3.9075   -1.2569   18.4257 C.ar    1  UNL1        0.1726
     32 C           7.3570   -2.0407   18.4758 C.3     1  UNL1        0.2526
     33 O           6.2885   -1.6933   17.4820 O.3     1  UNL1       -0.4683
     34 O           3.7123   -2.7321   18.6152 O.3     1  UNL1       -0.4684
     35 C           3.8877   -3.3435   19.9737 C.3     1  UNL1        0.2526
@<TRIPOS>BOND
     1    32    33    1
     2    33    22    1
     3    22    23   ar
     4    23    24   ar
     5    24    25   ar
     6    25    26   ar
     7    26    27   ar
     8    27    28   ar
     9    28    21    1
    10    21     1    1
    11     1     2   ar
    12     2     3   ar
    13     3     4   ar
    14     4     5   ar
    15     5    11    1
    16    11    12    2
    17    11    13   am
    18    13    15    1
    19    15    16   ar
    20    16    17   ar
    21    17    18    1
    22    17    19   ar
    23    19    20   ar
    24     5     6   ar
    25     6     7   ar
    26     7     8   ar
    27     8     9   ar
    28     9    10   ar
    29    28    29   ar
    30    29    30   ar
    31    30    31   ar
    32    31    34    1
    33    34    35    1
    34    31    22   ar
    35    29    24   ar
    36    10     1   ar
    37     9     4   ar
    38    20    15   ar
    39    13    14    1
@<TRIPOS>MOLECULE
*****
 35 39 0 0 0
SMALL
GASTEIGER

@<TRIPOS>ATOM
      1 C           1.5188    2.4615   19.8117 C.ar    1  UNL1        0.1453
      2 C           0.7119    2.4378   21.0760 C.ar    1  UNL1        0.0375
      3 C          -0.7265    2.8626   21.0558 C.ar    1  UNL1        0.0033
      4 C          -1.3581    3.3111   19.7713 C.ar    1  UNL1        0.0046
      5 C          -2.7966    3.7359   19.7512 C.ar    1  UNL1        0.0537
      6 C          -3.4282    4.1843   18.4667 C.ar    1  UNL1        0.0045
      7 C          -2.6214    4.2080   17.2023 C.ar    1  UNL1        0.0001
      8 C          -1.1829    3.7832   17.2225 C.ar    1  UNL1        0.0001
      9 C          -0.5513    3.3347   18.5070 C.ar    1  UNL1        0.0032
     10 C           0.8872    2.9099   18.5272 C.ar    1  UNL1        0.0375
     11 C          -3.6034    3.7122   21.0155 C.2     1  UNL1        0.2517
     12 O          -4.4658    2.5266   21.3328 O.2     1  UNL1       -0.2697
     13 N          -3.5479    4.8741   21.9624 N.am    1  UNL1       -0.2497
     14 H          -2.9819    5.6523   21.7541 H       1  UNL1        0.1581
     15 C          -4.3547    4.8505   23.2268 C.ar    1  UNL1        0.2324
     16 C          -3.8060    4.8390   24.6228 C.ar    1  UNL1        0.0742
     17 C          -4.9640    4.8156   25.5758 C.ar    1  UNL1        0.1025
     18 C          -4.8735    4.7982   27.0730 C.3     1  UNL1        0.0557
     19 N          -6.2285    4.8127   24.7689 N.ar    1  UNL1       -0.0798
     20 O          -5.8519    4.8342   23.3171 O.2     1  UNL1       -0.3384
     21 O           2.9572    2.0367   19.8319 O.3     1  UNL1       -0.4534
     22 C           4.3038   -2.6223   22.2257 C.ar    1  UNL1        0.1739
     23 C           4.3731   -2.8780   20.7493 C.ar    1  UNL1        0.0592
     24 C           4.0538   -1.7771   19.7817 C.ar    1  UNL1        0.0875
     25 N           4.1232   -2.0327   18.3053 N.ar    1  UNL1       -0.2435
     26 C           3.8040   -0.9319   17.3378 C.ar    1  UNL1        0.1020
     27 C           3.4153    0.4246   17.8466 C.ar    1  UNL1        0.0581
     28 C           3.3459    0.6802   19.3230 C.ar    1  UNL1        0.1483
     29 C           3.6652   -0.4206   20.2906 C.ar    1  UNL1        0.0554
     30 C           3.5958   -0.1650   21.7671 C.ar    1  UNL1        0.0446
     31 C           3.9151   -1.2659   22.7346 C.ar    1  UNL1        0.1726
     32 C           6.0035   -3.8392   23.7685 C.3     1  UNL1        0.2526
     33 O           4.6231   -3.7232   23.1933 O.3     1  UNL1       -0.4683
     34 O           3.8457   -1.0103   24.2111 O.3     1  UNL1       -0.4684
     35 C           5.0132   -0.3910   24.9207 C.3     1  UNL1        0.2526
@<TRIPOS>BOND
     1    32    33    1
     2    33    22    1
     3    22    23   ar
     4    23    24   ar
     5    24    25   ar
     6    25    26   ar
     7    26    27   ar
     8    27    28   ar
     9    28    21    1
    10    21     1    1
    11     1     2   ar
    12     2     3   ar
    13     3     4   ar
    14     4     5   ar
    15     5    11    1
    16    11    12    2
    17    11    13   am
    18    13    15    1
    19    15    16   ar
    20    16    17   ar
    21    17    18    1
    22    17    19   ar
    23    19    20   ar
    24     5     6   ar
    25     6     7   ar
    26     7     8   ar
    27     8     9   ar
    28     9    10   ar
    29    28    29   ar
    30    29    30   ar
    31    30    31   ar
    32    31    34    1
    33    34    35    1
    34    31    22   ar
    35    29    24   ar
    36    10     1   ar
    37     9     4   ar
    38    20    15   ar
    39    13    14    1
