@<TRIPOS>MOLECULE
*****
 29 32 0 0 0
SMALL
GASTEIGER

@<TRIPOS>ATOM
      1 C         -13.9526   -4.8794   18.6642 C.2     1  UNL1        0.0050
      2 C         -15.0329   -5.9025   18.4732 C.2     1  UNL1        0.0131
      3 C         -14.6798   -7.3573   18.3790 C.3     1  UNL1        0.1542
      4 C         -16.1130   -6.9255   18.2821 C.3     1  UNL1        0.0614
      5 C         -17.1932   -7.9485   18.0911 C.3     1  UNL1        0.0725
      6 N         -16.8402   -9.4034   17.9969 N.3     1  UNL1       -0.2972
      7 C         -15.4070   -9.8351   18.0938 C.3     1  UNL1        0.0725
      8 C         -14.3268   -8.8121   18.2849 C.3     1  UNL1        0.0614
      9 O         -13.2465   -7.7890   18.4759 O.3     1  UNL1       -0.4785
     10 C         -12.1663   -6.7660   18.6670 C.ar    1  UNL1        0.1386
     11 C         -10.7330   -7.1977   18.7639 C.ar    1  UNL1        0.0369
     12 C          -9.6529   -6.1747   18.9550 C.ar    1  UNL1        0.0031
     13 C         -10.0059   -4.7199   19.0491 C.ar    1  UNL1        0.0002
     14 C         -11.4391   -4.2881   18.9522 C.ar    1  UNL1        0.0030
     15 C         -12.5194   -5.3112   18.7611 C.ar    1  UNL1        0.0339
     16 H         -17.1866   -9.7327   17.0959 H       1  UNL1        0.1233
     17 C         -15.0117   -0.5149   18.9467 C.ar    1  UNL1        0.2171
     18 N         -15.0594   -1.3791   20.1718 N.ar    1  UNL1       -0.2212
     19 C         -14.7064   -2.8339   20.0776 C.ar    1  UNL1        0.1022
     20 C         -14.3056   -3.4246   18.7584 C.ar    1  UNL1        0.0383
     21 C         -14.2578   -2.5604   17.5332 C.ar    1  UNL1        0.1022
     22 N         -14.6109   -1.1056   17.6274 N.ar    1  UNL1       -0.2212
     23 N         -16.8037    1.3614   19.0810 N.am    1  UNL1       -0.2736
     24 C         -15.3647    0.9399   19.0409 C.2     1  UNL1        0.2851
     25 O         -14.2787    1.9732   19.0948 O.2     1  UNL1       -0.2665
     26 C         -17.1899    3.4949   20.5125 C.3     1  UNL1        0.0233
     27 C         -17.1567    2.8162   19.1752 C.3     1  UNL1        0.0939
     28 C         -17.8897    0.3281   19.0270 C.3     1  UNL1        0.0939
     29 C         -18.5283   -0.1557   20.2951 C.3     1  UNL1        0.0233
@<TRIPOS>BOND
     1    26    27    1
     2    27    23    1
     3    23    28    1
     4    28    29    1
     5    23    24   am
     6    24    25    2
     7    24    17    1
     8    17    18   ar
     9    18    19   ar
    10    19    20   ar
    11    20     1    1
    12     1     2    2
    13     2     3    1
    14     3     4    1
    15     4     5    1
    16     5     6    1
    17     6     7    1
    18     7     8    1
    19     3     9    1
    20     9    10    1
    21    10    11   ar
    22    11    12   ar
    23    12    13   ar
    24    13    14   ar
    25    14    15   ar
    26    20    21   ar
    27    21    22   ar
    28    22    17   ar
    29    15     1    1
    30     8     3    1
    31    15    10   ar
    32     6    16    1
@<TRIPOS>MOLECULE
*****
 29 32 0 0 0
SMALL
GASTEIGER

@<TRIPOS>ATOM
      1 C          -7.6141  -17.0850   23.0532 C.2     1  UNL1        0.0050
      2 C          -8.8239  -17.2800   22.1881 C.2     1  UNL1        0.0131
      3 C         -10.1678  -16.8109   22.6613 C.3     1  UNL1        0.1542
      4 C         -10.0336  -17.4749   21.3230 C.3     1  UNL1        0.0614
      5 C         -11.2434  -17.6698   20.4579 C.3     1  UNL1        0.0725
      6 N         -12.5873  -17.2008   20.9312 N.3     1  UNL1       -0.2972
      7 C         -12.7214  -16.5368   22.2695 C.3     1  UNL1        0.0725
      8 C         -11.5117  -16.3419   23.1345 C.3     1  UNL1        0.0614
      9 O         -10.3018  -16.1469   23.9997 O.3     1  UNL1       -0.4785
     10 C          -9.0921  -15.9520   24.8648 C.ar    1  UNL1        0.1386
     11 C          -9.2262  -15.2880   26.2032 C.ar    1  UNL1        0.0369
     12 C          -8.0164  -15.0930   27.0682 C.ar    1  UNL1        0.0031
     13 C          -6.6725  -15.5620   26.5950 C.ar    1  UNL1        0.0002
     14 C          -6.5384  -16.2260   25.2567 C.ar    1  UNL1        0.0030
     15 C          -7.7482  -16.4210   24.3915 C.ar    1  UNL1        0.0339
     16 H         -13.1963  -18.0189   20.9460 H       1  UNL1        0.1233
     17 C          -3.5824  -18.4921   21.6336 C.ar    1  UNL1        0.2171
     18 N          -3.6773  -17.4464   22.7047 N.ar    1  UNL1       -0.2212
     19 C          -5.0212  -16.9773   23.1780 C.ar    1  UNL1        0.1022
     20 C          -6.2702  -17.5540   22.5800 C.ar    1  UNL1        0.0383
     21 C          -6.1752  -18.5998   21.5088 C.ar    1  UNL1        0.1022
     22 N          -4.8313  -19.0688   21.0356 N.ar    1  UNL1       -0.2212
     23 N          -1.4694  -18.1484   20.1614 N.am    1  UNL1       -0.2736
     24 C          -2.2385  -18.9611   21.1604 C.2     1  UNL1        0.2851
     25 O          -1.6636  -20.2430   21.6862 O.2     1  UNL1       -0.2665
     26 C           1.1062  -17.8334   20.0319 C.3     1  UNL1        0.0233
     27 C          -0.1255  -18.6174   19.6882 C.3     1  UNL1        0.0939
     28 C          -2.0443  -16.8665   19.6356 C.3     1  UNL1        0.0939
     29 C          -2.8211  -16.8635   18.3524 C.3     1  UNL1        0.0233
@<TRIPOS>BOND
     1    26    27    1
     2    27    23    1
     3    23    28    1
     4    28    29    1
     5    23    24   am
     6    24    25    2
     7    24    17    1
     8    17    18   ar
     9    18    19   ar
    10    19    20   ar
    11    20     1    1
    12     1     2    2
    13     2     3    1
    14     3     4    1
    15     4     5    1
    16     5     6    1
    17     6     7    1
    18     7     8    1
    19     3     9    1
    20     9    10    1
    21    10    11   ar
    22    11    12   ar
    23    12    13   ar
    24    13    14   ar
    25    14    15   ar
    26    20    21   ar
    27    21    22   ar
    28    22    17   ar
    29    15     1    1
    30     8     3    1
    31    15    10   ar
    32     6    16    1
@<TRIPOS>MOLECULE
*****
 29 32 0 0 0
SMALL
GASTEIGER

@<TRIPOS>ATOM
      1 C           3.2434   -0.8618   21.6093 C.2     1  UNL1        0.0050
      2 C           3.6248   -1.1306   23.0349 C.2     1  UNL1        0.0131
      3 C           4.7569   -2.0645   23.3451 C.3     1  UNL1        0.1542
      4 C           4.0062   -1.3994   24.4605 C.3     1  UNL1        0.0614
      5 C           4.3877   -1.6682   25.8860 C.3     1  UNL1        0.0725
      6 N           5.5198   -2.6021   26.1961 N.3     1  UNL1       -0.2972
      7 C           6.2704   -3.2672   25.0808 C.3     1  UNL1        0.0725
      8 C           5.8890   -2.9984   23.6552 C.3     1  UNL1        0.0614
      9 O           5.5075   -2.7297   22.2296 O.3     1  UNL1       -0.4785
     10 C           5.1261   -2.4609   20.8041 C.ar    1  UNL1        0.1386
     11 C           5.8767   -3.1260   19.6886 C.ar    1  UNL1        0.0369
     12 C           5.4953   -2.8572   18.2631 C.ar    1  UNL1        0.0031
     13 C           4.3632   -1.9233   17.9529 C.ar    1  UNL1        0.0002
     14 C           3.6126   -1.2582   19.0683 C.ar    1  UNL1        0.0030
     15 C           3.9940   -1.5270   20.4939 C.ar    1  UNL1        0.0339
     16 H           5.1361   -3.3469   26.7780 H       1  UNL1        0.1233
     17 C          -0.1529    1.9399   20.6788 C.ar    1  UNL1        0.2171
     18 N           1.1160    2.4718   21.2761 N.ar    1  UNL1       -0.2212
     19 C           2.2481    1.5379   21.5863 C.ar    1  UNL1        0.1022
     20 C           2.1113    0.0721   21.2991 C.ar    1  UNL1        0.0383
     21 C           0.8423   -0.4599   20.7018 C.ar    1  UNL1        0.1022
     22 N          -0.2898    0.4740   20.3916 N.ar    1  UNL1       -0.2212
     23 N          -1.3269    3.5902   19.0515 N.am    1  UNL1       -0.2736
     24 C          -1.2850    2.8738   20.3687 C.2     1  UNL1        0.2851
     25 O          -2.3752    3.0913   21.3758 O.2     1  UNL1       -0.2665
     26 C          -3.7379    3.9883   18.1691 C.3     1  UNL1        0.0233
     27 C          -2.4590    4.5241   18.7413 C.3     1  UNL1        0.0939
     28 C          -0.2367    3.3727   18.0444 C.3     1  UNL1        0.0939
     29 C           0.8712    4.3749   17.9101 C.3     1  UNL1        0.0233
@<TRIPOS>BOND
     1    26    27    1
     2    27    23    1
     3    23    28    1
     4    28    29    1
     5    23    24   am
     6    24    25    2
     7    24    17    1
     8    17    18   ar
     9    18    19   ar
    10    19    20   ar
    11    20     1    1
    12     1     2    2
    13     2     3    1
    14     3     4    1
    15     4     5    1
    16     5     6    1
    17     6     7    1
    18     7     8    1
    19     3     9    1
    20     9    10    1
    21    10    11   ar
    22    11    12   ar
    23    12    13   ar
    24    13    14   ar
    25    14    15   ar
    26    20    21   ar
    27    21    22   ar
    28    22    17   ar
    29    15     1    1
    30     8     3    1
    31    15    10   ar
    32     6    16    1
@<TRIPOS>MOLECULE
*****
 29 32 0 0 0
SMALL
GASTEIGER

@<TRIPOS>ATOM
      1 C           6.7692   -3.7750   25.2546 C.2     1  UNL1        0.0050
      2 C           6.4487   -3.1560   26.5829 C.2     1  UNL1        0.0131
      3 C           6.7856   -3.8840   27.8504 C.3     1  UNL1        0.1542
      4 C           6.1283   -2.5371   27.9111 C.3     1  UNL1        0.0614
      5 C           5.8079   -1.9182   29.2394 C.3     1  UNL1        0.0725
      6 N           6.1447   -2.6462   30.5069 N.3     1  UNL1       -0.2972
      7 C           6.8020   -3.9931   30.4461 C.3     1  UNL1        0.0725
      8 C           7.1224   -4.6121   29.1179 C.3     1  UNL1        0.0614
      9 O           7.4429   -5.2310   27.7896 O.3     1  UNL1       -0.4785
     10 C           7.7633   -5.8500   26.4614 C.ar    1  UNL1        0.1386
     11 C           8.4206   -7.1970   26.4006 C.ar    1  UNL1        0.0369
     12 C           8.7410   -7.8159   25.0724 C.ar    1  UNL1        0.0031
     13 C           8.4042   -7.0879   23.8049 C.ar    1  UNL1        0.0002
     14 C           7.7469   -5.7409   23.8656 C.ar    1  UNL1        0.0030
     15 C           7.4265   -5.1219   25.1939 C.ar    1  UNL1        0.0339
     16 H           5.2703   -2.7680   31.0177 H       1  UNL1        0.1233
     17 C           5.7587   -1.5910   21.4522 C.ar    1  UNL1        0.2171
     18 N           4.7162   -2.4222   22.1394 N.ar    1  UNL1       -0.2212
     19 C           5.0530   -3.1502   23.4069 C.ar    1  UNL1        0.1022
     20 C           6.4323   -3.0470   23.9872 C.ar    1  UNL1        0.0383
     21 C           7.4749   -2.2158   23.2999 C.ar    1  UNL1        0.1022
     22 N           7.1381   -1.4878   22.0324 N.ar    1  UNL1       -0.2212
     23 N           5.4692   -1.5841   18.8703 N.am    1  UNL1       -0.2736
     24 C           5.4218   -0.8630   20.1847 C.2     1  UNL1        0.2851
     25 O           5.0376    0.5863   20.2316 O.2     1  UNL1       -0.2665
     26 C           3.7148   -0.8185   17.1135 C.3     1  UNL1        0.0233
     27 C           5.1323   -0.8561   17.6028 C.3     1  UNL1        0.0939
     28 C           5.8534   -3.0334   18.8234 C.3     1  UNL1        0.0939
     29 C           4.7901   -4.0895   18.7595 C.3     1  UNL1        0.0233
@<TRIPOS>BOND
     1    26    27    1
     2    27    23    1
     3    23    28    1
     4    28    29    1
     5    23    24   am
     6    24    25    2
     7    24    17    1
     8    17    18   ar
     9    18    19   ar
    10    19    20   ar
    11    20     1    1
    12     1     2    2
    13     2     3    1
    14     3     4    1
    15     4     5    1
    16     5     6    1
    17     6     7    1
    18     7     8    1
    19     3     9    1
    20     9    10    1
    21    10    11   ar
    22    11    12   ar
    23    12    13   ar
    24    13    14   ar
    25    14    15   ar
    26    20    21   ar
    27    21    22   ar
    28    22    17   ar
    29    15     1    1
    30     8     3    1
    31    15    10   ar
    32     6    16    1
@<TRIPOS>MOLECULE
*****
 29 32 0 0 0
SMALL
GASTEIGER

@<TRIPOS>ATOM
      1 C           2.3862   -0.0376   22.5361 C.2     1  UNL1        0.0050
      2 C           3.2404   -1.2634   22.4023 C.2     1  UNL1        0.0131
      3 C           3.5208   -1.8376   21.0452 C.3     1  UNL1        0.1542
      4 C           4.0945   -2.4891   22.2684 C.3     1  UNL1        0.0614
      5 C           4.9486   -3.7149   22.1346 C.3     1  UNL1        0.0725
      6 N           5.2290   -4.2891   20.7775 N.3     1  UNL1       -0.2972
      7 C           4.6552   -3.6376   19.5543 C.3     1  UNL1        0.0725
      8 C           3.8011   -2.4119   19.6881 C.3     1  UNL1        0.0614
      9 O           2.9470   -1.1861   19.8219 O.3     1  UNL1       -0.4785
     10 C           2.0928    0.0397   19.9558 C.ar    1  UNL1        0.1386
     11 C           1.5190    0.6913   18.7325 C.ar    1  UNL1        0.0369
     12 C           0.6649    1.9170   18.8664 C.ar    1  UNL1        0.0031
     13 C           0.3845    2.4913   20.2235 C.ar    1  UNL1        0.0002
     14 C           0.9583    1.8398   21.4467 C.ar    1  UNL1        0.0030
     15 C           1.8125    0.6139   21.3129 C.ar    1  UNL1        0.0339
     16 H           4.8862   -5.2497   20.7877 H       1  UNL1        0.1233
     17 C           1.5451    1.6852   26.6073 C.ar    1  UNL1        0.2171
     18 N           0.4316    1.5283   25.6146 N.ar    1  UNL1       -0.2212
     19 C           0.7120    0.9541   24.2575 C.ar    1  UNL1        0.1022
     20 C           2.1059    0.5367   23.8931 C.ar    1  UNL1        0.0383
     21 C           3.2195    0.6935   24.8858 C.ar    1  UNL1        0.1022
     22 N           2.9391    1.2678   26.2429 N.ar    1  UNL1       -0.2212
     23 N           0.6571    1.3988   29.0320 N.am    1  UNL1       -0.2736
     24 C           1.2648    2.2595   27.9643 C.2     1  UNL1        0.2851
     25 O           1.5922    3.6945   28.2537 O.2     1  UNL1       -0.2665
     26 C           1.4147    1.8877   31.4686 C.3     1  UNL1        0.0233
     27 C           0.3767    1.9730   30.3891 C.3     1  UNL1        0.0939
     28 C           0.3297   -0.0362   28.7426 C.3     1  UNL1        0.0939
     29 C          -1.0985   -0.4945   28.7433 C.3     1  UNL1        0.0233
@<TRIPOS>BOND
     1    26    27    1
     2    27    23    1
     3    23    28    1
     4    28    29    1
     5    23    24   am
     6    24    25    2
     7    24    17    1
     8    17    18   ar
     9    18    19   ar
    10    19    20   ar
    11    20     1    1
    12     1     2    2
    13     2     3    1
    14     3     4    1
    15     4     5    1
    16     5     6    1
    17     6     7    1
    18     7     8    1
    19     3     9    1
    20     9    10    1
    21    10    11   ar
    22    11    12   ar
    23    12    13   ar
    24    13    14   ar
    25    14    15   ar
    26    20    21   ar
    27    21    22   ar
    28    22    17   ar
    29    15     1    1
    30     8     3    1
    31    15    10   ar
    32     6    16    1
@<TRIPOS>MOLECULE
*****
 29 32 0 0 0
SMALL
GASTEIGER

@<TRIPOS>ATOM
      1 C           4.5995   -0.3770   32.9861 C.2     1  UNL1        0.0050
      2 C           3.5665    0.2076   32.0689 C.2     1  UNL1        0.0131
      3 C           2.6567    1.2945   32.5598 C.3     1  UNL1        0.1542
      4 C           2.5335    0.7921   31.1518 C.3     1  UNL1        0.0614
      5 C           1.5005    1.3767   30.2347 C.3     1  UNL1        0.0725
      6 N           0.5907    2.4637   30.7255 N.3     1  UNL1       -0.2972
      7 C           0.7140    2.9660   32.1335 C.3     1  UNL1        0.0725
      8 C           1.7470    2.3815   33.0506 C.3     1  UNL1        0.0614
      9 O           2.7800    1.7969   33.9678 O.3     1  UNL1       -0.4785
     10 C           3.8130    1.2124   34.8849 C.ar    1  UNL1        0.1386
     11 C           3.9363    1.7147   36.2930 C.ar    1  UNL1        0.0369
     12 C           4.9693    1.1302   37.2101 C.ar    1  UNL1        0.0031
     13 C           5.8791    0.0432   36.7192 C.ar    1  UNL1        0.0002
     14 C           5.7558   -0.4592   35.3113 C.ar    1  UNL1        0.0030
     15 C           4.7228    0.1254   34.3941 C.ar    1  UNL1        0.0339
     16 H          -0.3635    2.1198   30.6181 H       1  UNL1        0.1233
     17 C           7.3287   -3.6378   31.5137 C.ar    1  UNL1        0.2171
     18 N           6.1585   -3.9773   32.3885 N.ar    1  UNL1       -0.2212
     19 C           5.2488   -2.8903   32.8793 C.ar    1  UNL1        0.1022
     20 C           5.5092   -1.4639   32.4953 C.ar    1  UNL1        0.0383
     21 C           6.6795   -1.1244   31.6204 C.ar    1  UNL1        0.1022
     22 N           7.5892   -2.2114   31.1296 N.ar    1  UNL1       -0.2212
     23 N           7.8514   -5.5440   29.8275 N.am    1  UNL1       -0.2736
     24 C           8.2385   -4.7248   31.0228 C.2     1  UNL1        0.2851
     25 O           9.5354   -4.9925   31.7275 O.2     1  UNL1       -0.2665
     26 C           8.5228   -7.2600   27.9959 C.3     1  UNL1        0.0233
     27 C           8.7611   -6.6309   29.3366 C.3     1  UNL1        0.0939
     28 C           6.5544   -5.2763   29.1228 C.3     1  UNL1        0.0939
     29 C           6.4889   -4.2397   28.0407 C.3     1  UNL1        0.0233
@<TRIPOS>BOND
     1    26    27    1
     2    27    23    1
     3    23    28    1
     4    28    29    1
     5    23    24   am
     6    24    25    2
     7    24    17    1
     8    17    18   ar
     9    18    19   ar
    10    19    20   ar
    11    20     1    1
    12     1     2    2
    13     2     3    1
    14     3     4    1
    15     4     5    1
    16     5     6    1
    17     6     7    1
    18     7     8    1
    19     3     9    1
    20     9    10    1
    21    10    11   ar
    22    11    12   ar
    23    12    13   ar
    24    13    14   ar
    25    14    15   ar
    26    20    21   ar
    27    21    22   ar
    28    22    17   ar
    29    15     1    1
    30     8     3    1
    31    15    10   ar
    32     6    16    1
@<TRIPOS>MOLECULE
*****
 29 32 0 0 0
SMALL
GASTEIGER

@<TRIPOS>ATOM
      1 C         -14.4461   -4.0165   18.9670 C.2     1  UNL1        0.0050
      2 C         -12.9554   -4.1657   18.8916 C.2     1  UNL1        0.0131
      3 C         -12.3330   -5.5281   18.9715 C.3     1  UNL1        0.1542
      4 C         -11.4648   -4.3149   18.8163 C.3     1  UNL1        0.0614
      5 C          -9.9742   -4.4641   18.7410 C.3     1  UNL1        0.0725
      6 N          -9.3518   -5.8266   18.8209 N.3     1  UNL1       -0.2972
      7 C         -10.2200   -7.0398   18.9761 C.3     1  UNL1        0.0725
      8 C         -11.7107   -6.8906   19.0514 C.3     1  UNL1        0.0614
      9 O         -13.2014   -6.7414   19.1267 O.3     1  UNL1       -0.4785
     10 C         -14.6920   -6.5922   19.2020 C.ar    1  UNL1        0.1386
     11 C         -15.5603   -7.8055   19.3572 C.ar    1  UNL1        0.0369
     12 C         -17.0510   -7.6563   19.4325 C.ar    1  UNL1        0.0031
     13 C         -17.6733   -6.2939   19.3527 C.ar    1  UNL1        0.0002
     14 C         -16.8051   -5.0806   19.1975 C.ar    1  UNL1        0.0030
     15 C         -15.3144   -5.2298   19.1221 C.ar    1  UNL1        0.0339
     16 H          -8.7176   -5.8142   19.6197 H       1  UNL1        0.1233
     17 C         -16.3133    0.0708   18.7273 C.ar    1  UNL1        0.2171
     18 N         -16.0959   -0.7289   17.4771 N.ar    1  UNL1       -0.2212
     19 C         -15.4735   -2.0914   17.5569 C.ar    1  UNL1        0.1022
     20 C         -15.0685   -2.6541   18.8871 C.ar    1  UNL1        0.0383
     21 C         -15.2859   -1.8544   20.1374 C.ar    1  UNL1        0.1022
     22 N         -15.9083   -0.4919   20.0575 N.ar    1  UNL1       -0.2212
     23 N         -18.4170    1.5925   18.8214 N.am    1  UNL1       -0.2736
     24 C         -16.9357    1.4332   18.6474 C.2     1  UNL1        0.2851
     25 O         -16.0766    2.6365   18.3935 O.2     1  UNL1       -0.2665
     26 C         -19.1250    3.8135   19.9686 C.3     1  UNL1        0.0233
     27 C         -19.0393    2.9549   18.7415 C.3     1  UNL1        0.0939
     28 C         -19.2760    0.3893   19.0753 C.3     1  UNL1        0.0939
     29 C         -19.6059   -0.0134   20.4820 C.3     1  UNL1        0.0233
@<TRIPOS>BOND
     1    26    27    1
     2    27    23    1
     3    23    28    1
     4    28    29    1
     5    23    24   am
     6    24    25    2
     7    24    17    1
     8    17    18   ar
     9    18    19   ar
    10    19    20   ar
    11    20     1    1
    12     1     2    2
    13     2     3    1
    14     3     4    1
    15     4     5    1
    16     5     6    1
    17     6     7    1
    18     7     8    1
    19     3     9    1
    20     9    10    1
    21    10    11   ar
    22    11    12   ar
    23    12    13   ar
    24    13    14   ar
    25    14    15   ar
    26    20    21   ar
    27    21    22   ar
    28    22    17   ar
    29    15     1    1
    30     8     3    1
    31    15    10   ar
    32     6    16    1
@<TRIPOS>MOLECULE
*****
 29 32 0 0 0
SMALL
GASTEIGER

@<TRIPOS>ATOM
      1 C           3.1499   -0.6495   21.3820 C.2     1  UNL1        0.0050
      2 C           3.4741   -0.8996   22.8251 C.2     1  UNL1        0.0131
      3 C           4.5335   -1.8954   23.1940 C.3     1  UNL1        0.1542
      4 C           3.7983   -1.1498   24.2681 C.3     1  UNL1        0.0614
      5 C           4.1226   -1.4000   25.7110 C.3     1  UNL1        0.0725
      6 N           5.1820   -2.3958   26.0800 N.3     1  UNL1       -0.2972
      7 C           5.9171   -3.1414   25.0060 C.3     1  UNL1        0.0725
      8 C           5.5929   -2.8912   23.5630 C.3     1  UNL1        0.0614
      9 O           5.2687   -2.6410   22.1199 O.3     1  UNL1       -0.4785
     10 C           4.9444   -2.3909   20.6769 C.ar    1  UNL1        0.1386
     11 C           5.6796   -3.1365   19.6028 C.ar    1  UNL1        0.0369
     12 C           5.3554   -2.8863   18.1598 C.ar    1  UNL1        0.0031
     13 C           4.2960   -1.8905   17.7909 C.ar    1  UNL1        0.0002
     14 C           3.5608   -1.1449   18.8649 C.ar    1  UNL1        0.0030
     15 C           3.8850   -1.3951   20.3080 C.ar    1  UNL1        0.0339
     16 H           4.7345   -3.0962   26.6712 H       1  UNL1        0.1233
     17 C          -0.0282    2.3379   20.2752 C.ar    1  UNL1        0.2171
     18 N          -0.3950    0.9006   20.4982 N.ar    1  UNL1       -0.2212
     19 C           0.6644   -0.0951   20.8672 C.ar    1  UNL1        0.1022
     20 C           2.0905    0.3463   21.0131 C.ar    1  UNL1        0.0383
     21 C           2.4573    1.7836   20.7900 C.ar    1  UNL1        0.1022
     22 N           1.3979    2.7794   20.4210 N.ar    1  UNL1       -0.2212
     23 N          -1.8904    4.0070   20.9795 N.am    1  UNL1       -0.2736
     24 C          -1.0876    3.3337   19.9062 C.2     1  UNL1        0.2851
     25 O          -1.3442    3.6561   18.4638 O.2     1  UNL1       -0.2665
     26 C          -4.2982    4.5292   20.1549 C.3     1  UNL1        0.0233
     27 C          -2.9498    5.0028   20.6106 C.3     1  UNL1        0.0939
     28 C          -1.6339    3.6846   22.4219 C.3     1  UNL1        0.0939
     29 C          -2.7690    3.6784   23.4024 C.3     1  UNL1        0.0233
@<TRIPOS>BOND
     1    26    27    1
     2    27    23    1
     3    23    28    1
     4    28    29    1
     5    23    24   am
     6    24    25    2
     7    24    17    1
     8    17    18   ar
     9    18    19   ar
    10    19    20   ar
    11    20     1    1
    12     1     2    2
    13     2     3    1
    14     3     4    1
    15     4     5    1
    16     5     6    1
    17     6     7    1
    18     7     8    1
    19     3     9    1
    20     9    10    1
    21    10    11   ar
    22    11    12   ar
    23    12    13   ar
    24    13    14   ar
    25    14    15   ar
    26    20    21   ar
    27    21    22   ar
    28    22    17   ar
    29    15     1    1
    30     8     3    1
    31    15    10   ar
    32     6    16    1
@<TRIPOS>MOLECULE
*****
 29 32 0 0 0
SMALL
GASTEIGER

@<TRIPOS>ATOM
      1 C         -14.5191   -4.0395   18.9776 C.2     1  UNL1        0.0050
      2 C         -13.0269   -4.1630   18.8870 C.2     1  UNL1        0.0131
      3 C         -12.3806   -5.5148   18.9584 C.3     1  UNL1        0.1542
      4 C         -11.5347   -4.2867   18.7965 C.3     1  UNL1        0.0614
      5 C         -10.0426   -4.4103   18.7060 C.3     1  UNL1        0.0725
      6 N          -9.3963   -5.7621   18.7774 N.3     1  UNL1       -0.2972
      7 C         -10.2422   -6.9902   18.9393 C.3     1  UNL1        0.0725
      8 C         -11.7343   -6.8665   19.0298 C.3     1  UNL1        0.0614
      9 O         -13.2265   -6.7429   19.1203 O.3     1  UNL1       -0.4785
     10 C         -14.7186   -6.6193   19.2108 C.ar    1  UNL1        0.1386
     11 C         -15.5645   -7.8475   19.3727 C.ar    1  UNL1        0.0369
     12 C         -17.0567   -7.7238   19.4632 C.ar    1  UNL1        0.0031
     13 C         -17.7030   -6.3721   19.3918 C.ar    1  UNL1        0.0002
     14 C         -16.8571   -5.1440   19.2299 C.ar    1  UNL1        0.0030
     15 C         -15.3649   -5.2676   19.1394 C.ar    1  UNL1        0.0339
     16 H          -8.7545   -5.7401   19.5698 H       1  UNL1        0.1233
     17 C         -16.4579    0.0158   18.7635 C.ar    1  UNL1        0.2171
     18 N         -15.9405   -0.4999   20.0735 N.ar    1  UNL1       -0.2212
     19 C         -15.2942   -1.8516   20.1449 C.ar    1  UNL1        0.1022
     20 C         -15.1654   -2.6877   18.9062 C.ar    1  UNL1        0.0383
     21 C         -15.6828   -2.1720   17.5961 C.ar    1  UNL1        0.1022
     22 N         -16.3291   -0.8203   17.5247 N.ar    1  UNL1       -0.2212
     23 N         -16.2757    2.5797   18.3854 N.am    1  UNL1       -0.2736
     24 C         -17.1042    1.3675   18.6921 C.2     1  UNL1        0.2851
     25 O         -18.5791    1.5071   18.9274 O.2     1  UNL1       -0.2665
     26 C         -17.4735    4.4313   17.0116 C.3     1  UNL1        0.0233
     27 C         -16.9220    3.9315   18.3140 C.3     1  UNL1        0.0939
     28 C         -14.8008    2.4402   18.1500 C.3     1  UNL1        0.0939
     29 C         -14.2721    2.3257   16.7510 C.3     1  UNL1        0.0233
@<TRIPOS>BOND
     1    26    27    1
     2    27    23    1
     3    23    28    1
     4    28    29    1
     5    23    24   am
     6    24    25    2
     7    24    17    1
     8    17    18   ar
     9    18    19   ar
    10    19    20   ar
    11    20     1    1
    12     1     2    2
    13     2     3    1
    14     3     4    1
    15     4     5    1
    16     5     6    1
    17     6     7    1
    18     7     8    1
    19     3     9    1
    20     9    10    1
    21    10    11   ar
    22    11    12   ar
    23    12    13   ar
    24    13    14   ar
    25    14    15   ar
    26    20    21   ar
    27    21    22   ar
    28    22    17   ar
    29    15     1    1
    30     8     3    1
    31    15    10   ar
    32     6    16    1
