@<TRIPOS>MOLECULE
*****
 27 30 0 0 0
SMALL
GASTEIGER

@<TRIPOS>ATOM
      1 C          -6.0748  -19.1503   20.9718 C.ar    1  UNL1        0.0193
      2 C          -6.5972  -19.2357   22.3753 C.ar    1  UNL1        0.0017
      3 C          -8.0745  -19.3157   22.6221 C.ar    1  UNL1        0.0046
      4 C          -9.0296  -19.3103   21.4654 C.ar    1  UNL1        0.0536
      5 C          -8.5071  -19.2250   20.0619 C.ar    1  UNL1        0.0046
      6 C          -7.0297  -19.1450   19.8151 C.ar    1  UNL1        0.0017
      7 C          -2.0783  -17.5433   18.0656 C.3     1  UNL1        0.1571
      8 N          -2.5991  -18.2668   19.2720 N.ar    1  UNL1       -0.2146
      9 N          -4.0765  -18.3468   19.5187 N.ar    1  UNL1       -0.1668
     10 C          -4.5973  -19.0703   20.7251 C.ar    1  UNL1        0.1011
     11 C          -3.6407  -19.7138   21.6847 C.ar    1  UNL1        0.0258
     12 C          -2.1634  -19.6338   21.4379 C.ar    1  UNL1        0.0638
     13 C          -1.6426  -18.9103   20.2315 C.ar    1  UNL1        0.2765
     14 O          -0.1651  -18.8303   19.9848 O.2     1  UNL1       -0.2655
     15 C         -10.5069  -19.3903   21.7122 C.2     1  UNL1        0.2490
     16 O         -11.2187  -20.7043   21.5832 O.2     1  UNL1       -0.2699
     17 N         -11.2725  -18.1563   22.0879 N.am    1  UNL1       -0.2763
     18 C         -12.7450  -18.0821   22.3638 C.3     1  UNL1        0.0938
     19 C         -13.0825  -16.6598   22.7001 C.3     1  UNL1        0.0233
     20 C         -11.8186  -15.8549   22.6321 C.3     1  UNL1        0.0230
     21 C         -10.6999  -16.7799   22.2537 C.3     1  UNL1        0.0916
     22 C          -9.2613  -16.3957   22.0729 C.3     1  UNL1        0.0921
     23 N          -8.4385  -15.9899   23.2595 N.3     1  UNL1       -0.2713
     24 C          -8.8652  -16.0653   24.6956 C.3     1  UNL1        0.0722
     25 C          -7.7349  -15.5594   25.5422 C.3     1  UNL1        0.0188
     26 C          -6.6097  -15.1713   24.6293 C.3     1  UNL1        0.0188
     27 C          -7.0445  -15.4374   23.2186 C.3     1  UNL1        0.0722
@<TRIPOS>BOND
     1     7     8    1
     2     8     9   ar
     3     9    10   ar
     4    10     1    1
     5     1     2   ar
     6     2     3   ar
     7     3     4   ar
     8     4    15    1
     9    15    16    2
    10    15    17   am
    11    17    18    1
    12    18    19    1
    13    19    20    1
    14    20    21    1
    15    21    22    1
    16    22    23    1
    17    23    24    1
    18    24    25    1
    19    25    26    1
    20    26    27    1
    21     4     5   ar
    22     5     6   ar
    23    10    11   ar
    24    11    12   ar
    25    12    13   ar
    26    13    14    2
    27    13     8   ar
    28     6     1   ar
    29    21    17    1
    30    27    23    1
@<TRIPOS>MOLECULE
*****
 27 30 0 0 0
SMALL
GASTEIGER

@<TRIPOS>ATOM
      1 C          -6.1669  -19.1843   21.0344 C.ar    1  UNL1        0.0193
      2 C          -7.1337  -19.1452   19.8882 C.ar    1  UNL1        0.0017
      3 C          -8.6088  -19.2259   20.1482 C.ar    1  UNL1        0.0046
      4 C          -9.1171  -19.3455   21.5544 C.ar    1  UNL1        0.0536
      5 C          -8.1503  -19.3846   22.7006 C.ar    1  UNL1        0.0046
      6 C          -6.6752  -19.3040   22.4405 C.ar    1  UNL1        0.0017
      7 C          -1.6890  -16.5609   21.2917 C.3     1  UNL1        0.1571
      8 N          -2.4529  -17.7919   20.9030 N.ar    1  UNL1       -0.2146
      9 N          -3.9279  -17.8726   21.1630 N.ar    1  UNL1       -0.1668
     10 C          -4.6918  -19.1036   20.7743 C.ar    1  UNL1        0.1011
     11 C          -3.9806  -20.2540   20.1257 C.ar    1  UNL1        0.0258
     12 C          -2.5055  -20.1733   19.8657 C.ar    1  UNL1        0.0638
     13 C          -1.7417  -18.9423   20.2544 C.ar    1  UNL1        0.2765
     14 O          -0.2665  -18.8617   19.9943 O.2     1  UNL1       -0.2655
     15 C         -10.5922  -19.4262   21.8143 C.2     1  UNL1        0.2490
     16 O         -11.2982  -20.7466   21.7259 O.2     1  UNL1       -0.2699
     17 N         -11.3612  -18.1863   22.1627 N.am    1  UNL1       -0.2763
     18 C         -12.8320  -18.1120   22.4477 C.3     1  UNL1        0.0938
     19 C         -13.1743  -16.6828   22.7484 C.3     1  UNL1        0.0233
     20 C         -11.9150  -15.8739   22.6494 C.3     1  UNL1        0.0230
     21 C         -10.7945  -16.8031   22.2874 C.3     1  UNL1        0.0916
     22 C          -9.3592  -16.4169   22.0856 C.3     1  UNL1        0.0921
     23 N          -8.5245  -15.9934   23.2576 N.3     1  UNL1       -0.2713
     24 C          -7.1233  -15.4615   23.1958 C.3     1  UNL1        0.0722
     25 C          -6.6772  -15.1667   24.5973 C.3     1  UNL1        0.0188
     26 C          -7.8026  -15.5165   25.5253 C.3     1  UNL1        0.0188
     27 C          -8.9443  -16.0273   24.6973 C.3     1  UNL1        0.0722
@<TRIPOS>BOND
     1     7     8    1
     2     8     9   ar
     3     9    10   ar
     4    10     1    1
     5     1     2   ar
     6     2     3   ar
     7     3     4   ar
     8     4    15    1
     9    15    16    2
    10    15    17   am
    11    17    18    1
    12    18    19    1
    13    19    20    1
    14    20    21    1
    15    21    22    1
    16    22    23    1
    17    23    24    1
    18    24    25    1
    19    25    26    1
    20    26    27    1
    21     4     5   ar
    22     5     6   ar
    23    10    11   ar
    24    11    12   ar
    25    12    13   ar
    26    13    14    2
    27    13     8   ar
    28     6     1   ar
    29    21    17    1
    30    27    23    1
@<TRIPOS>MOLECULE
*****
 27 30 0 0 0
SMALL
GASTEIGER

@<TRIPOS>ATOM
      1 C          -6.0449  -18.8738   22.0133 C.ar    1  UNL1        0.0193
      2 C          -6.6055  -17.6673   22.7063 C.ar    1  UNL1        0.0017
      3 C          -7.9079  -17.7636   23.4440 C.ar    1  UNL1        0.0046
      4 C          -8.6500  -19.0665   23.4887 C.ar    1  UNL1        0.0536
      5 C          -8.0894  -20.2730   22.7958 C.ar    1  UNL1        0.0046
      6 C          -6.7869  -20.1766   22.0581 C.ar    1  UNL1        0.0017
      7 C          -1.4461  -16.5673   21.2846 C.3     1  UNL1        0.1571
      8 N          -2.4430  -17.6241   20.9113 N.ar    1  UNL1       -0.2146
      9 N          -3.7455  -17.7205   21.6489 N.ar    1  UNL1       -0.1668
     10 C          -4.7424  -18.7774   21.2756 C.ar    1  UNL1        0.1011
     11 C          -4.4368  -19.7377   20.1647 C.ar    1  UNL1        0.0258
     12 C          -3.1343  -19.6413   19.4270 C.ar    1  UNL1        0.0638
     13 C          -2.1374  -18.5845   19.8003 C.ar    1  UNL1        0.2765
     14 O          -0.8349  -18.4881   19.0626 O.2     1  UNL1       -0.2655
     15 C          -9.9524  -19.1629   24.2264 C.2     1  UNL1        0.2490
     16 O         -10.0247  -19.9078   25.5264 O.2     1  UNL1       -0.2699
     17 N         -11.1826  -18.5143   23.6642 N.am    1  UNL1       -0.2763
     18 C         -12.5478  -18.5261   24.2855 C.3     1  UNL1        0.0938
     19 C         -13.4725  -17.7592   23.3872 C.3     1  UNL1        0.0233
     20 C         -12.6788  -17.2734   22.2108 C.3     1  UNL1        0.0230
     21 C         -11.2635  -17.7402   22.3820 C.3     1  UNL1        0.0916
     22 C         -10.1285  -17.4786   21.4368 C.3     1  UNL1        0.0921
     23 N          -9.7606  -18.5030   20.4048 N.3     1  UNL1       -0.2713
     24 C          -8.4718  -18.5600   19.6394 C.3     1  UNL1        0.0722
     25 C          -8.5316  -19.7425   18.7185 C.3     1  UNL1        0.0188
     26 C          -9.8572  -20.4164   18.9147 C.3     1  UNL1        0.0188
     27 C         -10.6168  -19.6504   19.9568 C.3     1  UNL1        0.0722
@<TRIPOS>BOND
     1     7     8    1
     2     8     9   ar
     3     9    10   ar
     4    10     1    1
     5     1     2   ar
     6     2     3   ar
     7     3     4   ar
     8     4    15    1
     9    15    16    2
    10    15    17   am
    11    17    18    1
    12    18    19    1
    13    19    20    1
    14    20    21    1
    15    21    22    1
    16    22    23    1
    17    23    24    1
    18    24    25    1
    19    25    26    1
    20    26    27    1
    21     4     5   ar
    22     5     6   ar
    23    10    11   ar
    24    11    12   ar
    25    12    13   ar
    26    13    14    2
    27    13     8   ar
    28     6     1   ar
    29    21    17    1
    30    27    23    1
@<TRIPOS>MOLECULE
*****
 27 30 0 0 0
SMALL
GASTEIGER

@<TRIPOS>ATOM
      1 C          -7.3830  -18.6959   21.5129 C.ar    1  UNL1        0.0193
      2 C          -8.3186  -19.8678   21.4800 C.ar    1  UNL1        0.0017
      3 C          -9.8001  -19.6472   21.5595 C.ar    1  UNL1        0.0046
      4 C         -10.3461  -18.2546   21.6719 C.ar    1  UNL1        0.0536
      5 C          -9.4105  -17.0826   21.7047 C.ar    1  UNL1        0.0046
      6 C          -7.9289  -17.3033   21.6252 C.ar    1  UNL1        0.0017
      7 C          -2.5716  -17.5570   23.1109 C.3     1  UNL1        0.1571
      8 N          -3.4957  -18.3471   22.2324 N.ar    1  UNL1       -0.2146
      9 N          -4.9773  -18.1264   22.3119 N.ar    1  UNL1       -0.1668
     10 C          -5.9014  -18.9165   21.4334 C.ar    1  UNL1        0.1011
     11 C          -5.3440  -19.9273   20.4754 C.ar    1  UNL1        0.0258
     12 C          -3.8625  -20.1479   20.3960 C.ar    1  UNL1        0.0638
     13 C          -2.9383  -19.3578   21.2745 C.ar    1  UNL1        0.2765
     14 O          -1.4567  -19.5784   21.1950 O.2     1  UNL1       -0.2655
     15 C         -11.8276  -18.0340   21.7514 C.2     1  UNL1        0.2490
     16 O         -12.6014  -17.6858   20.5145 O.2     1  UNL1       -0.2699
     17 N         -12.5354  -18.1616   23.0677 N.am    1  UNL1       -0.2763
     18 C         -14.0048  -17.9709   23.3009 C.3     1  UNL1        0.0938
     19 C         -14.2755  -18.1937   24.7593 C.3     1  UNL1        0.0233
     20 C         -12.9734  -18.5221   25.4276 C.3     1  UNL1        0.0230
     21 C         -11.8979  -18.5022   24.3821 C.3     1  UNL1        0.0916
     22 C         -10.4408  -18.7752   24.6109 C.3     1  UNL1        0.0921
     23 N          -9.5928  -17.7678   25.3290 N.3     1  UNL1       -0.2713
     24 C          -9.1936  -17.8212   26.7740 C.3     1  UNL1        0.0722
     25 C          -8.3490  -16.6164   27.0664 C.3     1  UNL1        0.0188
     26 C          -8.2263  -15.8184   25.8022 C.3     1  UNL1        0.0188
     27 C          -8.9949  -16.5300   24.7285 C.3     1  UNL1        0.0722
@<TRIPOS>BOND
     1     7     8    1
     2     8     9   ar
     3     9    10   ar
     4    10     1    1
     5     1     2   ar
     6     2     3   ar
     7     3     4   ar
     8     4    15    1
     9    15    16    2
    10    15    17   am
    11    17    18    1
    12    18    19    1
    13    19    20    1
    14    20    21    1
    15    21    22    1
    16    22    23    1
    17    23    24    1
    18    24    25    1
    19    25    26    1
    20    26    27    1
    21     4     5   ar
    22     5     6   ar
    23    10    11   ar
    24    11    12   ar
    25    12    13   ar
    26    13    14    2
    27    13     8   ar
    28     6     1   ar
    29    21    17    1
    30    27    23    1
@<TRIPOS>MOLECULE
*****
 27 30 0 0 0
SMALL
GASTEIGER

@<TRIPOS>ATOM
      1 C          -6.3561  -18.8467   22.1298 C.ar    1  UNL1        0.0193
      2 C          -7.1198  -20.1332   22.2378 C.ar    1  UNL1        0.0017
      3 C          -8.3854  -20.1889   23.0408 C.ar    1  UNL1        0.0046
      4 C          -8.8874  -18.9582   23.7360 C.ar    1  UNL1        0.0536
      5 C          -8.1237  -17.6717   23.6281 C.ar    1  UNL1        0.0046
      6 C          -6.8580  -17.6159   22.8250 C.ar    1  UNL1        0.0017
      7 C          -1.6693  -16.7807   21.2546 C.3     1  UNL1        0.1571
      8 N          -2.7470  -17.7579   20.8892 N.ar    1  UNL1       -0.2146
      9 N          -4.0126  -17.8137   21.6922 N.ar    1  UNL1       -0.1668
     10 C          -5.0903  -18.7909   21.3267 C.ar    1  UNL1        0.1011
     11 C          -4.9023  -19.7124   20.1582 C.ar    1  UNL1        0.0258
     12 C          -3.6367  -19.6567   19.3552 C.ar    1  UNL1        0.0638
     13 C          -2.5590  -18.6794   19.7207 C.ar    1  UNL1        0.2765
     14 O          -1.2933  -18.6237   18.9175 O.2     1  UNL1       -0.2655
     15 C         -10.1531  -19.0139   24.5391 C.2     1  UNL1        0.2490
     16 O         -10.1191  -19.4930   25.9601 O.2     1  UNL1       -0.2699
     17 N         -11.4527  -18.5907   23.9211 N.am    1  UNL1       -0.2763
     18 C         -12.7919  -18.5917   24.5967 C.3     1  UNL1        0.0938
     19 C         -13.8082  -18.0937   23.6122 C.3     1  UNL1        0.0233
     20 C         -13.0970  -17.7849   22.3281 C.3     1  UNL1        0.0230
     21 C         -11.6413  -18.0921   22.5190 C.3     1  UNL1        0.0916
     22 C         -10.5634  -17.9292   21.4887 C.3     1  UNL1        0.0921
     23 N         -10.4931  -16.6754   20.6685 N.3     1  UNL1       -0.2713
     24 C         -11.2812  -16.3904   19.4244 C.3     1  UNL1        0.0722
     25 C         -10.8976  -15.0252   18.9353 C.3     1  UNL1        0.0188
     26 C          -9.8724  -14.4664   19.8770 C.3     1  UNL1        0.0188
     27 C          -9.6225  -15.4863   20.9482 C.3     1  UNL1        0.0722
@<TRIPOS>BOND
     1     7     8    1
     2     8     9   ar
     3     9    10   ar
     4    10     1    1
     5     1     2   ar
     6     2     3   ar
     7     3     4   ar
     8     4    15    1
     9    15    16    2
    10    15    17   am
    11    17    18    1
    12    18    19    1
    13    19    20    1
    14    20    21    1
    15    21    22    1
    16    22    23    1
    17    23    24    1
    18    24    25    1
    19    25    26    1
    20    26    27    1
    21     4     5   ar
    22     5     6   ar
    23    10    11   ar
    24    11    12   ar
    25    12    13   ar
    26    13    14    2
    27    13     8   ar
    28     6     1   ar
    29    21    17    1
    30    27    23    1
@<TRIPOS>MOLECULE
*****
 27 30 0 0 0
SMALL
GASTEIGER

@<TRIPOS>ATOM
      1 C         -15.7623   -3.2478   19.1196 C.ar    1  UNL1        0.0193
      2 C         -15.4952   -4.4066   20.0338 C.ar    1  UNL1        0.0017
      3 C         -14.6771   -5.5682   19.5529 C.ar    1  UNL1        0.0046
      4 C         -14.1260   -5.5710   18.1577 C.ar    1  UNL1        0.0536
      5 C         -14.3931   -4.4122   17.2435 C.ar    1  UNL1        0.0046
      6 C         -15.2113   -3.2505   17.7245 C.ar    1  UNL1        0.0017
      7 C         -20.3694   -1.2071   20.3885 C.3     1  UNL1        0.1571
      8 N         -18.8839   -1.0658   20.2351 N.ar    1  UNL1       -0.2146
      9 N         -18.0658   -2.2274   19.7541 N.ar    1  UNL1       -0.1668
     10 C         -16.5804   -2.0861   19.6006 C.ar    1  UNL1        0.1011
     11 C         -15.9131   -0.7833   19.9281 C.ar    1  UNL1        0.0258
     12 C         -16.7312    0.3783   20.4091 C.ar    1  UNL1        0.0638
     13 C         -18.2166    0.2370   20.5626 C.ar    1  UNL1        0.2765
     14 O         -19.0348    1.3987   21.0436 O.2     1  UNL1       -0.2655
     15 C         -13.3080   -6.7327   17.6768 C.2     1  UNL1        0.2490
     16 O         -13.9533   -7.8233   16.8744 O.2     1  UNL1       -0.2699
     17 N         -11.8445   -6.8036   17.9983 N.am    1  UNL1       -0.2763
     18 C         -10.9037   -7.8973   17.5878 C.3     1  UNL1        0.0938
     19 C          -9.5427   -7.5630   18.1225 C.3     1  UNL1        0.0233
     20 C          -9.6424   -6.2626   18.8635 C.3     1  UNL1        0.0230
     21 C         -11.0650   -5.7933   18.7867 C.3     1  UNL1        0.0916
     22 C         -11.6121   -4.5346   19.3920 C.3     1  UNL1        0.0921
     23 N         -11.4364   -3.2240   18.6841 N.3     1  UNL1       -0.2713
     24 C         -12.0197   -1.9083   19.1071 C.3     1  UNL1        0.0722
     25 C         -11.5904   -0.8700   18.1133 C.3     1  UNL1        0.0188
     26 C         -10.7419   -1.5438   17.0761 C.3     1  UNL1        0.0188
     27 C         -10.6467   -2.9986   17.4288 C.3     1  UNL1        0.0722
@<TRIPOS>BOND
     1     7     8    1
     2     8     9   ar
     3     9    10   ar
     4    10     1    1
     5     1     2   ar
     6     2     3   ar
     7     3     4   ar
     8     4    15    1
     9    15    16    2
    10    15    17   am
    11    17    18    1
    12    18    19    1
    13    19    20    1
    14    20    21    1
    15    21    22    1
    16    22    23    1
    17    23    24    1
    18    24    25    1
    19    25    26    1
    20    26    27    1
    21     4     5   ar
    22     5     6   ar
    23    10    11   ar
    24    11    12   ar
    25    12    13   ar
    26    13    14    2
    27    13     8   ar
    28     6     1   ar
    29    21    17    1
    30    27    23    1
