@<TRIPOS>MOLECULE
*****
 26 28 0 0 0
SMALL
GASTEIGER

@<TRIPOS>ATOM
      1 C         -10.0957  -19.5665   19.9348 C.3     1  UNL1        0.0817
      2 N          -9.8758  -18.6998   21.1392 N.3     1  UNL1       -0.2722
      3 C         -10.1187  -17.2221   21.0542 C.3     1  UNL1        0.0721
      4 C          -9.8989  -16.3555   22.2586 C.3     1  UNL1        0.0178
      5 C          -9.4360  -16.9665   23.5479 C.3     1  UNL1        0.0087
      6 C          -9.1931  -18.4443   23.6329 C.3     1  UNL1        0.0178
      7 C          -9.4130  -19.3109   22.4285 C.3     1  UNL1        0.0721
      8 C          -9.2161  -16.0998   24.7523 C.3     1  UNL1        0.0453
      9 C          -7.8262  -15.6844   25.1337 C.ar    1  UNL1        0.0541
     10 C          -6.7763  -15.1574   24.2009 C.ar    1  UNL1        0.1131
     11 N          -5.5434  -14.8703   25.0055 N.ar    1  UNL1       -0.2229
     12 C          -5.8313  -15.2198   26.4356 C.ar    1  UNL1        0.1748
     13 N          -7.2421  -15.7229   26.5148 N.ar    1  UNL1       -0.3382
     14 H          -7.7038  -16.0253   27.3301 H       1  UNL1        0.1672
     15 C          -8.9635  -19.8373   18.9888 C.3     1  UNL1        0.1026
     16 O          -6.9285  -21.3334   19.5977 O.2     1  UNL1       -0.2747
     17 C          -7.5652  -19.9778   19.5134 C.2     1  UNL1        0.2275
     18 N          -6.8036  -18.7629   19.9535 N.am    1  UNL1       -0.2838
     19 H          -7.2215  -17.8732   19.8982 H       1  UNL1        0.1549
     20 C          -5.4054  -18.9034   20.4780 C.ar    1  UNL1        0.0526
     21 C          -5.1745  -19.1715   21.9357 C.ar    1  UNL1        0.0148
     22 C          -3.7763  -19.3121   22.4602 C.ar    1  UNL1        0.0036
     23 C          -2.6089  -19.1846   21.5270 C.ar    1  UNL1        0.0297
     24 C          -2.8397  -18.9165   20.0693 C.ar    1  UNL1        0.1414
     25 F          -1.6722  -18.7889   19.1361 F       1  UNL1       -0.2041
     26 C          -4.2380  -18.7759   19.5448 C.ar    1  UNL1        0.0443
@<TRIPOS>BOND
     1    16    17    2
     2    17    15    1
     3    15     1    1
     4     1     2    1
     5     2     3    1
     6     3     4    1
     7     4     5    1
     8     5     8    1
     9     8     9    1
    10     9    10   ar
    11    10    11   ar
    12    11    12   ar
    13    12    13   ar
    14     5     6    1
    15     6     7    1
    16    17    18   am
    17    18    20    1
    18    20    21   ar
    19    21    22   ar
    20    22    23   ar
    21    23    24   ar
    22    24    25    1
    23    24    26   ar
    24     7     2    1
    25    26    20   ar
    26    13     9   ar
    27    13    14    1
    28    18    19    1
@<TRIPOS>MOLECULE
*****
 26 28 0 0 0
SMALL
GASTEIGER

@<TRIPOS>ATOM
      1 C         -10.4602  -18.9176   21.7223 C.3     1  UNL1        0.0817
      2 N          -9.0628  -19.3123   21.3459 N.3     1  UNL1       -0.2722
      3 C          -8.0881  -19.7251   22.4086 C.3     1  UNL1        0.0721
      4 C          -6.6908  -20.1198   22.0322 C.3     1  UNL1        0.0178
      5 C          -6.2682  -20.1016   20.5931 C.3     1  UNL1        0.0087
      6 C          -7.2429  -19.6888   19.5304 C.3     1  UNL1        0.0178
      7 C          -8.6402  -19.2942   19.9068 C.3     1  UNL1        0.0721
      8 C          -4.8708  -20.4963   20.2167 C.3     1  UNL1        0.0453
      9 C          -3.7257  -19.5735   20.5115 C.ar    1  UNL1        0.0541
     10 C          -2.5979  -19.8438   21.4628 C.ar    1  UNL1        0.1131
     11 N          -1.6824  -18.6557   21.4460 N.ar    1  UNL1       -0.2229
     12 C          -2.2444  -17.6510   20.4842 C.ar    1  UNL1        0.1748
     13 N          -3.5072  -18.2183   19.9066 N.ar    1  UNL1       -0.3382
     14 H          -4.0902  -17.7784   19.2465 H       1  UNL1        0.1672
     15 C         -10.7040  -17.6354   22.4615 C.3     1  UNL1        0.1026
     16 O          -9.9441  -18.2065   24.8795 O.2     1  UNL1       -0.2747
     17 C          -9.8939  -17.3066   23.6804 C.2     1  UNL1        0.2275
     18 N          -9.0336  -16.0781   23.7003 N.am    1  UNL1       -0.2838
     19 H          -9.0006  -15.4875   22.9133 H       1  UNL1        0.1549
     20 C          -8.2236  -15.7493   24.9191 C.ar    1  UNL1        0.0526
     21 C          -8.8987  -15.5987   26.2502 C.ar    1  UNL1        0.0148
     22 C          -8.0886  -15.2699   27.4691 C.ar    1  UNL1        0.0036
     23 C          -6.6035  -15.0919   27.3570 C.ar    1  UNL1        0.0297
     24 C          -5.9283  -15.2426   26.0260 C.ar    1  UNL1        0.1414
     25 F          -4.4432  -15.0645   25.9140 F       1  UNL1       -0.2041
     26 C          -6.7384  -15.5713   24.8071 C.ar    1  UNL1        0.0443
@<TRIPOS>BOND
     1    16    17    2
     2    17    15    1
     3    15     1    1
     4     1     2    1
     5     2     3    1
     6     3     4    1
     7     4     5    1
     8     5     8    1
     9     8     9    1
    10     9    10   ar
    11    10    11   ar
    12    11    12   ar
    13    12    13   ar
    14     5     6    1
    15     6     7    1
    16    17    18   am
    17    18    20    1
    18    20    21   ar
    19    21    22   ar
    20    22    23   ar
    21    23    24   ar
    22    24    25    1
    23    24    26   ar
    24     7     2    1
    25    26    20   ar
    26    13     9   ar
    27    13    14    1
    28    18    19    1
@<TRIPOS>MOLECULE
*****
 26 28 0 0 0
SMALL
GASTEIGER

@<TRIPOS>ATOM
      1 C          -6.7137  -15.2412   26.2436 C.3     1  UNL1        0.0817
      2 N          -7.8148  -15.9851   25.5476 N.3     1  UNL1       -0.2722
      3 C          -8.5065  -17.1216   26.2402 C.3     1  UNL1        0.0721
      4 C          -9.6075  -17.8654   25.5442 C.3     1  UNL1        0.0178
      5 C         -10.0168  -17.4727   24.1557 C.3     1  UNL1        0.0087
      6 C          -9.3251  -16.3361   23.4630 C.3     1  UNL1        0.0178
      7 C          -8.2241  -15.5924   24.1590 C.3     1  UNL1        0.0721
      8 C         -11.1180  -18.2166   23.4597 C.3     1  UNL1        0.0453
      9 C         -11.1731  -18.2452   21.9610 C.ar    1  UNL1        0.0541
     10 C         -12.0291  -17.3708   21.0934 C.ar    1  UNL1        0.1131
     11 N         -11.7669  -17.7384   19.6629 N.ar    1  UNL1       -0.2229
     12 C         -10.7489  -18.8400   19.6465 C.ar    1  UNL1        0.1748
     13 N         -10.3819  -19.1531   21.0668 N.ar    1  UNL1       -0.3382
     14 H          -9.7352  -19.8349   21.3605 H       1  UNL1        0.1672
     15 C          -5.2819  -15.6051   25.9838 C.3     1  UNL1        0.1026
     16 O          -5.0396  -15.0074   23.4671 O.2     1  UNL1       -0.2747
     17 C          -4.8410  -15.9726   24.5979 C.2     1  UNL1        0.2275
     18 N          -4.2015  -17.3053   24.3430 N.am    1  UNL1       -0.2838
     19 H          -4.0711  -17.9388   25.0852 H       1  UNL1        0.1549
     20 C          -3.7607  -17.6727   22.9571 C.ar    1  UNL1        0.0526
     21 C          -4.5068  -18.7208   22.1859 C.ar    1  UNL1        0.0148
     22 C          -4.0659  -19.0883   20.8000 C.ar    1  UNL1        0.0036
     23 C          -2.8789  -18.4076   20.1854 C.ar    1  UNL1        0.0297
     24 C          -2.1328  -17.3595   20.9565 C.ar    1  UNL1        0.1414
     25 F          -0.9459  -16.6788   20.3419 F       1  UNL1       -0.2041
     26 C          -2.5737  -16.9920   22.3425 C.ar    1  UNL1        0.0443
@<TRIPOS>BOND
     1    16    17    2
     2    17    15    1
     3    15     1    1
     4     1     2    1
     5     2     3    1
     6     3     4    1
     7     4     5    1
     8     5     8    1
     9     8     9    1
    10     9    10   ar
    11    10    11   ar
    12    11    12   ar
    13    12    13   ar
    14     5     6    1
    15     6     7    1
    16    17    18   am
    17    18    20    1
    18    20    21   ar
    19    21    22   ar
    20    22    23   ar
    21    23    24   ar
    22    24    25    1
    23    24    26   ar
    24     7     2    1
    25    26    20   ar
    26    13     9   ar
    27    13    14    1
    28    18    19    1
@<TRIPOS>MOLECULE
*****
 26 28 0 0 0
SMALL
GASTEIGER

@<TRIPOS>ATOM
      1 C          -6.6336  -15.0835   26.3331 C.3     1  UNL1        0.0817
      2 N          -7.6474  -15.9729   25.6762 N.3     1  UNL1       -0.2722
      3 C          -7.9480  -15.8159   24.2151 C.3     1  UNL1        0.0721
      4 C          -8.9617  -16.7053   23.5582 C.3     1  UNL1        0.0178
      5 C          -9.6747  -17.7516   24.3625 C.3     1  UNL1        0.0087
      6 C          -9.3741  -17.9085   25.8237 C.3     1  UNL1        0.0178
      7 C          -8.3604  -17.0192   26.4805 C.3     1  UNL1        0.0721
      8 C         -10.6885  -18.6409   23.7056 C.3     1  UNL1        0.0453
      9 C         -12.1461  -18.4751   24.0180 C.ar    1  UNL1        0.0541
     10 C         -13.1853  -17.9044   23.0992 C.ar    1  UNL1        0.1131
     11 N         -14.5020  -17.9275   23.8173 N.ar    1  UNL1       -0.2229
     12 C         -14.2766  -18.5125   25.1801 C.ar    1  UNL1        0.1748
     13 N         -12.8206  -18.8509   25.3041 N.ar    1  UNL1       -0.3382
     14 H         -12.3842  -19.2497   26.0913 H       1  UNL1        0.1672
     15 C          -5.3116  -14.8353   25.6695 C.3     1  UNL1        0.1026
     16 O          -4.9177  -14.8270   23.1014 O.2     1  UNL1       -0.2747
     17 C          -4.9574  -15.5642   24.4072 C.2     1  UNL1        0.2275
     18 N          -4.6430  -17.0302   24.4506 N.am    1  UNL1       -0.2838
     19 H          -4.6690  -17.5140   25.3076 H       1  UNL1        0.1549
     20 C          -4.2888  -17.7590   23.1884 C.ar    1  UNL1        0.0526
     21 C          -5.3390  -18.5359   22.4510 C.ar    1  UNL1        0.0148
     22 C          -4.9849  -19.2647   21.1887 C.ar    1  UNL1        0.0036
     23 C          -3.5806  -19.2167   20.6637 C.ar    1  UNL1        0.0297
     24 C          -2.5304  -18.4398   21.4010 C.ar    1  UNL1        0.1414
     25 F          -1.1261  -18.3917   20.8760 F       1  UNL1       -0.2041
     26 C          -2.8845  -17.7109   22.6633 C.ar    1  UNL1        0.0443
@<TRIPOS>BOND
     1    16    17    2
     2    17    15    1
     3    15     1    1
     4     1     2    1
     5     2     3    1
     6     3     4    1
     7     4     5    1
     8     5     8    1
     9     8     9    1
    10     9    10   ar
    11    10    11   ar
    12    11    12   ar
    13    12    13   ar
    14     5     6    1
    15     6     7    1
    16    17    18   am
    17    18    20    1
    18    20    21   ar
    19    21    22   ar
    20    22    23   ar
    21    23    24   ar
    22    24    25    1
    23    24    26   ar
    24     7     2    1
    25    26    20   ar
    26    13     9   ar
    27    13    14    1
    28    18    19    1
@<TRIPOS>MOLECULE
*****
 26 28 0 0 0
SMALL
GASTEIGER

@<TRIPOS>ATOM
      1 C           8.1879   -9.1204   27.2330 C.3     1  UNL1        0.0817
      2 N           8.2868   -7.8093   27.9552 N.3     1  UNL1       -0.2722
      3 C           7.4271   -6.6545   27.5341 C.3     1  UNL1        0.0721
      4 C           7.5261   -5.3435   28.2562 C.3     1  UNL1        0.0178
      5 C           8.4846   -5.1874   29.3993 C.3     1  UNL1        0.0087
      6 C           9.3442   -6.3422   29.8204 C.3     1  UNL1        0.0178
      7 C           9.2453   -7.6532   29.0983 C.3     1  UNL1        0.0721
      8 C           8.5835   -3.8763   30.1215 C.3     1  UNL1        0.0453
      9 C           7.4082   -3.3551   30.8942 C.ar    1  UNL1        0.0541
     10 C           6.4276   -2.3244   30.4189 C.ar    1  UNL1        0.1131
     11 N           5.4205   -2.1054   31.5088 N.ar    1  UNL1       -0.2229
     12 C           5.7788   -3.0009   32.6577 C.ar    1  UNL1        0.1748
     13 N           7.0072   -3.7732   32.2778 N.ar    1  UNL1       -0.3382
     14 H           7.4692   -4.4378   32.8382 H       1  UNL1        0.1672
     15 C           8.4025  -10.4048   27.9776 C.3     1  UNL1        0.1026
     16 O           7.6433  -12.8647   28.3275 O.2     1  UNL1       -0.2747
     17 C           7.3110  -11.4325   28.0304 C.2     1  UNL1        0.2275
     18 N           5.8875  -11.0279   27.7860 N.am    1  UNL1       -0.2838
     19 H           5.6694  -10.0879   27.5909 H       1  UNL1        0.1549
     20 C           4.7962  -12.0556   27.8388 C.ar    1  UNL1        0.0526
     21 C           4.6807  -13.0835   26.7525 C.ar    1  UNL1        0.0148
     22 C           3.5894  -14.1112   26.8053 C.ar    1  UNL1        0.0036
     23 C           2.6135  -14.1110   27.9444 C.ar    1  UNL1        0.0297
     24 C           2.7289  -13.0831   29.0307 C.ar    1  UNL1        0.1414
     25 F           1.7529  -13.0829   30.1697 F       1  UNL1       -0.2041
     26 C           3.8202  -12.0554   28.9779 C.ar    1  UNL1        0.0443
@<TRIPOS>BOND
     1    16    17    2
     2    17    15    1
     3    15     1    1
     4     1     2    1
     5     2     3    1
     6     3     4    1
     7     4     5    1
     8     5     8    1
     9     8     9    1
    10     9    10   ar
    11    10    11   ar
    12    11    12   ar
    13    12    13   ar
    14     5     6    1
    15     6     7    1
    16    17    18   am
    17    18    20    1
    18    20    21   ar
    19    21    22   ar
    20    22    23   ar
    21    23    24   ar
    22    24    25    1
    23    24    26   ar
    24     7     2    1
    25    26    20   ar
    26    13     9   ar
    27    13    14    1
    28    18    19    1
@<TRIPOS>MOLECULE
*****
 26 28 0 0 0
SMALL
GASTEIGER

@<TRIPOS>ATOM
      1 C          -7.7334  -20.8530   19.6775 C.3     1  UNL1        0.0817
      2 N          -6.5255  -20.1864   20.2664 N.3     1  UNL1       -0.2722
      3 C          -5.5603  -19.4612   19.3763 C.3     1  UNL1        0.0721
      4 C          -4.3525  -18.7947   19.9652 C.3     1  UNL1        0.0178
      5 C          -4.1098  -18.8535   21.4443 C.3     1  UNL1        0.0087
      6 C          -5.0750  -19.5787   22.3344 C.3     1  UNL1        0.0178
      7 C          -6.2828  -20.2452   21.7455 C.3     1  UNL1        0.0721
      8 C          -2.9019  -18.1869   22.0332 C.3     1  UNL1        0.0453
      9 C          -1.6748  -17.9825   21.1952 C.ar    1  UNL1        0.0541
     10 C          -0.9685  -19.0359   20.3943 C.ar    1  UNL1        0.1131
     11 N           0.2043  -18.3931   19.7151 N.ar    1  UNL1       -0.2229
     12 C           0.2229  -16.9424   20.0962 C.ar    1  UNL1        0.1748
     13 N          -0.9385  -16.6887   21.0110 N.ar    1  UNL1       -0.3382
     14 H          -1.1758  -15.8246   21.4189 H       1  UNL1        0.1672
     15 C          -8.7526  -20.0392   18.9365 C.3     1  UNL1        0.1026
     16 O         -11.1466  -19.0346   19.0339 O.2     1  UNL1       -0.2747
     17 C          -9.8284  -19.3164   19.6918 C.2     1  UNL1        0.2275
     18 N          -9.5859  -18.8755   21.1048 N.am    1  UNL1       -0.2838
     19 H          -8.7207  -19.0605   21.5366 H       1  UNL1        0.1549
     20 C         -10.6617  -18.1528   21.8600 C.ar    1  UNL1        0.0526
     21 C         -10.9976  -16.7328   21.5123 C.ar    1  UNL1        0.0148
     22 C         -12.0734  -16.0101   22.2674 C.ar    1  UNL1        0.0036
     23 C         -12.8133  -16.7073   23.3703 C.ar    1  UNL1        0.0297
     24 C         -12.4775  -18.1272   23.7180 C.ar    1  UNL1        0.1414
     25 F         -13.2175  -18.8244   24.8209 F       1  UNL1       -0.2041
     26 C         -11.4017  -18.8500   22.9629 C.ar    1  UNL1        0.0443
@<TRIPOS>BOND
     1    16    17    2
     2    17    15    1
     3    15     1    1
     4     1     2    1
     5     2     3    1
     6     3     4    1
     7     4     5    1
     8     5     8    1
     9     8     9    1
    10     9    10   ar
    11    10    11   ar
    12    11    12   ar
    13    12    13   ar
    14     5     6    1
    15     6     7    1
    16    17    18   am
    17    18    20    1
    18    20    21   ar
    19    21    22   ar
    20    22    23   ar
    21    23    24   ar
    22    24    25    1
    23    24    26   ar
    24     7     2    1
    25    26    20   ar
    26    13     9   ar
    27    13    14    1
    28    18    19    1
@<TRIPOS>MOLECULE
*****
 26 28 0 0 0
SMALL
GASTEIGER

@<TRIPOS>ATOM
      1 C          -0.1477    1.9282   20.8625 C.3     1  UNL1        0.0817
      2 N           0.9122    1.0971   20.2021 N.3     1  UNL1       -0.2722
      3 C           1.5453   -0.0408   20.9466 C.3     1  UNL1        0.0721
      4 C           2.6051   -0.8718   20.2863 C.3     1  UNL1        0.0178
      5 C           3.0319   -0.5648   18.8814 C.3     1  UNL1        0.0087
      6 C           2.3989    0.5731   18.1369 C.3     1  UNL1        0.0178
      7 C           1.3390    1.4041   18.7973 C.3     1  UNL1        0.0721
      8 C           4.0919   -1.3959   18.2211 C.3     1  UNL1        0.0453
      9 C           4.4031   -2.7673   18.7429 C.ar    1  UNL1        0.0541
     10 C           5.6003   -3.1480   19.5625 C.ar    1  UNL1        0.1131
     11 N           5.5090   -4.6147   19.8629 N.ar    1  UNL1       -0.2229
     12 C           4.2553   -5.1406   19.2290 C.ar    1  UNL1        0.1748
     13 N           3.5719   -3.9988   18.5368 N.ar    1  UNL1       -0.3382
     14 H           2.7262   -4.0488   18.0352 H       1  UNL1        0.1672
     15 C          -1.0116    2.8356   20.0377 C.3     1  UNL1        0.1026
     16 O          -2.1416    4.9102   21.1189 O.2     1  UNL1       -0.2747
     17 C          -2.2155    3.4869   20.6512 C.2     1  UNL1        0.2275
     18 N          -3.4933    2.7149   20.7969 N.am    1  UNL1       -0.2838
     19 H          -3.5418    1.7808   20.4899 H       1  UNL1        0.1549
     20 C          -4.6972    3.3663   21.4104 C.ar    1  UNL1        0.0526
     21 C          -5.7311    4.0083   20.5335 C.ar    1  UNL1        0.0148
     22 C          -6.9350    4.6597   21.1470 C.ar    1  UNL1        0.0036
     23 C          -7.1050    4.6690   22.6373 C.ar    1  UNL1        0.0297
     24 C          -6.0712    4.0270   23.5141 C.ar    1  UNL1        0.1414
     25 F          -6.2412    4.0363   25.0045 F       1  UNL1       -0.2041
     26 C          -4.8672    3.3756   22.9007 C.ar    1  UNL1        0.0443
@<TRIPOS>BOND
     1    16    17    2
     2    17    15    1
     3    15     1    1
     4     1     2    1
     5     2     3    1
     6     3     4    1
     7     4     5    1
     8     5     8    1
     9     8     9    1
    10     9    10   ar
    11    10    11   ar
    12    11    12   ar
    13    12    13   ar
    14     5     6    1
    15     6     7    1
    16    17    18   am
    17    18    20    1
    18    20    21   ar
    19    21    22   ar
    20    22    23   ar
    21    23    24   ar
    22    24    25    1
    23    24    26   ar
    24     7     2    1
    25    26    20   ar
    26    13     9   ar
    27    13    14    1
    28    18    19    1
@<TRIPOS>MOLECULE
*****
 26 28 0 0 0
SMALL
GASTEIGER

@<TRIPOS>ATOM
      1 C           0.5647    2.3301   21.3191 C.3     1  UNL1        0.0817
      2 N           0.0899    2.3269   22.7421 N.3     1  UNL1       -0.2722
      3 C          -0.9692    3.2939   23.1815 C.3     1  UNL1        0.0721
      4 C          -1.4439    3.2907   24.6044 C.3     1  UNL1        0.0178
      5 C          -0.8594    2.3205   25.5879 C.3     1  UNL1        0.0087
      6 C           0.1998    1.3536   25.1484 C.3     1  UNL1        0.0178
      7 C           0.6744    1.3568   23.7256 C.3     1  UNL1        0.0721
      8 C          -1.3341    2.3174   27.0108 C.3     1  UNL1        0.0453
      9 C          -0.5923    1.5265   28.0472 C.ar    1  UNL1        0.0541
     10 C          -0.9258    0.1361   28.5008 C.ar    1  UNL1        0.1131
     11 N           0.0736   -0.2626   29.5459 N.ar    1  UNL1       -0.2229
     12 C           1.0248    0.8813   29.7381 C.ar    1  UNL1        0.1748
     13 N           0.6132    1.9869   28.8119 N.ar    1  UNL1       -0.3382
     14 H           1.0564    2.8614   28.7217 H       1  UNL1        0.1672
     15 C           0.1244    1.2472   20.3792 C.3     1  UNL1        0.1026
     16 O           1.0857    0.3475   18.1394 O.2     1  UNL1       -0.2747
     17 C           1.1457    0.4386   19.6355 C.2     1  UNL1        0.2275
     18 N           2.2271   -0.2788   20.3877 N.am    1  UNL1       -0.2838
     19 H           2.2666   -0.2190   21.3696 H       1  UNL1        0.1549
     20 C           3.2484   -1.0874   19.6440 C.ar    1  UNL1        0.0526
     21 C           4.3976   -0.4028   18.9651 C.ar    1  UNL1        0.0148
     22 C           5.4188   -1.2113   18.2213 C.ar    1  UNL1        0.0036
     23 C           5.2910   -2.7044   18.1564 C.ar    1  UNL1        0.0297
     24 C           4.1419   -3.3890   18.8352 C.ar    1  UNL1        0.1414
     25 F           4.0140   -4.8822   18.7702 F       1  UNL1       -0.2041
     26 C           3.1205   -2.5805   19.5790 C.ar    1  UNL1        0.0443
@<TRIPOS>BOND
     1    16    17    2
     2    17    15    1
     3    15     1    1
     4     1     2    1
     5     2     3    1
     6     3     4    1
     7     4     5    1
     8     5     8    1
     9     8     9    1
    10     9    10   ar
    11    10    11   ar
    12    11    12   ar
    13    12    13   ar
    14     5     6    1
    15     6     7    1
    16    17    18   am
    17    18    20    1
    18    20    21   ar
    19    21    22   ar
    20    22    23   ar
    21    23    24   ar
    22    24    25    1
    23    24    26   ar
    24     7     2    1
    25    26    20   ar
    26    13     9   ar
    27    13    14    1
    28    18    19    1
@<TRIPOS>MOLECULE
*****
 26 28 0 0 0
SMALL
GASTEIGER

@<TRIPOS>ATOM
      1 C           6.8994   -4.7857   25.9008 C.3     1  UNL1        0.0817
      2 N           6.8834   -4.6455   27.3942 N.3     1  UNL1       -0.2722
      3 C           6.6886   -3.2958   28.0188 C.3     1  UNL1        0.0721
      4 C           6.6727   -3.1557   29.5121 C.3     1  UNL1        0.0178
      5 C           6.8516   -4.3654   30.3809 C.3     1  UNL1        0.0087
      6 C           7.0464   -5.7151   29.7563 C.3     1  UNL1        0.0178
      7 C           7.0623   -5.8552   28.2630 C.3     1  UNL1        0.0721
      8 C           6.8356   -4.2252   31.8743 C.3     1  UNL1        0.0453
      9 C           6.1156   -3.0742   32.5119 C.ar    1  UNL1        0.0541
     10 C           6.7046   -1.7309   32.8262 C.ar    1  UNL1        0.1131
     11 N           5.6332   -0.8908   33.4558 N.ar    1  UNL1       -0.2229
     12 C           4.3820   -1.7149   33.5306 C.ar    1  UNL1        0.1748
     13 N           4.6802   -3.0643   32.9473 N.ar    1  UNL1       -0.3382
     14 H           4.0453   -3.8121   32.8646 H       1  UNL1        0.1672
     15 C           6.5664   -3.6081   25.0334 C.3     1  UNL1        0.1026
     16 O           6.9767   -4.9984   22.8773 O.2     1  UNL1       -0.2747
     17 C           6.4012   -3.7895   23.5536 C.2     1  UNL1        0.2275
     18 N           5.6605   -2.7620   22.7501 N.am    1  UNL1       -0.2838
     19 H           5.2828   -1.9686   23.1940 H       1  UNL1        0.1549
     20 C           5.4954   -2.9434   21.2703 C.ar    1  UNL1        0.0526
     21 C           6.5157   -2.3785   20.3269 C.ar    1  UNL1        0.0148
     22 C           6.3505   -2.5599   18.8472 C.ar    1  UNL1        0.0036
     23 C           5.1651   -3.3062   18.3107 C.ar    1  UNL1        0.0297
     24 C           4.1449   -3.8711   19.2540 C.ar    1  UNL1        0.1414
     25 F           2.9595   -4.6175   18.7175 F       1  UNL1       -0.2041
     26 C           4.3100   -3.6897   20.7338 C.ar    1  UNL1        0.0443
@<TRIPOS>BOND
     1    16    17    2
     2    17    15    1
     3    15     1    1
     4     1     2    1
     5     2     3    1
     6     3     4    1
     7     4     5    1
     8     5     8    1
     9     8     9    1
    10     9    10   ar
    11    10    11   ar
    12    11    12   ar
    13    12    13   ar
    14     5     6    1
    15     6     7    1
    16    17    18   am
    17    18    20    1
    18    20    21   ar
    19    21    22   ar
    20    22    23   ar
    21    23    24   ar
    22    24    25    1
    23    24    26   ar
    24     7     2    1
    25    26    20   ar
    26    13     9   ar
    27    13    14    1
    28    18    19    1
