@<TRIPOS>MOLECULE
*****
 16 17 0 0 0
SMALL
GASTEIGER

@<TRIPOS>ATOM
      1 O         -12.5342  -18.5682   24.6568 O.2     1  UNL1       -0.2865
      2 C         -11.2724  -18.2651   23.9045 C.2     1  UNL1        0.1971
      3 C         -11.2366  -18.4077   22.4117 C.ar    1  UNL1        0.0581
      4 C         -10.6258  -19.6281   21.7893 C.ar    1  UNL1        0.0063
      5 C         -10.5899  -19.7707   20.2966 C.ar    1  UNL1        0.0208
      6 C         -11.1649  -18.6928   19.4261 C.ar    1  UNL1        0.0989
      7 N         -11.7758  -17.4724   20.0485 N.ar    1  UNL1       -0.2422
      8 C         -11.8116  -17.3298   21.5414 C.ar    1  UNL1        0.1020
      9 C         -10.0464  -17.8192   24.6450 C.2     1  UNL1        0.0421
     10 C          -9.3936  -16.5142   24.2978 C.2     1  UNL1        0.0033
     11 C          -8.1677  -16.0683   25.0383 C.ar    1  UNL1        0.0001
     12 C          -6.8972  -15.7945   24.2893 C.ar    1  UNL1        0.0000
     13 C          -5.6713  -15.3487   25.0299 C.ar    1  UNL1        0.0000
     14 C          -5.7159  -15.1767   26.5193 C.ar    1  UNL1        0.0000
     15 C          -6.9863  -15.4506   27.2682 C.ar    1  UNL1        0.0000
     16 C          -8.2122  -15.8964   26.5277 C.ar    1  UNL1        0.0000
@<TRIPOS>BOND
     1     1     2    2
     2     2     9    1
     3     9    10    2
     4    10    11    1
     5    11    12   ar
     6    12    13   ar
     7    13    14   ar
     8    14    15   ar
     9    15    16   ar
    10     2     3    1
    11     3     4   ar
    12     4     5   ar
    13     5     6   ar
    14     6     7   ar
    15     7     8   ar
    16    16    11   ar
    17     8     3   ar
@<TRIPOS>MOLECULE
*****
 16 17 0 0 0
SMALL
GASTEIGER

@<TRIPOS>ATOM
      1 O          -5.5581  -21.3710   19.9398 O.2     1  UNL1       -0.2865
      2 C          -5.1501  -20.2340   20.8291 C.2     1  UNL1        0.1971
      3 C          -3.8317  -19.5511   20.6161 C.ar    1  UNL1        0.0581
      4 C          -3.6091  -18.7159   19.3901 C.ar    1  UNL1        0.0063
      5 C          -2.2907  -18.0330   19.1771 C.ar    1  UNL1        0.0208
      6 C          -1.1948  -18.1852   20.1901 C.ar    1  UNL1        0.0989
      7 N          -1.4174  -19.0204   21.4160 N.ar    1  UNL1       -0.2422
      8 C          -2.7359  -19.7033   21.6290 C.ar    1  UNL1        0.1020
      9 C          -6.0605  -19.7800   21.9314 C.2     1  UNL1        0.0421
     10 C          -7.5471  -19.7995   21.7322 C.2     1  UNL1        0.0033
     11 C          -8.4575  -19.3454   22.8346 C.ar    1  UNL1        0.0001
     12 C          -8.6281  -17.8811   23.1112 C.ar    1  UNL1        0.0000
     13 C          -9.5385  -17.4271   24.2134 C.ar    1  UNL1        0.0000
     14 C         -10.2783  -18.4375   25.0391 C.ar    1  UNL1        0.0000
     15 C         -10.1077  -19.9019   24.7625 C.ar    1  UNL1        0.0000
     16 C          -9.1973  -20.3558   23.6603 C.ar    1  UNL1        0.0000
@<TRIPOS>BOND
     1     1     2    2
     2     2     9    1
     3     9    10    2
     4    10    11    1
     5    11    12   ar
     6    12    13   ar
     7    13    14   ar
     8    14    15   ar
     9    15    16   ar
    10     2     3    1
    11     3     4   ar
    12     4     5   ar
    13     5     6   ar
    14     6     7   ar
    15     7     8   ar
    16    16    11   ar
    17     8     3   ar
@<TRIPOS>MOLECULE
*****
 16 17 0 0 0
SMALL
GASTEIGER

@<TRIPOS>ATOM
      1 O          -9.4831  -20.1802   18.8614 O.2     1  UNL1       -0.2865
      2 C          -9.2842  -19.3563   20.0991 C.2     1  UNL1        0.1971
      3 C         -10.4697  -18.7812   20.8158 C.ar    1  UNL1        0.0581
      4 C         -10.7507  -19.1742   22.2359 C.ar    1  UNL1        0.0063
      5 C         -11.9362  -18.5990   22.9526 C.ar    1  UNL1        0.0208
      6 C         -12.8408  -17.6309   22.2493 C.ar    1  UNL1        0.0989
      7 N         -12.5597  -17.2380   20.8292 N.ar    1  UNL1       -0.2422
      8 C         -11.3741  -17.8132   20.1124 C.ar    1  UNL1        0.1020
      9 C          -7.8996  -19.1076   20.6200 C.2     1  UNL1        0.0421
     10 C          -6.7973  -20.0775   20.3130 C.2     1  UNL1        0.0033
     11 C          -5.4128  -19.8288   20.8339 C.ar    1  UNL1        0.0001
     12 C          -4.2224  -20.3149   20.0616 C.ar    1  UNL1        0.0000
     13 C          -2.8379  -20.0662   20.5825 C.ar    1  UNL1        0.0000
     14 C          -2.6439  -19.3314   21.8757 C.ar    1  UNL1        0.0000
     15 C          -3.8343  -18.8452   22.6480 C.ar    1  UNL1        0.0000
     16 C          -5.2188  -19.0940   22.1271 C.ar    1  UNL1        0.0000
@<TRIPOS>BOND
     1     1     2    2
     2     2     9    1
     3     9    10    2
     4    10    11    1
     5    11    12   ar
     6    12    13   ar
     7    13    14   ar
     8    14    15   ar
     9    15    16   ar
    10     2     3    1
    11     3     4   ar
    12     4     5   ar
    13     5     6   ar
    14     6     7   ar
    15     7     8   ar
    16    16    11   ar
    17     8     3   ar
@<TRIPOS>MOLECULE
*****
 16 17 0 0 0
SMALL
GASTEIGER

@<TRIPOS>ATOM
      1 O          -5.7920  -21.4273   20.1300 O.2     1  UNL1       -0.2865
      2 C          -5.7795  -20.3007   21.1202 C.2     1  UNL1        0.1971
      3 C          -4.6108  -19.3619   21.1734 C.ar    1  UNL1        0.0581
      4 C          -4.0148  -18.9804   22.4960 C.ar    1  UNL1        0.0063
      5 C          -2.8462  -18.0416   22.5491 C.ar    1  UNL1        0.0208
      6 C          -2.2735  -17.4842   21.2797 C.ar    1  UNL1        0.0989
      7 N          -2.8695  -17.8657   19.9571 N.ar    1  UNL1       -0.2422
      8 C          -4.0382  -18.8046   19.9040 C.ar    1  UNL1        0.1020
      9 C          -6.9357  -20.1129   22.0572 C.2     1  UNL1        0.0421
     10 C          -8.1308  -19.3169   21.6236 C.2     1  UNL1        0.0033
     11 C          -9.2870  -19.1291   22.5607 C.ar    1  UNL1        0.0001
     12 C          -9.4023  -19.9811   23.7898 C.ar    1  UNL1        0.0000
     13 C         -10.5585  -19.7933   24.7268 C.ar    1  UNL1        0.0000
     14 C         -11.5993  -18.7534   24.4346 C.ar    1  UNL1        0.0000
     15 C         -11.4840  -17.9014   23.2055 C.ar    1  UNL1        0.0000
     16 C         -10.3279  -18.0892   22.2686 C.ar    1  UNL1        0.0000
@<TRIPOS>BOND
     1     1     2    2
     2     2     9    1
     3     9    10    2
     4    10    11    1
     5    11    12   ar
     6    12    13   ar
     7    13    14   ar
     8    14    15   ar
     9    15    16   ar
    10     2     3    1
    11     3     4   ar
    12     4     5   ar
    13     5     6   ar
    14     6     7   ar
    15     7     8   ar
    16    16    11   ar
    17     8     3   ar
@<TRIPOS>MOLECULE
*****
 16 17 0 0 0
SMALL
GASTEIGER

@<TRIPOS>ATOM
      1 O          -4.0178  -18.5484   23.7963 O.2     1  UNL1       -0.2865
      2 C          -4.3520  -18.7152   22.3435 C.2     1  UNL1        0.1971
      3 C          -3.3353  -18.3713   21.2957 C.ar    1  UNL1        0.0581
      4 C          -3.4138  -19.0044   19.9382 C.ar    1  UNL1        0.0063
      5 C          -2.3970  -18.6606   18.8904 C.ar    1  UNL1        0.0208
      6 C          -1.3017  -17.6836   19.2001 C.ar    1  UNL1        0.0989
      7 N          -1.2232  -17.0505   20.5577 N.ar    1  UNL1       -0.2422
      8 C          -2.2400  -17.3944   21.6055 C.ar    1  UNL1        0.1020
      9 C          -5.7031  -19.2259   21.9386 C.2     1  UNL1        0.0421
     10 C          -6.9371  -18.4578   22.3090 C.2     1  UNL1        0.0033
     11 C          -8.2882  -18.9685   21.9041 C.ar    1  UNL1        0.0001
     12 C          -8.6501  -19.0621   20.4514 C.ar    1  UNL1        0.0000
     13 C         -10.0011  -19.5727   20.0466 C.ar    1  UNL1        0.0000
     14 C         -10.9902  -19.9898   21.0944 C.ar    1  UNL1        0.0000
     15 C         -10.6282  -19.8962   22.5470 C.ar    1  UNL1        0.0000
     16 C          -9.2772  -19.3855   22.9518 C.ar    1  UNL1        0.0000
@<TRIPOS>BOND
     1     1     2    2
     2     2     9    1
     3     9    10    2
     4    10    11    1
     5    11    12   ar
     6    12    13   ar
     7    13    14   ar
     8    14    15   ar
     9    15    16   ar
    10     2     3    1
    11     3     4   ar
    12     4     5   ar
    13     5     6   ar
    14     6     7   ar
    15     7     8   ar
    16    16    11   ar
    17     8     3   ar
@<TRIPOS>MOLECULE
*****
 16 17 0 0 0
SMALL
GASTEIGER

@<TRIPOS>ATOM
      1 O          -3.6223  -18.1051   24.5526 O.2     1  UNL1       -0.2865
      2 C          -3.9356  -18.0888   23.0858 C.2     1  UNL1        0.1971
      3 C          -2.8232  -18.0189   22.0820 C.ar    1  UNL1        0.0581
      4 C          -2.2413  -16.6905   21.6987 C.ar    1  UNL1        0.0063
      5 C          -1.1289  -16.6206   20.6949 C.ar    1  UNL1        0.0208
      6 C          -0.5985  -17.8790   20.0743 C.ar    1  UNL1        0.0989
      7 N          -1.1805  -19.2073   20.4575 N.ar    1  UNL1       -0.2422
      8 C          -2.2929  -19.2772   21.4614 C.ar    1  UNL1        0.1020
      9 C          -5.3614  -18.1424   22.6228 C.2     1  UNL1        0.0421
     10 C          -5.9200  -19.4159   22.0605 C.2     1  UNL1        0.0033
     11 C          -7.3458  -19.4695   21.5976 C.ar    1  UNL1        0.0001
     12 C          -8.4577  -19.5497   22.6011 C.ar    1  UNL1        0.0000
     13 C          -9.8834  -19.6032   22.1381 C.ar    1  UNL1        0.0000
     14 C         -10.1973  -19.5766   20.6716 C.ar    1  UNL1        0.0000
     15 C          -9.0854  -19.4964   19.6680 C.ar    1  UNL1        0.0000
     16 C          -7.6596  -19.4429   20.1310 C.ar    1  UNL1        0.0000
@<TRIPOS>BOND
     1     1     2    2
     2     2     9    1
     3     9    10    2
     4    10    11    1
     5    11    12   ar
     6    12    13   ar
     7    13    14   ar
     8    14    15   ar
     9    15    16   ar
    10     2     3    1
    11     3     4   ar
    12     4     5   ar
    13     5     6   ar
    14     6     7   ar
    15     7     8   ar
    16    16    11   ar
    17     8     3   ar
@<TRIPOS>MOLECULE
*****
 16 17 0 0 0
SMALL
GASTEIGER

@<TRIPOS>ATOM
      1 O          -5.8059  -16.5390   23.4854 O.2     1  UNL1       -0.2865
      2 C          -6.3707  -17.6942   22.7130 C.2     1  UNL1        0.1971
      3 C          -5.4527  -18.6265   21.9795 C.ar    1  UNL1        0.0581
      4 C          -4.0046  -18.7082   22.3620 C.ar    1  UNL1        0.0063
      5 C          -3.0866  -19.6405   21.6285 C.ar    1  UNL1        0.0208
      6 C          -3.6167  -20.4911   20.5124 C.ar    1  UNL1        0.0989
      7 N          -5.0648  -20.4093   20.1299 N.ar    1  UNL1       -0.2422
      8 C          -5.9828  -19.4770   20.8635 C.ar    1  UNL1        0.1020
      9 C          -7.8536  -17.9171   22.6742 C.2     1  UNL1        0.0421
     10 C          -8.7582  -17.0979   23.5462 C.2     1  UNL1        0.0033
     11 C         -10.2411  -17.3208   23.5074 C.ar    1  UNL1        0.0001
     12 C         -10.8581  -18.4079   24.3364 C.ar    1  UNL1        0.0000
     13 C         -12.3409  -18.6308   24.2976 C.ar    1  UNL1        0.0000
     14 C         -13.2068  -17.7664   23.4297 C.ar    1  UNL1        0.0000
     15 C         -12.5898  -16.6793   22.6006 C.ar    1  UNL1        0.0000
     16 C         -11.1070  -16.4564   22.6395 C.ar    1  UNL1        0.0000
@<TRIPOS>BOND
     1     1     2    2
     2     2     9    1
     3     9    10    2
     4    10    11    1
     5    11    12   ar
     6    12    13   ar
     7    13    14   ar
     8    14    15   ar
     9    15    16   ar
    10     2     3    1
    11     3     4   ar
    12     4     5   ar
    13     5     6   ar
    14     6     7   ar
    15     7     8   ar
    16    16    11   ar
    17     8     3   ar
@<TRIPOS>MOLECULE
*****
 16 17 0 0 0
SMALL
GASTEIGER

@<TRIPOS>ATOM
      1 O         -11.8272  -16.5986   21.9577 O.2     1  UNL1       -0.2865
      2 C         -10.4825  -17.2145   22.2081 C.2     1  UNL1        0.1971
      3 C          -9.8548  -18.0937   21.1674 C.ar    1  UNL1        0.0581
      4 C         -10.6843  -18.6286   20.0379 C.ar    1  UNL1        0.0063
      5 C         -10.0566  -19.5078   18.9973 C.ar    1  UNL1        0.0208
      6 C          -8.5993  -19.8521   19.0861 C.ar    1  UNL1        0.0989
      7 N          -7.7698  -19.3171   20.2156 N.ar    1  UNL1       -0.2422
      8 C          -8.3976  -18.4379   21.2563 C.ar    1  UNL1        0.1020
      9 C          -9.7656  -16.9512   23.4991 C.2     1  UNL1        0.0421
     10 C          -8.5674  -16.0492   23.5212 C.2     1  UNL1        0.0033
     11 C          -7.8504  -15.7859   24.8122 C.ar    1  UNL1        0.0001
     12 C          -8.5780  -15.9268   26.1164 C.ar    1  UNL1        0.0000
     13 C          -7.8611  -15.6634   27.4073 C.ar    1  UNL1        0.0000
     14 C          -6.4166  -15.2592   27.3942 C.ar    1  UNL1        0.0000
     15 C          -5.6891  -15.1183   26.0900 C.ar    1  UNL1        0.0000
     16 C          -6.4060  -15.3816   24.7991 C.ar    1  UNL1        0.0000
@<TRIPOS>BOND
     1     1     2    2
     2     2     9    1
     3     9    10    2
     4    10    11    1
     5    11    12   ar
     6    12    13   ar
     7    13    14   ar
     8    14    15   ar
     9    15    16   ar
    10     2     3    1
    11     3     4   ar
    12     4     5   ar
    13     5     6   ar
    14     6     7   ar
    15     7     8   ar
    16    16    11   ar
    17     8     3   ar
@<TRIPOS>MOLECULE
*****
 16 17 0 0 0
SMALL
GASTEIGER

@<TRIPOS>ATOM
      1 O         -16.8003   -5.7511   19.7446 O.2     1  UNL1       -0.2865
      2 C         -15.8362   -6.7038   19.1022 C.2     1  UNL1        0.1971
      3 C         -16.2040   -8.1492   18.9425 C.ar    1  UNL1        0.0581
      4 C         -17.5877   -8.6136   19.2885 C.ar    1  UNL1        0.0063
      5 C         -17.9556  -10.0590   19.1288 C.ar    1  UNL1        0.0208
      6 C         -16.9397  -11.0400   18.6232 C.ar    1  UNL1        0.0989
      7 N         -15.5560  -10.5756   18.2772 N.ar    1  UNL1       -0.2422
      8 C         -15.1882   -9.1302   18.4369 C.ar    1  UNL1        0.1020
      9 C         -14.5041   -6.2112   18.6194 C.2     1  UNL1        0.0421
     10 C         -13.3961   -5.9630   19.5995 C.2     1  UNL1        0.0033
     11 C         -12.0640   -5.4703   19.1168 C.ar    1  UNL1        0.0001
     12 C         -11.0046   -6.4508   18.7089 C.ar    1  UNL1        0.0000
     13 C          -9.6727   -5.9581   18.2262 C.ar    1  UNL1        0.0000
     14 C          -9.4001   -4.4849   18.1513 C.ar    1  UNL1        0.0000
     15 C         -10.4595   -3.5045   18.5592 C.ar    1  UNL1        0.0000
     16 C         -11.7915   -3.9972   19.0419 C.ar    1  UNL1        0.0000
@<TRIPOS>BOND
     1     1     2    2
     2     2     9    1
     3     9    10    2
     4    10    11    1
     5    11    12   ar
     6    12    13   ar
     7    13    14   ar
     8    14    15   ar
     9    15    16   ar
    10     2     3    1
    11     3     4   ar
    12     4     5   ar
    13     5     6   ar
    14     6     7   ar
    15     7     8   ar
    16    16    11   ar
    17     8     3   ar
