@<TRIPOS>MOLECULE
*****
 23 25 0 0 0
SMALL
GASTEIGER

@<TRIPOS>ATOM
      1 C          -8.9467  -16.7078   22.0433 C.2     1  UNL1        0.2487
      2 O          -8.5747  -15.3344   21.5685 O.2     1  UNL1       -0.2699
      3 N          -9.2531  -16.9430   23.4927 N.am    1  UNL1       -0.2763
      4 C         -10.3044  -18.1688   20.3782 C.ar    1  UNL1       -0.0181
      5 C         -10.3700  -19.3071   19.4036 C.ar    1  UNL1       -0.0041
      6 C          -9.1436  -20.1227   19.1193 C.ar    1  UNL1       -0.0003
      7 C          -7.8516  -19.8000   19.8096 C.ar    1  UNL1        0.0001
      8 C          -7.7860  -18.6617   20.7843 C.ar    1  UNL1        0.0042
      9 C          -9.0124  -17.8462   21.0686 C.ar    1  UNL1        0.0496
     10 C         -11.7643  -16.0681   19.9253 C.3     1  UNL1        0.0047
     11 C         -11.5308  -17.3532   20.6626 C.3     1  UNL1        0.0225
     12 C         -12.5236  -17.8229   21.6842 C.3     1  UNL1        0.0047
     13 C          -9.6251  -18.3163   23.9675 C.3     1  UNL1        0.0927
     14 C          -8.8954  -19.5874   23.6481 C.3     1  UNL1        0.0383
     15 C          -9.6114  -20.7164   24.3282 C.3     1  UNL1        0.0704
     16 N         -10.7836  -20.1432   25.0680 N.3     1  UNL1       -0.2960
     17 C         -10.7921  -18.6599   24.8450 C.3     1  UNL1        0.0887
     18 H         -10.6955  -20.3430   26.0643 H       1  UNL1        0.1233
     19 C          -9.1874  -15.8046   24.4674 C.3     1  UNL1        0.0936
     20 C          -8.2248  -15.8559   25.6167 C.3     1  UNL1        0.0199
     21 C          -6.7797  -15.5013   25.8064 C.3     1  UNL1        0.0017
     22 C          -6.8635  -15.9284   27.2419 C.3     1  UNL1        0.0001
     23 C          -8.3086  -16.2829   27.0521 C.3     1  UNL1        0.0017
@<TRIPOS>BOND
     1    10    11    1
     2    11    12    1
     3    11     4    1
     4     4     5   ar
     5     5     6   ar
     6     6     7   ar
     7     7     8   ar
     8     8     9   ar
     9     9     1    1
    10     1     2    2
    11     1     3   am
    12     3    19    1
    13    19    20    1
    14    20    21    1
    15    21    22    1
    16    22    23    1
    17    13     3    1
    18    13    14    1
    19    14    15    1
    20    15    16    1
    21    16    17    1
    22     9     4   ar
    23    23    20    1
    24    17    13    1
    25    16    18    1
@<TRIPOS>MOLECULE
*****
 23 25 0 0 0
SMALL
GASTEIGER

@<TRIPOS>ATOM
      1 C          -8.7949  -16.4717   22.0889 C.2     1  UNL1        0.2487
      2 O          -7.8904  -15.3905   21.5763 O.2     1  UNL1       -0.2699
      3 N          -9.1954  -16.4919   23.5343 N.am    1  UNL1       -0.2763
      4 C          -8.3927  -18.6499   20.7311 C.ar    1  UNL1       -0.0181
      5 C          -8.8968  -19.7109   19.7983 C.ar    1  UNL1       -0.0041
      6 C         -10.3071  -19.6547   19.2905 C.ar    1  UNL1       -0.0003
      7 C         -11.2134  -18.5376   19.7155 C.ar    1  UNL1        0.0001
      8 C         -10.7093  -17.4766   20.6483 C.ar    1  UNL1        0.0042
      9 C          -9.2990  -17.5327   21.1561 C.ar    1  UNL1        0.0496
     10 C          -5.8424  -18.8400   20.2733 C.3     1  UNL1        0.0047
     11 C          -6.9824  -18.7060   21.2389 C.3     1  UNL1        0.0225
     12 C          -6.7121  -18.6282   22.7122 C.3     1  UNL1        0.0047
     13 C         -10.0999  -17.5731   24.0469 C.3     1  UNL1        0.0927
     14 C         -11.5728  -17.6873   23.7870 C.3     1  UNL1        0.0383
     15 C         -12.0736  -18.9147   24.4889 C.3     1  UNL1        0.0704
     16 N         -10.9102  -19.5591   25.1827 N.3     1  UNL1       -0.2960
     17 C          -9.6904  -18.7299   24.9095 C.3     1  UNL1        0.0887
     18 H         -10.7736  -20.5043   24.8242 H       1  UNL1        0.1233
     19 C          -8.6913  -15.4308   24.4672 C.3     1  UNL1        0.0936
     20 C          -7.3015  -15.5205   25.0242 C.3     1  UNL1        0.0199
     21 C          -5.9209  -15.5072   24.4378 C.3     1  UNL1        0.0017
     22 C          -5.3359  -15.6473   25.8119 C.3     1  UNL1        0.0001
     23 C          -6.7165  -15.6606   26.3983 C.3     1  UNL1        0.0017
@<TRIPOS>BOND
     1    10    11    1
     2    11    12    1
     3    11     4    1
     4     4     5   ar
     5     5     6   ar
     6     6     7   ar
     7     7     8   ar
     8     8     9   ar
     9     9     1    1
    10     1     2    2
    11     1     3   am
    12     3    19    1
    13    19    20    1
    14    20    21    1
    15    21    22    1
    16    22    23    1
    17    13     3    1
    18    13    14    1
    19    14    15    1
    20    15    16    1
    21    16    17    1
    22     9     4   ar
    23    23    20    1
    24    17    13    1
    25    16    18    1
@<TRIPOS>MOLECULE
*****
 23 25 0 0 0
SMALL
GASTEIGER

@<TRIPOS>ATOM
      1 C          -8.4709  -19.2127   21.5652 C.2     1  UNL1        0.2487
      2 O          -8.4094  -20.4292   20.6897 O.2     1  UNL1       -0.2699
      3 N          -7.3715  -18.1938   21.5116 N.am    1  UNL1       -0.2763
      4 C         -10.9024  -18.4000   21.9867 C.ar    1  UNL1       -0.0181
      5 C         -12.0633  -18.2026   22.9158 C.ar    1  UNL1       -0.0041
      6 C         -11.9539  -18.6203   24.3522 C.ar    1  UNL1       -0.0003
      7 C         -10.6835  -19.2356   24.8597 C.ar    1  UNL1        0.0001
      8 C          -9.5225  -19.4330   23.9307 C.ar    1  UNL1        0.0042
      9 C          -9.6320  -19.0152   22.4942 C.ar    1  UNL1        0.0496
     10 C         -10.9785  -19.0160   19.4639 C.3     1  UNL1        0.0047
     11 C         -11.0118  -17.9823   20.5502 C.3     1  UNL1        0.0225
     12 C         -11.1545  -16.5308   20.2001 C.3     1  UNL1        0.0047
     13 C          -7.4330  -16.9773   22.3871 C.3     1  UNL1        0.0927
     14 C          -6.6958  -16.7825   23.6788 C.3     1  UNL1        0.0383
     15 C          -7.0497  -15.4269   24.2146 C.3     1  UNL1        0.0704
     16 N          -8.0056  -14.7838   23.2540 N.3     1  UNL1       -0.2960
     17 C          -8.2424  -15.7421   22.1245 C.3     1  UNL1        0.0887
     18 H          -7.6048  -13.9175   22.8946 H       1  UNL1        0.1233
     19 C          -6.2104  -18.3913   20.5826 C.3     1  UNL1        0.0936
     20 C          -4.9287  -18.9759   21.0977 C.3     1  UNL1        0.0199
     21 C          -4.1156  -18.8133   22.3476 C.3     1  UNL1        0.0017
     22 C          -3.1160  -19.8027   21.8261 C.3     1  UNL1        0.0001
     23 C          -3.9292  -19.9653   20.5762 C.3     1  UNL1        0.0017
@<TRIPOS>BOND
     1    10    11    1
     2    11    12    1
     3    11     4    1
     4     4     5   ar
     5     5     6   ar
     6     6     7   ar
     7     7     8   ar
     8     8     9   ar
     9     9     1    1
    10     1     2    2
    11     1     3   am
    12     3    19    1
    13    19    20    1
    14    20    21    1
    15    21    22    1
    16    22    23    1
    17    13     3    1
    18    13    14    1
    19    14    15    1
    20    15    16    1
    21    16    17    1
    22     9     4   ar
    23    23    20    1
    24    17    13    1
    25    16    18    1
@<TRIPOS>MOLECULE
*****
 23 25 0 0 0
SMALL
GASTEIGER

@<TRIPOS>ATOM
      1 C         -13.7864   -5.4354   16.9470 C.2     1  UNL1        0.2487
      2 O         -14.6679   -4.3717   16.3627 O.2     1  UNL1       -0.2699
      3 N         -12.2948   -5.2868   16.8923 N.am    1  UNL1       -0.2763
      4 C         -14.9732   -6.5572   18.9677 C.ar    1  UNL1       -0.0181
      5 C         -15.5833   -7.7694   19.6066 C.ar    1  UNL1       -0.0041
      6 C         -15.6166   -9.0722   18.8638 C.ar    1  UNL1       -0.0003
      7 C         -15.0398   -9.1627   17.4821 C.ar    1  UNL1        0.0001
      8 C         -14.4297   -7.9504   16.8432 C.ar    1  UNL1        0.0042
      9 C         -14.3965   -6.6477   17.5860 C.ar    1  UNL1        0.0496
     10 C         -13.7146   -4.8616   20.4813 C.3     1  UNL1        0.0047
     11 C         -14.9400   -5.2544   19.7105 C.3     1  UNL1        0.0225
     12 C         -16.1320   -4.3444   19.6824 C.3     1  UNL1        0.0047
     13 C         -11.4132   -6.3505   17.4766 C.3     1  UNL1        0.0927
     14 C         -10.7123   -6.2854   18.8012 C.3     1  UNL1        0.0383
     15 C          -9.9437   -7.5607   18.9821 C.3     1  UNL1        0.0704
     16 N         -10.1695   -8.4141   17.7694 N.3     1  UNL1       -0.2960
     17 C         -11.0777   -7.6661   16.8389 C.3     1  UNL1        0.0887
     18 H         -10.6036   -9.2957   18.0424 H       1  UNL1        0.1233
     19 C         -11.6847   -4.0745   16.2534 C.3     1  UNL1        0.0936
     20 C         -11.4414   -2.8392   17.0686 C.3     1  UNL1        0.0199
     21 C         -11.8256   -2.3843   18.4454 C.3     1  UNL1        0.0017
     22 C         -11.0974   -1.0921   18.2216 C.3     1  UNL1        0.0001
     23 C         -10.7133   -1.5470   16.8449 C.3     1  UNL1        0.0017
@<TRIPOS>BOND
     1    10    11    1
     2    11    12    1
     3    11     4    1
     4     4     5   ar
     5     5     6   ar
     6     6     7   ar
     7     7     8   ar
     8     8     9   ar
     9     9     1    1
    10     1     2    2
    11     1     3   am
    12     3    19    1
    13    19    20    1
    14    20    21    1
    15    21    22    1
    16    22    23    1
    17    13     3    1
    18    13    14    1
    19    14    15    1
    20    15    16    1
    21    16    17    1
    22     9     4   ar
    23    23    20    1
    24    17    13    1
    25    16    18    1
@<TRIPOS>MOLECULE
*****
 23 25 0 0 0
SMALL
GASTEIGER

@<TRIPOS>ATOM
      1 C           4.8257   -0.3694   17.4580 C.2     1  UNL1        0.2487
      2 O           3.9958   -0.9592   16.3565 O.2     1  UNL1       -0.2699
      3 N           5.7186   -1.2517   18.2791 N.am    1  UNL1       -0.2763
      4 C           3.6267    1.6658   18.5398 C.ar    1  UNL1       -0.0181
      5 C           3.5638    3.1380   18.8202 C.ar    1  UNL1       -0.0041
      6 C           4.6369    4.0473   18.2991 C.ar    1  UNL1       -0.0003
      7 C           5.7730    3.4844   17.4976 C.ar    1  UNL1        0.0001
      8 C           5.8359    2.0122   17.2173 C.ar    1  UNL1        0.0042
      9 C           4.7628    1.1029   17.7384 C.ar    1  UNL1        0.0496
     10 C           1.2934    0.5548   18.2728 C.3     1  UNL1        0.0047
     11 C           2.5535    0.7566   19.0610 C.3     1  UNL1        0.0225
     12 C           2.7405    0.0491   20.3703 C.3     1  UNL1        0.0047
     13 C           6.5485   -0.6618   19.3806 C.3     1  UNL1        0.0927
     14 C           6.1107   -0.4548   20.8002 C.3     1  UNL1        0.0383
     15 C           7.2536    0.1595   21.5529 C.3     1  UNL1        0.0704
     16 N           8.3978    0.3321   20.5984 N.3     1  UNL1       -0.2960
     17 C           7.9620   -0.1755   19.2558 C.3     1  UNL1        0.0887
     18 H           9.2042   -0.2004   20.9247 H       1  UNL1        0.1233
     19 C           5.7815   -2.7240   17.9987 C.3     1  UNL1        0.0936
     20 C           4.7827   -3.6504   18.6263 C.3     1  UNL1        0.0199
     21 C           3.4892   -3.4727   19.3649 C.3     1  UNL1        0.0017
     22 C           3.3700   -4.9605   19.5140 C.3     1  UNL1        0.0001
     23 C           4.6634   -5.1382   18.7754 C.3     1  UNL1        0.0017
@<TRIPOS>BOND
     1    10    11    1
     2    11    12    1
     3    11     4    1
     4     4     5   ar
     5     5     6   ar
     6     6     7   ar
     7     7     8   ar
     8     8     9   ar
     9     9     1    1
    10     1     2    2
    11     1     3   am
    12     3    19    1
    13    19    20    1
    14    20    21    1
    15    21    22    1
    16    22    23    1
    17    13     3    1
    18    13    14    1
    19    14    15    1
    20    15    16    1
    21    16    17    1
    22     9     4   ar
    23    23    20    1
    24    17    13    1
    25    16    18    1
@<TRIPOS>MOLECULE
*****
 23 25 0 0 0
SMALL
GASTEIGER

@<TRIPOS>ATOM
      1 C         -14.4844   -4.5366   17.1092 C.2     1  UNL1        0.2487
      2 O         -14.0462   -3.1989   16.5910 O.2     1  UNL1       -0.2699
      3 N         -13.5512   -5.7091   17.0427 N.am    1  UNL1       -0.2763
      4 C         -16.1304   -4.2570   19.0997 C.ar    1  UNL1       -0.0181
      5 C         -17.5019   -4.4223   19.6843 C.ar    1  UNL1       -0.0041
      6 C         -18.5988   -5.0324   18.8630 C.ar    1  UNL1       -0.0003
      7 C         -18.3242   -5.4773   17.4571 C.ar    1  UNL1        0.0001
      8 C         -16.9527   -5.3120   16.8725 C.ar    1  UNL1        0.0042
      9 C         -15.8559   -4.7019   17.6938 C.ar    1  UNL1        0.0496
     10 C         -14.1190   -4.5254   20.7221 C.3     1  UNL1        0.0047
     11 C         -15.0336   -3.6468   19.9211 C.3     1  UNL1        0.0225
     12 C         -14.8512   -2.1581   19.9414 C.3     1  UNL1        0.0047
     13 C         -13.9894   -7.0468   17.5608 C.3     1  UNL1        0.0927
     14 C         -14.7790   -8.0711   16.8010 C.3     1  UNL1        0.0383
     15 C         -14.9925   -9.2524   17.7003 C.3     1  UNL1        0.0704
     16 N         -14.3348   -8.9583   19.0160 N.3     1  UNL1       -0.2960
     17 C         -13.7149   -7.5951   18.9297 C.3     1  UNL1        0.0887
     18 H         -13.6144   -9.6548   19.2062 H       1  UNL1        0.1233
     19 C         -12.1796   -5.5438   16.4580 C.3     1  UNL1        0.0936
     20 C         -11.0302   -5.1554   17.3399 C.3     1  UNL1        0.0199
     21 C          -9.5743   -4.8689   17.1202 C.3     1  UNL1        0.0017
     22 C          -9.4046   -4.6060   18.5872 C.3     1  UNL1        0.0001
     23 C         -10.8605   -4.8924   18.8069 C.3     1  UNL1        0.0017
@<TRIPOS>BOND
     1    10    11    1
     2    11    12    1
     3    11     4    1
     4     4     5   ar
     5     5     6   ar
     6     6     7   ar
     7     7     8   ar
     8     8     9   ar
     9     9     1    1
    10     1     2    2
    11     1     3   am
    12     3    19    1
    13    19    20    1
    14    20    21    1
    15    21    22    1
    16    22    23    1
    17    13     3    1
    18    13    14    1
    19    14    15    1
    20    15    16    1
    21    16    17    1
    22     9     4   ar
    23    23    20    1
    24    17    13    1
    25    16    18    1
