@<TRIPOS>MOLECULE
*****
 32 35 0 0 0
SMALL
GASTEIGER

@<TRIPOS>ATOM
      1 C          -9.1870  -18.4390   21.1142 C.ar    1  UNL1        0.0949
      2 C          -9.8283  -18.8104   19.8101 C.ar    1  UNL1        0.1454
      3 F         -11.1251  -18.1750   19.4042 F       1  UNL1       -0.2040
      4 C          -9.1729  -19.8171   18.9119 C.ar    1  UNL1        0.0312
      5 C          -7.8761  -20.4525   19.3178 C.ar    1  UNL1        0.0204
      6 C          -7.2348  -20.0811   20.6219 C.ar    1  UNL1        0.0924
      7 C          -7.8902  -19.0743   21.5201 C.ar    1  UNL1        0.1598
      8 F          -7.2489  -18.7028   22.8242 F       1  UNL1       -0.2026
      9 C          -9.8424  -17.4321   22.0125 C.2     1  UNL1        0.2007
     10 O         -11.3377  -17.3196   22.0476 O.2     1  UNL1       -0.2866
     11 C          -9.4522  -17.5711   25.3738 C.2     1  UNL1        0.1360
     12 C          -9.1158  -17.4205   26.8278 C.2     1  UNL1        0.0837
     13 C          -8.1841  -16.3327   27.2734 C.2     1  UNL1        0.2385
     14 N          -7.5887  -15.3955   26.2649 N.2     1  UNL1       -0.0338
     15 C          -7.9250  -15.5460   24.8109 C.2     1  UNL1        0.3626
     16 N          -7.4949  -14.7779   23.5965 N.2     1  UNL1       -0.0341
     17 C          -8.1608  -15.3909   22.4003 C.2     1  UNL1        0.2355
     18 C          -9.0025  -16.5379   22.8755 C.2     1  UNL1        0.0823
     19 C          -8.8568  -16.6338   24.3654 C.3     1  UNL1        0.1973
     20 C          -9.8631  -20.0475   24.7044 C.3     1  UNL1        0.2520
     21 O         -10.3840  -18.6589   24.9282 O.2     1  UNL1       -0.4746
     22 N          -5.9380  -20.7164   21.0278 N.pl3   1  UNL1       -0.2128
     23 H          -5.9379  -21.5970   21.4679 H       1  UNL1        0.1738
     24 S          -4.6415  -20.0100   20.7630 S.O2    1  UNL1        0.0751
     25 O          -4.6989  -20.4427   19.3279 O.2     1  UNL1       -0.1499
     26 O          -4.5842  -19.5774   22.1981 O.2     1  UNL1       -0.1499
     27 C          -3.3451  -19.3036   20.4984 C.ar    1  UNL1        0.1442
     28 C          -3.1516  -18.5457   19.2184 C.ar    1  UNL1        0.0234
     29 C          -1.8551  -17.8393   18.9537 C.ar    1  UNL1        0.0221
     30 C          -0.7521  -17.8907   19.9689 C.ar    1  UNL1        0.0990
     31 N          -0.9456  -18.6485   21.2488 N.ar    1  UNL1       -0.2409
     32 C          -2.2420  -19.3550   21.5136 C.ar    1  UNL1        0.1190
@<TRIPOS>BOND
     1    20    21    1
     2    21    11    1
     3    11    12    2
     4    12    13    1
     5    13    14    2
     6    14    15    1
     7    15    16    2
     8    16    17    1
     9    17    18    2
    10    18     9    1
    11     9    10    2
    12     9     1    1
    13     1     2   ar
    14     2     3    1
    15     2     4   ar
    16     4     5   ar
    17     5     6   ar
    18     6    22    1
    19    22    24    1
    20    24    25    2
    21    24    26    2
    22    24    27    1
    23    27    28   ar
    24    28    29   ar
    25    29    30   ar
    26    30    31   ar
    27    31    32   ar
    28     6     7   ar
    29     7     8    1
    30    18    19    1
    31    19    11    1
    32    19    15    1
    33     7     1   ar
    34    32    27   ar
    35    22    23    1
@<TRIPOS>MOLECULE
*****
 32 35 0 0 0
SMALL
GASTEIGER

@<TRIPOS>ATOM
      1 C          -7.2260  -17.1643   23.0783 C.ar    1  UNL1        0.0949
      2 C          -7.5475  -15.9609   23.9140 C.ar    1  UNL1        0.1454
      3 F          -8.9731  -15.5280   24.0883 F       1  UNL1       -0.2040
      4 C          -6.4435  -15.1905   24.5754 C.ar    1  UNL1        0.0312
      5 C          -5.0179  -15.6235   24.4011 C.ar    1  UNL1        0.0204
      6 C          -4.6964  -16.8269   23.5653 C.ar    1  UNL1        0.0924
      7 C          -5.8005  -17.5972   22.9039 C.ar    1  UNL1        0.1598
      8 F          -5.4790  -18.8007   22.0681 F       1  UNL1       -0.2026
      9 C          -8.3301  -17.9348   22.4168 C.2     1  UNL1        0.2007
     10 O          -8.3552  -18.0771   20.9238 O.2     1  UNL1       -0.2866
     11 C         -11.5821  -17.0127   22.6273 C.2     1  UNL1        0.1360
     12 C         -13.0441  -16.8097   22.8945 C.2     1  UNL1        0.0837
     13 C         -13.7653  -17.7163   23.8474 C.2     1  UNL1        0.2385
     14 N         -13.0246  -18.8258   24.5330 N.2     1  UNL1       -0.0338
     15 C         -11.5626  -19.0288   24.2659 C.2     1  UNL1        0.3626
     16 N         -10.5760  -20.0296   24.7901 N.2     1  UNL1       -0.0341
     17 C          -9.2450  -19.7417   24.1612 C.2     1  UNL1        0.2355
     18 C          -9.4090  -18.5628   23.2483 C.2     1  UNL1        0.0823
     19 C         -10.8414  -18.1222   23.3130 C.3     1  UNL1        0.1973
     20 C         -11.2742  -16.0508   20.2336 C.3     1  UNL1        0.2520
     21 O         -10.8609  -16.1061   21.6744 O.2     1  UNL1       -0.4746
     22 N          -3.2709  -17.2598   23.3910 N.pl3   1  UNL1       -0.2128
     23 H          -2.7113  -17.4406   24.1806 H       1  UNL1        0.1738
     24 S          -2.6979  -17.4172   22.0137 S.O2    1  UNL1        0.0751
     25 O          -2.8596  -15.9447   21.7782 O.2     1  UNL1       -0.1499
     26 O          -2.5363  -18.8897   22.2493 O.2     1  UNL1       -0.1499
     27 C          -2.1250  -17.5747   20.6365 C.ar    1  UNL1        0.1442
     28 C          -2.9765  -17.2956   19.4335 C.ar    1  UNL1        0.0234
     29 C          -2.4037  -17.4531   18.0562 C.ar    1  UNL1        0.0221
     30 C          -0.9793  -17.8897   17.8818 C.ar    1  UNL1        0.0990
     31 N          -0.1278  -18.1688   19.0847 N.ar    1  UNL1       -0.2409
     32 C          -0.7006  -18.0113   20.4621 C.ar    1  UNL1        0.1190
@<TRIPOS>BOND
     1    20    21    1
     2    21    11    1
     3    11    12    2
     4    12    13    1
     5    13    14    2
     6    14    15    1
     7    15    16    2
     8    16    17    1
     9    17    18    2
    10    18     9    1
    11     9    10    2
    12     9     1    1
    13     1     2   ar
    14     2     3    1
    15     2     4   ar
    16     4     5   ar
    17     5     6   ar
    18     6    22    1
    19    22    24    1
    20    24    25    2
    21    24    26    2
    22    24    27    1
    23    27    28   ar
    24    28    29   ar
    25    29    30   ar
    26    30    31   ar
    27    31    32   ar
    28     6     7   ar
    29     7     8    1
    30    18    19    1
    31    19    11    1
    32    19    15    1
    33     7     1   ar
    34    32    27   ar
    35    22    23    1
@<TRIPOS>MOLECULE
*****
 32 35 0 0 0
SMALL
GASTEIGER

@<TRIPOS>ATOM
      1 C          -8.5346  -18.1703   21.1941 C.ar    1  UNL1        0.0949
      2 C          -9.4284  -18.7298   20.1273 C.ar    1  UNL1        0.1454
      3 F         -10.8219  -18.1998   19.9623 F       1  UNL1       -0.2040
      4 C          -8.9287  -19.8194   19.2256 C.ar    1  UNL1        0.0312
      5 C          -7.5352  -20.3494   19.3907 C.ar    1  UNL1        0.0204
      6 C          -6.6414  -19.7899   20.4575 C.ar    1  UNL1        0.0924
      7 C          -7.1411  -18.7003   21.3592 C.ar    1  UNL1        0.1598
      8 F          -6.2473  -18.1408   22.4260 F       1  UNL1       -0.2026
      9 C          -9.0343  -17.0807   22.0959 C.2     1  UNL1        0.2007
     10 O          -9.2500  -15.6988   21.5540 O.2     1  UNL1       -0.2866
     11 C          -7.4250  -15.8537   24.8116 C.2     1  UNL1        0.1360
     12 C          -6.8868  -15.4606   26.1553 C.2     1  UNL1        0.0837
     13 C          -7.5028  -16.0206   27.4031 C.2     1  UNL1        0.2385
     14 N          -8.6570  -16.9737   27.3071 N.2     1  UNL1       -0.0338
     15 C          -9.1952  -17.3669   25.9634 C.2     1  UNL1        0.3626
     16 N         -10.3149  -18.2791   25.5584 N.2     1  UNL1       -0.0341
     17 C         -10.3910  -18.2830   24.0603 C.2     1  UNL1        0.2355
     18 C          -9.3182  -17.3731   23.5395 C.2     1  UNL1        0.0823
     19 C          -8.5792  -16.8069   24.7156 C.3     1  UNL1        0.1973
     20 C          -5.3187  -15.1613   23.4574 C.3     1  UNL1        0.2520
     21 O          -6.8090  -15.2937   23.5638 O.2     1  UNL1       -0.4746
     22 N          -5.2479  -20.3200   20.6225 N.pl3   1  UNL1       -0.2128
     23 H          -5.1004  -21.2844   20.7539 H       1  UNL1        0.1738
     24 S          -4.0791  -19.3805   20.5875 S.O2    1  UNL1        0.0751
     25 O          -4.6103  -18.7667   19.3261 O.2     1  UNL1       -0.1499
     26 O          -3.5479  -19.9943   21.8488 O.2     1  UNL1       -0.1499
     27 C          -2.9103  -18.4411   20.5524 C.ar    1  UNL1        0.1442
     28 C          -2.8164  -17.3231   21.5482 C.ar    1  UNL1        0.0234
     29 C          -1.6476  -16.3837   21.5133 C.ar    1  UNL1        0.0221
     30 C          -0.5725  -16.5621   20.4826 C.ar    1  UNL1        0.0990
     31 N          -0.6664  -17.6800   19.4868 N.ar    1  UNL1       -0.2409
     32 C          -1.8352  -18.6195   19.5217 C.ar    1  UNL1        0.1190
@<TRIPOS>BOND
     1    20    21    1
     2    21    11    1
     3    11    12    2
     4    12    13    1
     5    13    14    2
     6    14    15    1
     7    15    16    2
     8    16    17    1
     9    17    18    2
    10    18     9    1
    11     9    10    2
    12     9     1    1
    13     1     2   ar
    14     2     3    1
    15     2     4   ar
    16     4     5   ar
    17     5     6   ar
    18     6    22    1
    19    22    24    1
    20    24    25    2
    21    24    26    2
    22    24    27    1
    23    27    28   ar
    24    28    29   ar
    25    29    30   ar
    26    30    31   ar
    27    31    32   ar
    28     6     7   ar
    29     7     8    1
    30    18    19    1
    31    19    11    1
    32    19    15    1
    33     7     1   ar
    34    32    27   ar
    35    22    23    1
@<TRIPOS>MOLECULE
*****
 32 35 0 0 0
SMALL
GASTEIGER

@<TRIPOS>ATOM
      1 C          -8.1848  -16.8069   25.2378 C.ar    1  UNL1        0.0949
      2 C          -8.0735  -16.4281   26.6849 C.ar    1  UNL1        0.1454
      3 F          -9.1263  -16.8682   27.6585 F       1  UNL1       -0.2040
      4 C          -6.9094  -15.6093   27.1583 C.ar    1  UNL1        0.0312
      5 C          -5.8566  -15.1692   26.1847 C.ar    1  UNL1        0.0204
      6 C          -5.9679  -15.5480   24.7376 C.ar    1  UNL1        0.0924
      7 C          -7.1320  -16.3668   24.2642 C.ar    1  UNL1        0.1598
      8 F          -7.2434  -16.7457   22.8171 F       1  UNL1       -0.2026
      9 C          -9.3491  -17.6258   24.7643 C.2     1  UNL1        0.2007
     10 O          -9.7394  -18.8716   25.5028 O.2     1  UNL1       -0.2866
     11 C          -9.4207  -19.1156   21.7236 C.2     1  UNL1        0.1360
     12 C          -9.6227  -19.5766   20.3106 C.2     1  UNL1        0.0837
     13 C         -10.5308  -18.8111   19.3945 C.2     1  UNL1        0.2385
     14 N         -11.2369  -17.5844   19.8913 N.2     1  UNL1       -0.0338
     15 C         -11.0348  -17.1234   21.3043 C.2     1  UNL1        0.3626
     16 N         -11.5921  -15.9601   22.0700 N.2     1  UNL1       -0.0341
     17 C         -11.0285  -16.0067   23.4593 C.2     1  UNL1        0.2355
     18 C         -10.1228  -17.1988   23.5522 C.2     1  UNL1        0.0823
     19 C         -10.1267  -17.8890   22.2204 C.3     1  UNL1        0.1973
     20 C          -7.0585  -20.0293   22.3026 C.3     1  UNL1        0.2520
     21 O          -8.5126  -19.8811   22.6397 O.2     1  UNL1       -0.4746
     22 N          -4.9151  -15.1079   23.7640 N.pl3   1  UNL1       -0.2128
     23 H          -4.7745  -14.1490   23.5911 H       1  UNL1        0.1738
     24 S          -4.0765  -16.1289   23.0539 S.O2    1  UNL1        0.0751
     25 O          -4.4893  -17.1654   24.0565 O.2     1  UNL1       -0.1499
     26 O          -3.6636  -15.0924   22.0513 O.2     1  UNL1       -0.1499
     27 C          -3.2378  -17.1498   22.3437 C.ar    1  UNL1        0.1442
     28 C          -3.5700  -18.6077   22.4632 C.ar    1  UNL1        0.0234
     29 C          -2.7314  -19.6287   21.7531 C.ar    1  UNL1        0.0221
     30 C          -1.5606  -19.1919   20.9233 C.ar    1  UNL1        0.0990
     31 N          -1.2285  -17.7339   20.8038 N.ar    1  UNL1       -0.2409
     32 C          -2.0671  -16.7129   21.5140 C.ar    1  UNL1        0.1190
@<TRIPOS>BOND
     1    20    21    1
     2    21    11    1
     3    11    12    2
     4    12    13    1
     5    13    14    2
     6    14    15    1
     7    15    16    2
     8    16    17    1
     9    17    18    2
    10    18     9    1
    11     9    10    2
    12     9     1    1
    13     1     2   ar
    14     2     3    1
    15     2     4   ar
    16     4     5   ar
    17     5     6   ar
    18     6    22    1
    19    22    24    1
    20    24    25    2
    21    24    26    2
    22    24    27    1
    23    27    28   ar
    24    28    29   ar
    25    29    30   ar
    26    30    31   ar
    27    31    32   ar
    28     6     7   ar
    29     7     8    1
    30    18    19    1
    31    19    11    1
    32    19    15    1
    33     7     1   ar
    34    32    27   ar
    35    22    23    1
@<TRIPOS>MOLECULE
*****
 32 35 0 0 0
SMALL
GASTEIGER

@<TRIPOS>ATOM
      1 C          -8.1083  -17.0855   22.4075 C.ar    1  UNL1        0.0949
      2 C          -8.6284  -15.8151   23.0121 C.ar    1  UNL1        0.1454
      3 F         -10.0062  -15.3307   22.6697 F       1  UNL1       -0.2040
      4 C          -7.7708  -15.0292   23.9590 C.ar    1  UNL1        0.0312
      5 C          -6.3931  -15.5136   24.3013 C.ar    1  UNL1        0.0204
      6 C          -5.8729  -16.7840   23.6967 C.ar    1  UNL1        0.0924
      7 C          -6.7306  -17.5699   22.7498 C.ar    1  UNL1        0.1598
      8 F          -6.2105  -18.8404   22.1451 F       1  UNL1       -0.2026
      9 C          -8.9660  -17.8716   21.4604 C.2     1  UNL1        0.2007
     10 O          -8.3381  -18.8654   20.5289 O.2     1  UNL1       -0.2866
     11 C         -11.1850  -18.6126   23.9093 C.2     1  UNL1        0.1360
     12 C         -12.3523  -18.8430   24.8227 C.2     1  UNL1        0.0837
     13 C         -13.7358  -18.4674   24.3810 C.2     1  UNL1        0.2385
     14 N         -13.9519  -17.8615   23.0260 N.2     1  UNL1       -0.0338
     15 C         -12.7846  -17.6312   22.1126 C.2     1  UNL1        0.3626
     16 N         -12.6898  -17.0560   20.7305 N.2     1  UNL1       -0.0341
     17 C         -11.2478  -17.0760   20.3180 C.2     1  UNL1        0.2355
     18 C         -10.4514  -17.6636   21.4451 C.2     1  UNL1        0.0823
     19 C         -11.4012  -18.0067   22.5543 C.3     1  UNL1        0.1973
     20 C          -9.2882  -20.3766   24.1093 C.3     1  UNL1        0.2520
     21 O          -9.8016  -18.9881   24.3509 O.2     1  UNL1       -0.4746
     22 N          -4.4952  -17.2684   24.0391 N.pl3   1  UNL1       -0.2128
     23 H          -4.2548  -17.4459   24.9771 H       1  UNL1        0.1738
     24 S          -3.4838  -17.4824   22.9522 S.O2    1  UNL1        0.0751
     25 O          -3.5496  -16.0248   22.6041 O.2     1  UNL1       -0.1499
     26 O          -3.4181  -18.9399   23.3003 O.2     1  UNL1       -0.1499
     27 C          -2.4725  -17.6964   21.8654 C.ar    1  UNL1        0.1442
     28 C          -1.6963  -16.5329   21.3233 C.ar    1  UNL1        0.0234
     29 C          -0.6849  -16.7468   20.2365 C.ar    1  UNL1        0.0221
     30 C          -0.4496  -18.1244   19.6916 C.ar    1  UNL1        0.0990
     31 N          -1.2258  -19.2879   20.2336 N.ar    1  UNL1       -0.2409
     32 C          -2.2372  -19.0740   21.3204 C.ar    1  UNL1        0.1190
@<TRIPOS>BOND
     1    20    21    1
     2    21    11    1
     3    11    12    2
     4    12    13    1
     5    13    14    2
     6    14    15    1
     7    15    16    2
     8    16    17    1
     9    17    18    2
    10    18     9    1
    11     9    10    2
    12     9     1    1
    13     1     2   ar
    14     2     3    1
    15     2     4   ar
    16     4     5   ar
    17     5     6   ar
    18     6    22    1
    19    22    24    1
    20    24    25    2
    21    24    26    2
    22    24    27    1
    23    27    28   ar
    24    28    29   ar
    25    29    30   ar
    26    30    31   ar
    27    31    32   ar
    28     6     7   ar
    29     7     8    1
    30    18    19    1
    31    19    11    1
    32    19    15    1
    33     7     1   ar
    34    32    27   ar
    35    22    23    1
@<TRIPOS>MOLECULE
*****
 32 35 0 0 0
SMALL
GASTEIGER

@<TRIPOS>ATOM
      1 C          -7.1007  -15.9539   23.6137 C.ar    1  UNL1        0.0949
      2 C          -7.2654  -15.2623   24.9345 C.ar    1  UNL1        0.1454
      3 F          -8.4992  -14.4548   25.2096 F       1  UNL1       -0.2040
      4 C          -6.1962  -15.3782   25.9802 C.ar    1  UNL1        0.0312
      5 C          -4.9624  -16.1857   25.7051 C.ar    1  UNL1        0.0204
      6 C          -4.7978  -16.8773   24.3843 C.ar    1  UNL1        0.0924
      7 C          -5.8669  -16.7614   23.3386 C.ar    1  UNL1        0.1598
      8 F          -5.7023  -17.4531   22.0178 F       1  UNL1       -0.2026
      9 C          -8.1699  -15.8381   22.5680 C.2     1  UNL1        0.2007
     10 O          -7.9515  -14.9687   21.3653 O.2     1  UNL1       -0.2866
     11 C          -9.1314  -18.6528   20.9484 C.2     1  UNL1        0.1360
     12 C          -9.7831  -19.8773   20.3775 C.2     1  UNL1        0.0837
     13 C         -11.1484  -20.2871   20.8443 C.2     1  UNL1        0.2385
     14 N         -11.8621  -19.4723   21.8820 N.2     1  UNL1       -0.0338
     15 C         -11.2105  -18.2478   22.4528 C.2     1  UNL1        0.3626
     16 N         -11.6665  -17.2546   23.4802 N.2     1  UNL1       -0.0341
     17 C         -10.5830  -16.2310   23.6485 C.2     1  UNL1        0.2355
     18 C          -9.4574  -16.5916   22.7250 C.2     1  UNL1        0.0823
     19 C          -9.8452  -17.8380   21.9860 C.3     1  UNL1        0.1973
     20 C          -6.8594  -19.2505   19.8391 C.3     1  UNL1        0.2520
     21 O          -7.7661  -18.2430   20.4816 O.2     1  UNL1       -0.4746
     22 N          -3.5640  -17.6848   24.1092 N.pl3   1  UNL1       -0.2128
     23 H          -3.1032  -18.1464   24.8467 H       1  UNL1        0.1738
     24 S          -3.0323  -17.7891   22.7105 S.O2    1  UNL1        0.0751
     25 O          -3.3842  -19.2470   22.6854 O.2     1  UNL1       -0.1499
     26 O          -2.6804  -16.3312   22.7356 O.2     1  UNL1       -0.1499
     27 C          -2.5005  -17.8932   21.3118 C.ar    1  UNL1        0.1442
     28 C          -3.2021  -18.7559   20.3050 C.ar    1  UNL1        0.0234
     29 C          -2.6705  -18.8601   18.9063 C.ar    1  UNL1        0.0221
     30 C          -1.4372  -18.1016   18.5143 C.ar    1  UNL1        0.0990
     31 N          -0.7356  -17.2390   19.5211 N.ar    1  UNL1       -0.2409
     32 C          -1.2672  -17.1348   20.9198 C.ar    1  UNL1        0.1190
@<TRIPOS>BOND
     1    20    21    1
     2    21    11    1
     3    11    12    2
     4    12    13    1
     5    13    14    2
     6    14    15    1
     7    15    16    2
     8    16    17    1
     9    17    18    2
    10    18     9    1
    11     9    10    2
    12     9     1    1
    13     1     2   ar
    14     2     3    1
    15     2     4   ar
    16     4     5   ar
    17     5     6   ar
    18     6    22    1
    19    22    24    1
    20    24    25    2
    21    24    26    2
    22    24    27    1
    23    27    28   ar
    24    28    29   ar
    25    29    30   ar
    26    30    31   ar
    27    31    32   ar
    28     6     7   ar
    29     7     8    1
    30    18    19    1
    31    19    11    1
    32    19    15    1
    33     7     1   ar
    34    32    27   ar
    35    22    23    1
@<TRIPOS>MOLECULE
*****
 32 35 0 0 0
SMALL
GASTEIGER

@<TRIPOS>ATOM
      1 C           5.3277   -3.2435   23.0030 C.ar    1  UNL1        0.0949
      2 C           4.5165   -2.1152   23.5677 C.ar    1  UNL1        0.1454
      3 F           3.4987   -1.4215   22.7117 F       1  UNL1       -0.2040
      4 C           4.7231   -1.6807   24.9884 C.ar    1  UNL1        0.0312
      5 C           5.7410   -2.3744   25.8444 C.ar    1  UNL1        0.0204
      6 C           6.5522   -3.5027   25.2797 C.ar    1  UNL1        0.0924
      7 C           6.3455   -3.9372   23.8590 C.ar    1  UNL1        0.1598
      8 F           7.1568   -5.0655   23.2942 F       1  UNL1       -0.2026
      9 C           5.1211   -3.6781   21.5822 C.2     1  UNL1        0.2007
     10 O           4.0736   -4.7007   21.2556 O.2     1  UNL1       -0.2866
     11 C           4.1216   -1.6295   19.0773 C.2     1  UNL1        0.1360
     12 C           3.9379   -0.7293   17.8916 C.2     1  UNL1        0.0837
     13 C           5.1112   -0.3839   17.0232 C.2     1  UNL1        0.2385
     14 N           6.4682   -0.9387   17.3405 N.2     1  UNL1       -0.0338
     15 C           6.6519   -1.8389   18.5262 C.2     1  UNL1        0.3626
     16 N           7.8605   -2.5311   19.0831 N.2     1  UNL1       -0.0341
     17 C           7.4342   -3.3043   20.2957 C.2     1  UNL1        0.2355
     18 C           5.9621   -3.0900   20.4882 C.2     1  UNL1        0.0823
     19 C           5.4786   -2.1843   19.3945 C.3     1  UNL1        0.1973
     20 C           1.7939   -1.0241   20.0596 C.3     1  UNL1        0.2520
     21 O           2.9483   -1.9750   19.9457 O.2     1  UNL1       -0.4746
     22 N           7.5700   -4.1964   26.1357 N.pl3   1  UNL1       -0.2128
     23 H           8.3888   -4.5615   25.7289 H       1  UNL1        0.1738
     24 S           7.3403   -4.3339   27.6116 S.O2    1  UNL1        0.0751
     25 O           8.3254   -3.2320   27.8676 O.2     1  UNL1       -0.1499
     26 O           6.3553   -5.4358   27.3557 O.2     1  UNL1       -0.1499
     27 C           7.1105   -4.4714   29.0875 C.ar    1  UNL1        0.1442
     28 C           6.8036   -3.2585   29.9150 C.ar    1  UNL1        0.0234
     29 C           6.5738   -3.3960   31.3909 C.ar    1  UNL1        0.0221
     30 C           6.6509   -4.7464   32.0394 C.ar    1  UNL1        0.0990
     31 N           6.9578   -5.9593   31.2118 N.ar    1  UNL1       -0.2409
     32 C           7.1876   -5.8218   29.7360 C.ar    1  UNL1        0.1190
@<TRIPOS>BOND
     1    20    21    1
     2    21    11    1
     3    11    12    2
     4    12    13    1
     5    13    14    2
     6    14    15    1
     7    15    16    2
     8    16    17    1
     9    17    18    2
    10    18     9    1
    11     9    10    2
    12     9     1    1
    13     1     2   ar
    14     2     3    1
    15     2     4   ar
    16     4     5   ar
    17     5     6   ar
    18     6    22    1
    19    22    24    1
    20    24    25    2
    21    24    26    2
    22    24    27    1
    23    27    28   ar
    24    28    29   ar
    25    29    30   ar
    26    30    31   ar
    27    31    32   ar
    28     6     7   ar
    29     7     8    1
    30    18    19    1
    31    19    11    1
    32    19    15    1
    33     7     1   ar
    34    32    27   ar
    35    22    23    1
@<TRIPOS>MOLECULE
*****
 32 35 0 0 0
SMALL
GASTEIGER

@<TRIPOS>ATOM
      1 C         -12.5853   -3.0498   17.7548 C.ar    1  UNL1        0.0949
      2 C         -11.3275   -2.7049   18.4958 C.ar    1  UNL1        0.1454
      3 F         -11.0513   -1.2823   18.8830 F       1  UNL1       -0.2040
      4 C         -10.3460   -3.7826   18.8496 C.ar    1  UNL1        0.0312
      5 C         -10.6222   -5.2052   18.4624 C.ar    1  UNL1        0.0204
      6 C         -11.8800   -5.5501   17.7214 C.ar    1  UNL1        0.0924
      7 C         -12.8615   -4.4724   17.3677 C.ar    1  UNL1        0.1598
      8 F         -14.1193   -4.8173   16.6266 F       1  UNL1       -0.2026
      9 C         -13.5669   -1.9721   17.4010 C.2     1  UNL1        0.2007
     10 O         -13.3961   -1.1890   16.1332 O.2     1  UNL1       -0.2866
     11 C         -14.5021    1.0339   18.6499 C.2     1  UNL1        0.1360
     12 C         -15.1132    2.2260   19.3246 C.2     1  UNL1        0.0837
     13 C         -16.3222    2.0567   20.1961 C.2     1  UNL1        0.2385
     14 N         -16.9202    0.6952   20.3930 N.2     1  UNL1       -0.0338
     15 C         -16.3090   -0.4970   19.7183 C.2     1  UNL1        0.3626
     16 N         -16.6754   -1.9515   19.7252 N.2     1  UNL1       -0.0341
     17 C         -15.6927   -2.6812   18.8580 C.2     1  UNL1        0.2355
     18 C         -14.7191   -1.6775   18.3151 C.2     1  UNL1        0.0823
     19 C         -15.1000   -0.3276   18.8468 C.3     1  UNL1        0.1973
     20 C         -13.2324    2.3303   16.7906 C.3     1  UNL1        0.2520
     21 O         -13.2930    1.2032   17.7784 O.2     1  UNL1       -0.4746
     22 N         -12.1562   -6.9727   17.3342 N.pl3   1  UNL1       -0.2128
     23 H         -11.5312   -7.4524   16.7438 H       1  UNL1        0.1738
     24 S         -13.3846   -7.6644   17.8466 S.O2    1  UNL1        0.0751
     25 O         -13.7738   -8.0144   16.4409 O.2     1  UNL1       -0.1499
     26 O         -12.9954   -7.3144   19.2523 O.2     1  UNL1       -0.1499
     27 C         -14.6130   -8.3561   18.3590 C.ar    1  UNL1        0.1442
     28 C         -15.5312   -7.6473   19.3101 C.ar    1  UNL1        0.0234
     29 C         -16.7596   -8.3389   19.8226 C.ar    1  UNL1        0.0221
     30 C         -17.0699   -9.7394   19.3840 C.ar    1  UNL1        0.0990
     31 N         -16.1517  -10.4482   18.4329 N.ar    1  UNL1       -0.2409
     32 C         -14.9233   -9.7566   17.9204 C.ar    1  UNL1        0.1190
@<TRIPOS>BOND
     1    20    21    1
     2    21    11    1
     3    11    12    2
     4    12    13    1
     5    13    14    2
     6    14    15    1
     7    15    16    2
     8    16    17    1
     9    17    18    2
    10    18     9    1
    11     9    10    2
    12     9     1    1
    13     1     2   ar
    14     2     3    1
    15     2     4   ar
    16     4     5   ar
    17     5     6   ar
    18     6    22    1
    19    22    24    1
    20    24    25    2
    21    24    26    2
    22    24    27    1
    23    27    28   ar
    24    28    29   ar
    25    29    30   ar
    26    30    31   ar
    27    31    32   ar
    28     6     7   ar
    29     7     8    1
    30    18    19    1
    31    19    11    1
    32    19    15    1
    33     7     1   ar
    34    32    27   ar
    35    22    23    1
@<TRIPOS>MOLECULE
*****
 32 35 0 0 0
SMALL
GASTEIGER

@<TRIPOS>ATOM
      1 C           5.6187   -3.3521   23.1845 C.ar    1  UNL1        0.0949
      2 C           6.6605   -4.1257   23.9371 C.ar    1  UNL1        0.1454
      3 F           7.3858   -5.2549   23.2672 F       1  UNL1       -0.2040
      4 C           6.9769   -3.7698   25.3595 C.ar    1  UNL1        0.0312
      5 C           6.2516   -2.6406   26.0293 C.ar    1  UNL1        0.0204
      6 C           5.2098   -1.8671   25.2768 C.ar    1  UNL1        0.0924
      7 C           4.8934   -2.2229   23.8544 C.ar    1  UNL1        0.1598
      8 F           3.8516   -1.4494   23.1018 F       1  UNL1       -0.2026
      9 C           5.3021   -3.7079   21.7621 C.2     1  UNL1        0.2007
     10 O           4.1623   -4.6337   21.4564 O.2     1  UNL1       -0.2866
     11 C           4.2752   -1.6520   19.2743 C.2     1  UNL1        0.1360
     12 C           4.0773   -0.7531   18.0899 C.2     1  UNL1        0.0837
     13 C           5.2344   -0.4304   17.1916 C.2     1  UNL1        0.2385
     14 N           6.5894   -1.0065   17.4777 N.2     1  UNL1       -0.0338
     15 C           6.7874   -1.9054   18.6620 C.2     1  UNL1        0.3626
     16 N           7.9977   -2.6156   19.1919 N.2     1  UNL1       -0.0341
     17 C           7.5887   -3.3773   20.4176 C.2     1  UNL1        0.2355
     18 C           6.1255   -3.1378   20.6454 C.2     1  UNL1        0.0823
     19 C           5.6303   -2.2281   19.5603 C.3     1  UNL1        0.1973
     20 C           1.9228   -1.0695   20.2105 C.3     1  UNL1        0.2520
     21 O           3.1182   -1.9748   20.1726 O.2     1  UNL1       -0.4746
     22 N           4.4845   -0.7378   25.9466 N.pl3   1  UNL1       -0.2128
     23 H           4.1481    0.0172   25.4118 H       1  UNL1        0.1738
     24 S           4.2718   -0.7589   27.4313 S.O2    1  UNL1        0.0751
     25 O           3.2095   -1.8046   27.2643 O.2     1  UNL1       -0.1499
     26 O           5.3341    0.2868   27.5984 O.2     1  UNL1       -0.1499
     27 C           4.0592   -0.7800   28.9160 C.ar    1  UNL1        0.1442
     28 C           5.2343   -0.9020   29.8403 C.ar    1  UNL1        0.0234
     29 C           5.0218   -0.9230   31.3250 C.ar    1  UNL1        0.0221
     30 C           3.6341   -0.8220   31.8855 C.ar    1  UNL1        0.0990
     31 N           2.4590   -0.7000   30.9612 N.ar    1  UNL1       -0.2409
     32 C           2.6715   -0.6789   29.4765 C.ar    1  UNL1        0.1190
@<TRIPOS>BOND
     1    20    21    1
     2    21    11    1
     3    11    12    2
     4    12    13    1
     5    13    14    2
     6    14    15    1
     7    15    16    2
     8    16    17    1
     9    17    18    2
    10    18     9    1
    11     9    10    2
    12     9     1    1
    13     1     2   ar
    14     2     3    1
    15     2     4   ar
    16     4     5   ar
    17     5     6   ar
    18     6    22    1
    19    22    24    1
    20    24    25    2
    21    24    26    2
    22    24    27    1
    23    27    28   ar
    24    28    29   ar
    25    29    30   ar
    26    30    31   ar
    27    31    32   ar
    28     6     7   ar
    29     7     8    1
    30    18    19    1
    31    19    11    1
    32    19    15    1
    33     7     1   ar
    34    32    27   ar
    35    22    23    1
