@<TRIPOS>MOLECULE
*****
 26 28 0 0 0
SMALL
GASTEIGER

@<TRIPOS>ATOM
      1 C           0.1465    1.9522   26.3868 C.2     1  UNL1        0.0412
      2 C           0.8324    1.3670   25.1881 C.2     1  UNL1       -0.0331
      3 C           0.1981    1.4765   23.8332 C.3     1  UNL1        0.0418
      4 C           0.8840    0.8913   22.6345 C.3     1  UNL1        0.1002
      5 N           2.2042    0.1965   22.7906 N.3     1  UNL1       -0.1549
      6 C           2.8385    0.0870   24.1454 C.3     1  UNL1        0.1002
      7 C           2.1525    0.6722   25.3442 C.3     1  UNL1        0.0418
      8 S           2.8901   -0.3887   21.5918 S.O2    1  UNL1        0.0633
      9 O           3.3338   -1.5598   22.4174 O.2     1  UNL1       -0.1528
     10 O           2.4464    0.7823   20.7662 O.2     1  UNL1       -0.1528
     11 C           3.5760   -0.9739   20.3931 C.ar    1  UNL1        0.1227
     12 C           4.1433   -0.0708   19.3383 C.ar    1  UNL1        0.0199
     13 C           4.8292   -0.6562   18.1395 C.ar    1  UNL1        0.0019
     14 C           4.9478   -2.1445   17.9956 C.ar    1  UNL1        0.0068
     15 C           4.3804   -3.0476   19.0503 C.ar    1  UNL1        0.0359
     16 BR          4.4990   -4.5360   18.9063 Br      1  UNL1       -0.0490
     17 C           3.6946   -2.4624   20.2491 C.ar    1  UNL1        0.0266
     18 C          -2.4939    3.3418   26.0746 C.1     1  UNL1       -0.0405
     19 C          -1.1738    2.6470   26.2307 C.1     1  UNL1       -0.0583
     20 C          -6.7674    4.3092   23.2814 C.3     1  UNL1        0.0521
     21 C          -5.9509    4.5203   24.5219 C.ar    1  UNL1        0.0600
     22 C          -6.4545    5.4261   25.6062 C.ar    1  UNL1        0.0148
     23 C          -5.6380    5.6372   26.8466 C.ar    1  UNL1        0.0034
     24 C          -4.3178    4.9425   27.0028 C.ar    1  UNL1        0.0276
     25 C          -3.8142    4.0366   25.9185 C.ar    1  UNL1        0.1224
     26 N          -4.6307    3.8255   24.6780 N.ar    1  UNL1       -0.2414
@<TRIPOS>BOND
     1    20    21    1
     2    21    22   ar
     3    22    23   ar
     4    23    24   ar
     5    24    25   ar
     6    25    18    1
     7    18    19    3
     8    19     1    1
     9     1     2    2
    10     2     3    1
    11     3     4    1
    12     4     5    1
    13     5     8    1
    14     8     9    2
    15     8    10    2
    16     8    11    1
    17    11    12   ar
    18    12    13   ar
    19    13    14   ar
    20    14    15   ar
    21    15    16    1
    22    15    17   ar
    23     5     6    1
    24     6     7    1
    25    25    26   ar
    26    26    21   ar
    27     7     2    1
    28    17    11   ar
@<TRIPOS>MOLECULE
*****
 26 28 0 0 0
SMALL
GASTEIGER

@<TRIPOS>ATOM
      1 C           7.3397   -4.8346   26.0507 C.2     1  UNL1        0.0412
      2 C           7.0711   -4.2116   27.3885 C.2     1  UNL1       -0.0331
      3 C           6.0416   -3.1283   27.5182 C.3     1  UNL1        0.0418
      4 C           5.7730   -2.5053   28.8559 C.3     1  UNL1        0.1002
      5 N           6.5338   -2.9655   30.0641 N.3     1  UNL1       -0.1549
      6 C           7.5632   -4.0488   29.9343 C.3     1  UNL1        0.1002
      7 C           7.8318   -4.6718   28.5965 C.3     1  UNL1        0.0418
      8 S           6.2651   -2.3425   31.4018 S.O2    1  UNL1        0.0633
      9 O           5.8532   -1.0685   30.7257 O.2     1  UNL1       -0.1528
     10 O           6.6771   -3.6165   32.0779 O.2     1  UNL1       -0.1528
     11 C           5.9965   -1.7194   32.7395 C.ar    1  UNL1        0.1227
     12 C           4.6635   -1.9085   33.4009 C.ar    1  UNL1        0.0199
     13 C           4.3949   -1.2854   34.7387 C.ar    1  UNL1        0.0019
     14 C           5.4592   -0.4733   35.4151 C.ar    1  UNL1        0.0068
     15 C           6.7922   -0.2842   34.7538 C.ar    1  UNL1        0.0359
     16 BR          7.8566    0.5279   35.4303 Br      1  UNL1       -0.0490
     17 C           7.0609   -0.9073   33.4160 C.ar    1  UNL1        0.0266
     18 C           5.8181   -3.9143   23.6346 C.1     1  UNL1       -0.0405
     19 C           6.5789   -4.3744   24.8426 C.1     1  UNL1       -0.0583
     20 C           4.2869   -4.6637   18.7260 C.3     1  UNL1        0.0521
     21 C           4.2917   -3.8288   19.9722 C.ar    1  UNL1        0.0600
     22 C           3.5358   -2.5338   20.0103 C.ar    1  UNL1        0.0148
     23 C           3.5406   -1.6990   21.2565 C.ar    1  UNL1        0.0034
     24 C           4.3014   -2.1591   22.4646 C.ar    1  UNL1        0.0276
     25 C           5.0573   -3.4541   22.4265 C.ar    1  UNL1        0.1224
     26 N           5.0525   -4.2889   21.1803 N.ar    1  UNL1       -0.2414
@<TRIPOS>BOND
     1    20    21    1
     2    21    22   ar
     3    22    23   ar
     4    23    24   ar
     5    24    25   ar
     6    25    18    1
     7    18    19    3
     8    19     1    1
     9     1     2    2
    10     2     3    1
    11     3     4    1
    12     4     5    1
    13     5     8    1
    14     8     9    2
    15     8    10    2
    16     8    11    1
    17    11    12   ar
    18    12    13   ar
    19    13    14   ar
    20    14    15   ar
    21    15    16    1
    22    15    17   ar
    23     5     6    1
    24     6     7    1
    25    25    26   ar
    26    26    21   ar
    27     7     2    1
    28    17    11   ar
@<TRIPOS>MOLECULE
*****
 26 28 0 0 0
SMALL
GASTEIGER

@<TRIPOS>ATOM
      1 C          -1.1513    3.5770   19.3797 C.2     1  UNL1        0.0412
      2 C          -0.1476    2.4638   19.4364 C.2     1  UNL1       -0.0331
      3 C          -0.1511    1.5089   20.5932 C.3     1  UNL1        0.0418
      4 C           0.8526    0.3957   20.6498 C.3     1  UNL1        0.1002
      5 N           1.8599    0.2373   19.5496 N.3     1  UNL1       -0.1549
      6 C           1.8634    1.1921   18.3928 C.3     1  UNL1        0.1002
      7 C           0.8596    2.3054   18.3362 C.3     1  UNL1        0.0418
      8 S           2.8636   -0.8759   19.6063 S.O2    1  UNL1        0.0633
      9 O           2.4525   -1.1748   21.0175 O.2     1  UNL1       -0.1528
     10 O           3.2747   -0.5771   18.1951 O.2     1  UNL1       -0.1528
     11 C           3.8673   -1.9892   19.6629 C.ar    1  UNL1        0.1227
     12 C           3.4511   -3.3918   19.3323 C.ar    1  UNL1        0.0199
     13 C           4.4549   -4.5051   19.3890 C.ar    1  UNL1        0.0019
     14 C           5.8748   -4.2156   19.7763 C.ar    1  UNL1        0.0068
     15 C           6.2910   -2.8130   20.1069 C.ar    1  UNL1        0.0359
     16 BR          7.7110   -2.5236   20.4942 Br      1  UNL1       -0.0490
     17 C           5.2873   -1.6998   20.0502 C.ar    1  UNL1        0.0266
     18 C          -3.1658    3.8938   21.5801 C.1     1  UNL1       -0.0405
     19 C          -2.1586    3.7354   20.4799 C.1     1  UNL1       -0.0583
     20 C          -4.3015    4.0958   26.6466 C.3     1  UNL1        0.0521
     21 C          -4.7409    4.1532   25.2135 C.ar    1  UNL1        0.0600
     22 C          -6.1874    4.3690   24.8806 C.ar    1  UNL1        0.0148
     23 C          -6.6268    4.4264   23.4476 C.ar    1  UNL1        0.0034
     24 C          -5.6196    4.2680   22.3474 C.ar    1  UNL1        0.0276
     25 C          -4.1731    4.0522   22.6803 C.ar    1  UNL1        0.1224
     26 N          -3.7337    3.9948   24.1133 N.ar    1  UNL1       -0.2414
@<TRIPOS>BOND
     1    20    21    1
     2    21    22   ar
     3    22    23   ar
     4    23    24   ar
     5    24    25   ar
     6    25    18    1
     7    18    19    3
     8    19     1    1
     9     1     2    2
    10     2     3    1
    11     3     4    1
    12     4     5    1
    13     5     8    1
    14     8     9    2
    15     8    10    2
    16     8    11    1
    17    11    12   ar
    18    12    13   ar
    19    13    14   ar
    20    14    15   ar
    21    15    16    1
    22    15    17   ar
    23     5     6    1
    24     6     7    1
    25    25    26   ar
    26    26    21   ar
    27     7     2    1
    28    17    11   ar
@<TRIPOS>MOLECULE
*****
 26 28 0 0 0
SMALL
GASTEIGER

@<TRIPOS>ATOM
      1 C           7.0818   -5.4158   29.4483 C.2     1  UNL1        0.0412
      2 C           6.9348   -5.0563   27.9995 C.2     1  UNL1       -0.0331
      3 C           6.4506   -3.6908   27.6110 C.3     1  UNL1        0.0418
      4 C           6.3035   -3.3313   26.1622 C.3     1  UNL1        0.1002
      5 N           6.6406   -4.3373   25.1019 N.3     1  UNL1       -0.1549
      6 C           7.1248   -5.7028   25.4904 C.3     1  UNL1        0.1002
      7 C           7.2719   -6.0623   26.9392 C.3     1  UNL1        0.0418
      8 S           6.4935   -3.9778   23.6531 S.O2    1  UNL1        0.0633
      9 O           5.6688   -2.7839   24.0330 O.2     1  UNL1       -0.1528
     10 O           7.3183   -5.1716   23.2731 O.2     1  UNL1       -0.1528
     11 C           6.3464   -3.6183   22.2043 C.ar    1  UNL1        0.1227
     12 C           7.4748   -2.9456   21.4801 C.ar    1  UNL1        0.0199
     13 C           7.3276   -2.5861   20.0312 C.ar    1  UNL1        0.0019
     14 C           6.0522   -2.8992   19.3066 C.ar    1  UNL1        0.0068
     15 C           4.9239   -3.5719   20.0307 C.ar    1  UNL1        0.0359
     16 BR          3.6484   -3.8851   19.3060 Br      1  UNL1       -0.0490
     17 C           5.0710   -3.9314   21.4795 C.ar    1  UNL1        0.0266
     18 C           6.4076   -3.4038   31.5690 C.1     1  UNL1       -0.0405
     19 C           6.7447   -4.4098   30.5087 C.1     1  UNL1       -0.0583
     20 C           7.8332    0.5118   34.6732 C.3     1  UNL1        0.0521
     21 C           6.7833   -0.4400   34.1815 C.ar    1  UNL1        0.0600
     22 C           5.3964   -0.3858   34.7501 C.ar    1  UNL1        0.0148
     23 C           4.3465   -1.3376   34.2584 C.ar    1  UNL1        0.0034
     24 C           4.6835   -2.3436   33.1980 C.ar    1  UNL1        0.0276
     25 C           6.0705   -2.3978   32.6294 C.ar    1  UNL1        0.1224
     26 N           7.1204   -1.4460   33.1211 N.ar    1  UNL1       -0.2414
@<TRIPOS>BOND
     1    20    21    1
     2    21    22   ar
     3    22    23   ar
     4    23    24   ar
     5    24    25   ar
     6    25    18    1
     7    18    19    3
     8    19     1    1
     9     1     2    2
    10     2     3    1
    11     3     4    1
    12     4     5    1
    13     5     8    1
    14     8     9    2
    15     8    10    2
    16     8    11    1
    17    11    12   ar
    18    12    13   ar
    19    13    14   ar
    20    14    15   ar
    21    15    16    1
    22    15    17   ar
    23     5     6    1
    24     6     7    1
    25    25    26   ar
    26    26    21   ar
    27     7     2    1
    28    17    11   ar
@<TRIPOS>MOLECULE
*****
 26 28 0 0 0
SMALL
GASTEIGER

@<TRIPOS>ATOM
      1 C           2.0290    2.9938   18.3645 C.2     1  UNL1        0.0412
      2 C           0.8250    3.1988   19.2353 C.2     1  UNL1       -0.0331
      3 C           0.3567    2.0969   20.1390 C.3     1  UNL1        0.0418
      4 C          -0.8473    2.3019   21.0098 C.3     1  UNL1        0.1002
      5 N          -1.5830    3.6087   20.9770 N.3     1  UNL1       -0.1549
      6 C          -1.1147    4.7105   20.0733 C.3     1  UNL1        0.1002
      7 C           0.0894    4.5055   19.2025 C.3     1  UNL1        0.0418
      8 S          -2.7870    3.8137   21.8478 S.O2    1  UNL1        0.0633
      9 O          -3.5638    2.8498   21.0007 O.2     1  UNL1       -0.1528
     10 O          -2.0103    4.7775   22.6949 O.2     1  UNL1       -0.1528
     11 C          -3.9910    4.0186   22.7186 C.ar    1  UNL1        0.1227
     12 C          -5.3666    3.9526   22.1241 C.ar    1  UNL1        0.0199
     13 C          -6.5706    4.1575   22.9950 C.ar    1  UNL1        0.0019
     14 C          -6.3990    4.4285   24.4603 C.ar    1  UNL1        0.0068
     15 C          -5.0235    4.4946   25.0548 C.ar    1  UNL1        0.0359
     16 BR         -4.8519    4.7656   26.5201 Br      1  UNL1       -0.0490
     17 C          -3.8195    4.2896   24.1840 C.ar    1  UNL1        0.0266
     18 C           3.5004    0.3802   18.4302 C.1     1  UNL1       -0.0405
     19 C           2.7647    1.6870   18.3974 C.1     1  UNL1       -0.0583
     20 C           3.5596   -4.7279   19.3810 C.3     1  UNL1        0.0521
     21 C           4.2657   -3.4806   18.9385 C.ar    1  UNL1        0.0600
     22 C           5.7074   -3.5402   18.5288 C.ar    1  UNL1        0.0148
     23 C           6.4134   -2.2929   18.0863 C.ar    1  UNL1        0.0034
     24 C           5.6778   -0.9861   18.0534 C.ar    1  UNL1        0.0276
     25 C           4.2361   -0.9266   18.4631 C.ar    1  UNL1        0.1224
     26 N           3.5300   -2.1739   18.9056 N.ar    1  UNL1       -0.2414
@<TRIPOS>BOND
     1    20    21    1
     2    21    22   ar
     3    22    23   ar
     4    23    24   ar
     5    24    25   ar
     6    25    18    1
     7    18    19    3
     8    19     1    1
     9     1     2    2
    10     2     3    1
    11     3     4    1
    12     4     5    1
    13     5     8    1
    14     8     9    2
    15     8    10    2
    16     8    11    1
    17    11    12   ar
    18    12    13   ar
    19    13    14   ar
    20    14    15   ar
    21    15    16    1
    22    15    17   ar
    23     5     6    1
    24     6     7    1
    25    25    26   ar
    26    26    21   ar
    27     7     2    1
    28    17    11   ar
@<TRIPOS>MOLECULE
*****
 26 28 0 0 0
SMALL
GASTEIGER

@<TRIPOS>ATOM
      1 C           1.6041   -0.5271   19.5113 C.2     1  UNL1        0.0412
      2 C           2.5643   -1.2190   20.4328 C.2     1  UNL1       -0.0331
      3 C           2.6635   -0.7953   21.8683 C.3     1  UNL1        0.0418
      4 C           3.6237   -1.4872   22.7899 C.3     1  UNL1        0.1002
      5 N           4.4848   -2.6028   22.2759 N.3     1  UNL1       -0.1549
      6 C           4.3856   -3.0264   20.8404 C.3     1  UNL1        0.1002
      7 C           3.4253   -2.3345   19.9188 C.3     1  UNL1        0.0418
      8 S           5.4449   -3.2947   23.1975 S.O2    1  UNL1        0.0633
      9 O           5.0882   -2.3325   24.2915 O.2     1  UNL1       -0.1528
     10 O           5.8017   -4.2568   22.1034 O.2     1  UNL1       -0.1528
     11 C           6.4051   -3.9865   24.1190 C.ar    1  UNL1        0.1227
     12 C           6.5406   -3.5300   25.5414 C.ar    1  UNL1        0.0199
     13 C           7.5008   -4.2220   26.4630 C.ar    1  UNL1        0.0019
     14 C           8.3256   -5.3704   25.9621 C.ar    1  UNL1        0.0068
     15 C           8.1902   -5.8269   24.5397 C.ar    1  UNL1        0.0359
     16 BR          9.0150   -6.9753   24.0389 Br      1  UNL1       -0.0490
     17 C           7.2300   -5.1350   23.6182 C.ar    1  UNL1        0.0266
     18 C          -0.1180    1.7040   20.5392 C.1     1  UNL1       -0.0405
     19 C           0.7430    0.5885   20.0252 C.1     1  UNL1       -0.0583
     20 C          -4.8148    3.8283   21.1929 C.3     1  UNL1        0.0521
     21 C          -3.3275    3.8817   21.3800 C.ar    1  UNL1        0.0600
     22 C          -2.7013    5.0506   22.0809 C.ar    1  UNL1        0.0148
     23 C          -1.2139    5.1040   22.2680 C.ar    1  UNL1        0.0034
     24 C          -0.3528    3.9885   21.7541 C.ar    1  UNL1        0.0276
     25 C          -0.9791    2.8196   21.0531 C.ar    1  UNL1        0.1224
     26 N          -2.4664    2.7662   20.8661 N.ar    1  UNL1       -0.2414
@<TRIPOS>BOND
     1    20    21    1
     2    21    22   ar
     3    22    23   ar
     4    23    24   ar
     5    24    25   ar
     6    25    18    1
     7    18    19    3
     8    19     1    1
     9     1     2    2
    10     2     3    1
    11     3     4    1
    12     4     5    1
    13     5     8    1
    14     8     9    2
    15     8    10    2
    16     8    11    1
    17    11    12   ar
    18    12    13   ar
    19    13    14   ar
    20    14    15   ar
    21    15    16    1
    22    15    17   ar
    23     5     6    1
    24     6     7    1
    25    25    26   ar
    26    26    21   ar
    27     7     2    1
    28    17    11   ar
@<TRIPOS>MOLECULE
*****
 26 28 0 0 0
SMALL
GASTEIGER

@<TRIPOS>ATOM
      1 C           0.1599    1.8932   26.4461 C.2     1  UNL1        0.0412
      2 C           0.8150    1.3278   25.2210 C.2     1  UNL1       -0.0331
      3 C           0.1661    1.4943   23.8789 C.3     1  UNL1        0.0418
      4 C           0.8212    0.9289   22.6537 C.3     1  UNL1        0.1002
      5 N           2.1254    0.1970   22.7706 N.3     1  UNL1       -0.1549
      6 C           2.7744    0.0306   24.1127 C.3     1  UNL1        0.1002
      7 C           2.1191    0.5960   25.3379 C.3     1  UNL1        0.0418
      8 S           2.7806   -0.3684   21.5454 S.O2    1  UNL1        0.0633
      9 O           1.9006    0.4851   20.6810 O.2     1  UNL1       -0.1528
     10 O           3.6605   -1.2219   22.4098 O.2     1  UNL1       -0.1528
     11 C           3.4357   -0.9338   20.3203 C.ar    1  UNL1        0.1227
     12 C           3.8389   -0.0241   19.1978 C.ar    1  UNL1        0.0199
     13 C           4.4941   -0.5895   17.9726 C.ar    1  UNL1        0.0019
     14 C           4.7461   -2.0646   17.8699 C.ar    1  UNL1        0.0068
     15 C           4.3429   -2.9743   18.9924 C.ar    1  UNL1        0.0359
     16 BR          4.5949   -4.4495   18.8896 Br      1  UNL1       -0.0490
     17 C           3.6877   -2.4089   20.2175 C.ar    1  UNL1        0.0266
     18 C          -2.4484    3.3569   26.2124 C.1     1  UNL1       -0.0405
     19 C          -1.1443    2.6251   26.3292 C.1     1  UNL1       -0.0583
     20 C          -5.7596    6.9590   27.9619 C.3     1  UNL1        0.0521
     21 C          -5.4081    5.8898   26.9703 C.ar    1  UNL1        0.0600
     22 C          -6.3608    5.5525   25.8619 C.ar    1  UNL1        0.0148
     23 C          -6.0093    4.4833   24.8703 C.ar    1  UNL1        0.0034
     24 C          -4.7052    3.7514   24.9871 C.ar    1  UNL1        0.0276
     25 C          -3.7526    4.0888   26.0955 C.ar    1  UNL1        0.1224
     26 N          -4.1040    5.1580   27.0871 N.ar    1  UNL1       -0.2414
@<TRIPOS>BOND
     1    20    21    1
     2    21    22   ar
     3    22    23   ar
     4    23    24   ar
     5    24    25   ar
     6    25    18    1
     7    18    19    3
     8    19     1    1
     9     1     2    2
    10     2     3    1
    11     3     4    1
    12     4     5    1
    13     5     8    1
    14     8     9    2
    15     8    10    2
    16     8    11    1
    17    11    12   ar
    18    12    13   ar
    19    13    14   ar
    20    14    15   ar
    21    15    16    1
    22    15    17   ar
    23     5     6    1
    24     6     7    1
    25    25    26   ar
    26    26    21   ar
    27     7     2    1
    28    17    11   ar
@<TRIPOS>MOLECULE
*****
 26 28 0 0 0
SMALL
GASTEIGER

@<TRIPOS>ATOM
      1 C           0.5329    1.2894   22.3581 C.2     1  UNL1        0.0412
      2 C           0.7406    1.3492   23.8424 C.2     1  UNL1       -0.0331
      3 C           1.8912    0.6187   24.4689 C.3     1  UNL1        0.0418
      4 C           2.0989    0.6786   25.9532 C.3     1  UNL1        0.1002
      5 N           1.1559    1.4690   26.8112 N.3     1  UNL1       -0.1549
      6 C           0.0052    2.1995   26.1847 C.3     1  UNL1        0.1002
      7 C          -0.2024    2.1396   24.7003 C.3     1  UNL1        0.0418
      8 S           1.3635    1.5288   28.2955 S.O2    1  UNL1        0.0633
      9 O           2.3310    0.3861   28.2062 O.2     1  UNL1       -0.1528
     10 O           0.3960    2.6716   28.3848 O.2     1  UNL1       -0.1528
     11 C           1.5711    1.5887   29.7798 C.ar    1  UNL1        0.1227
     12 C           0.7721    2.5483   30.6108 C.ar    1  UNL1        0.0199
     13 C           0.9798    2.6081   32.0952 C.ar    1  UNL1        0.0019
     14 C           1.9865    1.7084   32.7485 C.ar    1  UNL1        0.0068
     15 C           2.7856    0.7487   31.9175 C.ar    1  UNL1        0.0359
     16 BR          3.7923   -0.1511   32.5709 Br      1  UNL1       -0.0490
     17 C           2.5779    0.6889   30.4332 C.ar    1  UNL1        0.0266
     18 C           2.4189   -0.2914   20.6421 C.1     1  UNL1       -0.0405
     19 C           1.4760    0.4990   21.5001 C.1     1  UNL1       -0.0583
     20 C           4.2189   -4.8706   18.9716 C.3     1  UNL1        0.0521
     21 C           4.2619   -3.3714   18.9489 C.ar    1  UNL1        0.0600
     22 C           5.2478   -2.6625   18.0683 C.ar    1  UNL1        0.0148
     23 C           5.2908   -1.1633   18.0456 C.ar    1  UNL1        0.0034
     24 C           4.3478   -0.3729   18.9035 C.ar    1  UNL1        0.0276
     25 C           3.3619   -1.0818   19.7841 C.ar    1  UNL1        0.1224
     26 N           3.3190   -2.5810   19.8068 N.ar    1  UNL1       -0.2414
@<TRIPOS>BOND
     1    20    21    1
     2    21    22   ar
     3    22    23   ar
     4    23    24   ar
     5    24    25   ar
     6    25    18    1
     7    18    19    3
     8    19     1    1
     9     1     2    2
    10     2     3    1
    11     3     4    1
    12     4     5    1
    13     5     8    1
    14     8     9    2
    15     8    10    2
    16     8    11    1
    17    11    12   ar
    18    12    13   ar
    19    13    14   ar
    20    14    15   ar
    21    15    16    1
    22    15    17   ar
    23     5     6    1
    24     6     7    1
    25    25    26   ar
    26    26    21   ar
    27     7     2    1
    28    17    11   ar
@<TRIPOS>MOLECULE
*****
 26 28 0 0 0
SMALL
GASTEIGER

@<TRIPOS>ATOM
      1 C           3.8263   -1.0355   18.1536 C.2     1  UNL1        0.0412
      2 C           4.4658   -1.7654   19.2974 C.2     1  UNL1       -0.0331
      3 C           4.0006   -1.5146   20.7012 C.3     1  UNL1        0.0418
      4 C           4.6401   -2.2444   21.8450 C.3     1  UNL1        0.1002
      5 N           5.7450   -3.2252   21.5850 N.3     1  UNL1       -0.1549
      6 C           6.2102   -3.4760   20.1812 C.3     1  UNL1        0.1002
      7 C           5.5706   -2.7461   19.0374 C.3     1  UNL1        0.0418
      8 S           6.3845   -3.9550   22.7288 S.O2    1  UNL1        0.0633
      9 O           7.1098   -4.8397   21.7587 O.2     1  UNL1       -0.1528
     10 O           5.6592   -3.0703   23.6989 O.2     1  UNL1       -0.1528
     11 C           7.0240   -4.6849   23.8725 C.ar    1  UNL1        0.1227
     12 C           6.7279   -4.2734   25.2843 C.ar    1  UNL1        0.0199
     13 C           7.3675   -5.0033   26.4281 C.ar    1  UNL1        0.0019
     14 C           8.3031   -6.1447   26.1601 C.ar    1  UNL1        0.0068
     15 C           8.5992   -6.5562   24.7484 C.ar    1  UNL1        0.0359
     16 BR          9.5349   -7.6976   24.4805 Br      1  UNL1       -0.0490
     17 C           7.9597   -5.8263   23.6046 C.ar    1  UNL1        0.0266
     18 C           1.6167    0.9259   18.6735 C.1     1  UNL1       -0.0405
     19 C           2.7215   -0.0548   18.4136 C.1     1  UNL1       -0.0583
     20 C          -1.3772    4.8600   17.0736 C.3     1  UNL1        0.0521
     21 C          -0.9851    3.8737   18.1335 C.ar    1  UNL1        0.0600
     22 C          -1.6977    3.8681   19.4534 C.ar    1  UNL1        0.0148
     23 C          -1.3056    2.8818   20.5133 C.ar    1  UNL1        0.0034
     24 C          -0.2008    1.9011   20.2534 C.ar    1  UNL1        0.0276
     25 C           0.5118    1.9067   18.9335 C.ar    1  UNL1        0.1224
     26 N           0.1197    2.8930   17.8736 N.ar    1  UNL1       -0.2414
@<TRIPOS>BOND
     1    20    21    1
     2    21    22   ar
     3    22    23   ar
     4    23    24   ar
     5    24    25   ar
     6    25    18    1
     7    18    19    3
     8    19     1    1
     9     1     2    2
    10     2     3    1
    11     3     4    1
    12     4     5    1
    13     5     8    1
    14     8     9    2
    15     8    10    2
    16     8    11    1
    17    11    12   ar
    18    12    13   ar
    19    13    14   ar
    20    14    15   ar
    21    15    16    1
    22    15    17   ar
    23     5     6    1
    24     6     7    1
    25    25    26   ar
    26    26    21   ar
    27     7     2    1
    28    17    11   ar
