@<TRIPOS>MOLECULE
*****
 30 32 0 0 0
SMALL
GASTEIGER

@<TRIPOS>ATOM
      1 N          -8.1884  -17.2420   22.6416 N.pl3   1  UNL1       -0.3035
      2 C          -4.2516  -20.1906   20.7214 C.2     1  UNL1        0.2257
      3 O          -4.0601  -21.2528   19.6798 O.2     1  UNL1       -0.2749
      4 N          -5.6106  -19.5971   20.9463 N.am    1  UNL1       -0.2778
      5 C          -6.8654  -19.9632   20.2105 C.3     1  UNL1        0.0952
      6 C          -7.9838  -19.1255   20.7560 C.3     1  UNL1        0.0430
      7 C          -7.4201  -18.2417   21.8289 C.3     1  UNL1        0.0946
      8 C          -5.9535  -18.5331   21.9465 C.3     1  UNL1        0.1131
      9 C          -2.0996  -18.7534   20.9527 C.3     1  UNL1        0.0101
     10 C          -3.0839  -19.7220   21.5381 C.3     1  UNL1        0.0853
     11 C          -9.6041  -17.5318   23.0441 C.ar    1  UNL1        0.0490
     12 C          -9.8955  -18.6298   24.0235 C.ar    1  UNL1        0.0153
     13 C         -11.3111  -18.9196   24.4260 C.ar    1  UNL1        0.0124
     14 C         -12.4353  -18.1113   23.8491 C.ar    1  UNL1        0.0791
     15 C         -12.1439  -17.0132   22.8696 C.ar    1  UNL1        0.0685
     16 CL        -13.2681  -16.2049   22.2927 Cl      1  UNL1       -0.0815
     17 C         -10.7283  -16.7234   22.4671 C.ar    1  UNL1        0.0266
     18 C         -13.8510  -18.4011   24.2516 C.1     1  UNL1        0.1013
     19 N         -15.2666  -18.6909   24.6541 N.1     1  UNL1       -0.1908
     20 C          -7.5411  -15.9525   23.0517 C.3     1  UNL1        0.1177
     21 C          -7.1957  -15.7113   24.4913 C.ar    1  UNL1        0.0015
     22 C          -8.2863  -15.4965   25.4984 C.ar    1  UNL1       -0.0027
     23 C          -7.9409  -15.2553   26.9380 C.ar    1  UNL1       -0.0003
     24 C          -6.5048  -15.2289   27.3705 C.ar    1  UNL1       -0.0001
     25 C          -5.4141  -15.4438   26.3634 C.ar    1  UNL1        0.0036
     26 C          -5.7595  -15.6850   24.9238 C.ar    1  UNL1        0.0691
     27 C          -4.6689  -15.8999   23.9166 C.3     1  UNL1        0.4183
     28 F          -3.5783  -16.1148   22.9095 F       1  UNL1       -0.1659
     29 F          -4.9781  -14.5689   23.2979 F       1  UNL1       -0.1659
     30 F          -4.3598  -17.2309   24.5354 F       1  UNL1       -0.1659
@<TRIPOS>BOND
     1     9    10    1
     2    10     2    1
     3     2     3    2
     4     2     4   am
     5     4     5    1
     6     5     6    1
     7     6     7    1
     8     7     1    1
     9     1    20    1
    10    20    21    1
    11    21    22   ar
    12    22    23   ar
    13    23    24   ar
    14    24    25   ar
    15    25    26   ar
    16    26    27    1
    17    27    28    1
    18    27    29    1
    19    27    30    1
    20     1    11    1
    21    11    12   ar
    22    12    13   ar
    23    13    14   ar
    24    14    18    1
    25    18    19    3
    26    14    15   ar
    27    15    16    1
    28    15    17   ar
    29     7     8    1
    30     8     4    1
    31    26    21   ar
    32    17    11   ar
@<TRIPOS>MOLECULE
*****
 30 32 0 0 0
SMALL
GASTEIGER

@<TRIPOS>ATOM
      1 N          -7.9996  -18.8752   21.7821 N.pl3   1  UNL1       -0.3035
      2 C          -2.7578  -19.4355   21.4818 C.2     1  UNL1        0.2257
      3 O          -1.7683  -20.2888   20.7452 O.2     1  UNL1       -0.2749
      4 N          -4.2280  -19.6236   21.2520 N.am    1  UNL1       -0.2778
      5 C          -4.8546  -20.6193   20.3214 C.3     1  UNL1        0.0952
      6 C          -6.3438  -20.4601   20.4067 C.3     1  UNL1        0.0430
      7 C          -6.6374  -19.3661   21.3900 C.3     1  UNL1        0.0946
      8 C          -5.3298  -18.8491   21.9125 C.3     1  UNL1        0.1131
      9 C          -2.1692  -16.9619   22.0157 C.3     1  UNL1        0.0101
     10 C          -2.2768  -18.3940   22.4483 C.3     1  UNL1        0.0853
     11 C          -8.1663  -18.0229   23.0051 C.ar    1  UNL1        0.0490
     12 C          -8.8049  -18.5945   24.2362 C.ar    1  UNL1        0.0153
     13 C          -8.9717  -17.7422   25.4592 C.ar    1  UNL1        0.0124
     14 C          -8.4999  -16.3184   25.4512 C.ar    1  UNL1        0.0791
     15 C          -7.8612  -15.7468   24.2201 C.ar    1  UNL1        0.0685
     16 CL         -7.3894  -14.3230   24.2121 Cl      1  UNL1       -0.0815
     17 C          -7.6945  -16.5991   22.9971 C.ar    1  UNL1        0.0266
     18 C          -8.6666  -15.4662   26.6743 C.1     1  UNL1        0.1013
     19 N          -8.8334  -14.6139   27.8973 N.1     1  UNL1       -0.1908
     20 C          -9.1949  -19.2366   20.9511 C.3     1  UNL1        0.1177
     21 C         -10.3722  -18.3094   20.8876 C.ar    1  UNL1        0.0015
     22 C         -10.4039  -17.2059   19.8721 C.ar    1  UNL1       -0.0027
     23 C         -11.5812  -16.2786   19.8085 C.ar    1  UNL1       -0.0003
     24 C         -12.7269  -16.4549   20.7604 C.ar    1  UNL1       -0.0001
     25 C         -12.6954  -17.5584   21.7760 C.ar    1  UNL1        0.0036
     26 C         -11.5180  -18.4857   21.8395 C.ar    1  UNL1        0.0691
     27 C         -11.4864  -19.5892   22.8550 C.3     1  UNL1        0.4183
     28 F         -11.4547  -20.6927   23.8705 F       1  UNL1       -0.1659
     29 F         -11.2041  -20.5824   21.7669 F       1  UNL1       -0.1659
     30 F         -11.7686  -18.5960   23.9431 F       1  UNL1       -0.1659
@<TRIPOS>BOND
     1     9    10    1
     2    10     2    1
     3     2     3    2
     4     2     4   am
     5     4     5    1
     6     5     6    1
     7     6     7    1
     8     7     1    1
     9     1    20    1
    10    20    21    1
    11    21    22   ar
    12    22    23   ar
    13    23    24   ar
    14    24    25   ar
    15    25    26   ar
    16    26    27    1
    17    27    28    1
    18    27    29    1
    19    27    30    1
    20     1    11    1
    21    11    12   ar
    22    12    13   ar
    23    13    14   ar
    24    14    18    1
    25    18    19    3
    26    14    15   ar
    27    15    16    1
    28    15    17   ar
    29     7     8    1
    30     8     4    1
    31    26    21   ar
    32    17    11   ar
@<TRIPOS>MOLECULE
*****
 30 32 0 0 0
SMALL
GASTEIGER

@<TRIPOS>ATOM
      1 N          -8.1278  -18.1778   22.1064 N.pl3   1  UNL1       -0.3035
      2 C          -2.9901  -19.2981   21.6275 C.2     1  UNL1        0.2257
      3 O          -2.1263  -20.2721   20.8825 O.2     1  UNL1       -0.2749
      4 N          -4.4801  -19.3360   21.4595 N.am    1  UNL1       -0.2778
      5 C          -5.2450  -20.2859   20.5861 C.3     1  UNL1        0.0952
      6 C          -6.7046  -19.9677   20.7222 C.3     1  UNL1        0.0430
      7 C          -6.8417  -18.8211   21.6796 C.3     1  UNL1        0.0946
      8 C          -5.4669  -18.4307   22.1353 C.3     1  UNL1        0.1131
      9 C          -2.1555  -16.8777   22.0691 C.3     1  UNL1        0.0101
     10 C          -2.3638  -18.2862   22.5407 C.3     1  UNL1        0.0853
     11 C          -8.1745  -17.3527   23.3582 C.ar    1  UNL1        0.0490
     12 C          -7.6793  -15.9369   23.3421 C.ar    1  UNL1        0.0153
     13 C          -7.7259  -15.1117   24.5938 C.ar    1  UNL1        0.0124
     14 C          -8.2677  -15.7023   25.8617 C.ar    1  UNL1        0.0791
     15 C          -8.7629  -17.1182   25.8779 C.ar    1  UNL1        0.0685
     16 CL         -9.3048  -17.7088   27.1457 Cl      1  UNL1       -0.0815
     17 C          -8.7163  -17.9433   24.6261 C.ar    1  UNL1        0.0266
     18 C          -8.3143  -14.8772   27.1135 C.1     1  UNL1        0.1013
     19 N          -8.3609  -14.0520   28.3652 N.1     1  UNL1       -0.1908
     20 C          -9.3673  -18.3597   21.2814 C.3     1  UNL1        0.1177
     21 C         -10.7163  -18.1183   21.8913 C.ar    1  UNL1        0.0015
     22 C         -11.1908  -18.9767   23.0262 C.ar    1  UNL1       -0.0027
     23 C         -12.5398  -18.7352   23.6360 C.ar    1  UNL1       -0.0003
     24 C         -13.4143  -17.6355   23.1110 C.ar    1  UNL1       -0.0001
     25 C         -12.9398  -16.7771   21.9760 C.ar    1  UNL1        0.0036
     26 C         -11.5908  -17.0185   21.3662 C.ar    1  UNL1        0.0691
     27 C         -11.1163  -16.1601   20.2313 C.3     1  UNL1        0.4183
     28 F         -10.6418  -15.3018   19.0963 F       1  UNL1       -0.1659
     29 F         -11.8100  -17.0652   19.2567 F       1  UNL1       -0.1659
     30 F         -10.4226  -15.2551   21.2058 F       1  UNL1       -0.1659
@<TRIPOS>BOND
     1     9    10    1
     2    10     2    1
     3     2     3    2
     4     2     4   am
     5     4     5    1
     6     5     6    1
     7     6     7    1
     8     7     1    1
     9     1    20    1
    10    20    21    1
    11    21    22   ar
    12    22    23   ar
    13    23    24   ar
    14    24    25   ar
    15    25    26   ar
    16    26    27    1
    17    27    28    1
    18    27    29    1
    19    27    30    1
    20     1    11    1
    21    11    12   ar
    22    12    13   ar
    23    13    14   ar
    24    14    18    1
    25    18    19    3
    26    14    15   ar
    27    15    16    1
    28    15    17   ar
    29     7     8    1
    30     8     4    1
    31    26    21   ar
    32    17    11   ar
@<TRIPOS>MOLECULE
*****
 30 32 0 0 0
SMALL
GASTEIGER

@<TRIPOS>ATOM
      1 N         -13.6251   -4.5412   18.7786 N.pl3   1  UNL1       -0.3035
      2 C         -16.5389   -0.1465   19.0545 C.2     1  UNL1        0.2257
      3 O         -17.2158    0.8033   18.1113 O.2     1  UNL1       -0.2749
      4 N         -15.7802   -1.3236   18.5175 N.am    1  UNL1       -0.2778
      5 C         -15.6122   -1.6782   17.0696 C.3     1  UNL1        0.0952
      6 C         -14.7844   -2.9268   16.9913 C.3     1  UNL1        0.0430
      7 C         -14.4409   -3.3437   18.3906 C.3     1  UNL1        0.0946
      8 C         -15.0563   -2.3529   19.3338 C.3     1  UNL1        0.1131
      9 C         -17.1168    1.3933   21.0658 C.3     1  UNL1        0.0101
     10 C         -16.6207    0.0811   20.5349 C.3     1  UNL1        0.0853
     11 C         -14.2470   -5.9062   18.7727 C.ar    1  UNL1        0.0490
     12 C         -13.5115   -7.0629   18.1635 C.ar    1  UNL1        0.0153
     13 C         -14.1334   -8.4279   18.1577 C.ar    1  UNL1        0.0124
     14 C         -15.4908   -8.6362   18.7610 C.ar    1  UNL1        0.0791
     15 C         -16.2264   -7.4795   19.3702 C.ar    1  UNL1        0.0685
     16 CL        -17.5838   -7.6878   19.9735 Cl      1  UNL1       -0.0815
     17 C         -15.6045   -6.1145   19.3761 C.ar    1  UNL1        0.0266
     18 C         -16.1127  -10.0012   18.7551 C.1     1  UNL1        0.1013
     19 N         -16.7346  -11.3662   18.7492 N.1     1  UNL1       -0.1908
     20 C         -12.1874   -4.3738   19.1724 C.3     1  UNL1        0.1177
     21 C         -11.1650   -4.0034   18.1392 C.ar    1  UNL1        0.0015
     22 C         -11.2749   -2.6973   17.4099 C.ar    1  UNL1       -0.0027
     23 C         -10.2524   -2.3269   16.3767 C.ar    1  UNL1       -0.0003
     24 C          -9.1202   -3.2626   16.0729 C.ar    1  UNL1       -0.0001
     25 C          -9.0103   -4.5688   16.8023 C.ar    1  UNL1        0.0036
     26 C         -10.0327   -4.9392   17.8355 C.ar    1  UNL1        0.0691
     27 C          -9.9228   -6.2453   18.5648 C.3     1  UNL1        0.4183
     28 F          -9.8130   -7.5513   19.2942 F       1  UNL1       -0.1659
     29 F         -10.5485   -6.9497   17.3977 F       1  UNL1       -0.1659
     30 F          -9.2972   -5.5408   19.7320 F       1  UNL1       -0.1659
@<TRIPOS>BOND
     1     9    10    1
     2    10     2    1
     3     2     3    2
     4     2     4   am
     5     4     5    1
     6     5     6    1
     7     6     7    1
     8     7     1    1
     9     1    20    1
    10    20    21    1
    11    21    22   ar
    12    22    23   ar
    13    23    24   ar
    14    24    25   ar
    15    25    26   ar
    16    26    27    1
    17    27    28    1
    18    27    29    1
    19    27    30    1
    20     1    11    1
    21    11    12   ar
    22    12    13   ar
    23    13    14   ar
    24    14    18    1
    25    18    19    3
    26    14    15   ar
    27    15    16    1
    28    15    17   ar
    29     7     8    1
    30     8     4    1
    31    26    21   ar
    32    17    11   ar
@<TRIPOS>MOLECULE
*****
 30 32 0 0 0
SMALL
GASTEIGER

@<TRIPOS>ATOM
      1 N         -14.0826   -4.8129   17.4239 N.pl3   1  UNL1       -0.3035
      2 C         -14.4607    0.3770   18.3201 C.2     1  UNL1        0.2257
      3 O         -15.0811    1.2906   19.3352 O.2     1  UNL1       -0.2749
      4 N         -14.6082   -1.1092   18.4594 N.am    1  UNL1       -0.2778
      5 C         -15.3434   -1.8235   19.5546 C.3     1  UNL1        0.0952
      6 C         -15.2360   -3.2979   19.3000 C.3     1  UNL1        0.0430
      7 C         -14.4344   -3.4947   18.0475 C.3     1  UNL1        0.0946
      8 C         -14.0465   -2.1421   17.5280 C.3     1  UNL1        0.1131
      9 C         -12.2028    1.0967   17.2554 C.3     1  UNL1        0.0101
     10 C         -13.6928    0.9496   17.1658 C.3     1  UNL1        0.0853
     11 C         -15.0568   -5.9522   17.4786 C.ar    1  UNL1        0.0490
     12 C         -15.8991   -6.2770   16.2807 C.ar    1  UNL1        0.0153
     13 C         -16.8732   -7.4163   16.3354 C.ar    1  UNL1        0.0124
     14 C         -17.0051   -8.2308   17.5881 C.ar    1  UNL1        0.0791
     15 C         -16.1628   -7.9060   18.7861 C.ar    1  UNL1        0.0685
     16 CL        -16.2947   -8.7205   20.0387 Cl      1  UNL1       -0.0815
     17 C         -15.1887   -6.7667   18.7314 C.ar    1  UNL1        0.0266
     18 C         -17.9793   -9.3701   17.6428 C.1     1  UNL1        0.1013
     19 N         -18.9534  -10.5094   17.6975 N.1     1  UNL1       -0.1908
     20 C         -12.7568   -4.9917   16.7457 C.3     1  UNL1        0.1177
     21 C         -11.6776   -5.7954   17.4086 C.ar    1  UNL1        0.0015
     22 C         -11.5399   -7.2584   17.1078 C.ar    1  UNL1       -0.0027
     23 C         -10.4607   -8.0621   17.7707 C.ar    1  UNL1       -0.0003
     24 C          -9.5193   -7.4028   18.7344 C.ar    1  UNL1       -0.0001
     25 C          -9.6569   -5.9397   19.0353 C.ar    1  UNL1        0.0036
     26 C         -10.7361   -5.1360   18.3724 C.ar    1  UNL1        0.0691
     27 C         -10.8738   -3.6730   18.6733 C.3     1  UNL1        0.4183
     28 F         -11.0114   -2.2100   18.9742 F       1  UNL1       -0.1659
     29 F          -9.8625   -3.3593   17.6109 F       1  UNL1       -0.1659
     30 F         -11.8851   -3.9866   19.7357 F       1  UNL1       -0.1659
@<TRIPOS>BOND
     1     9    10    1
     2    10     2    1
     3     2     3    2
     4     2     4   am
     5     4     5    1
     6     5     6    1
     7     6     7    1
     8     7     1    1
     9     1    20    1
    10    20    21    1
    11    21    22   ar
    12    22    23   ar
    13    23    24   ar
    14    24    25   ar
    15    25    26   ar
    16    26    27    1
    17    27    28    1
    18    27    29    1
    19    27    30    1
    20     1    11    1
    21    11    12   ar
    22    12    13   ar
    23    13    14   ar
    24    14    18    1
    25    18    19    3
    26    14    15   ar
    27    15    16    1
    28    15    17   ar
    29     7     8    1
    30     8     4    1
    31    26    21   ar
    32    17    11   ar
@<TRIPOS>MOLECULE
*****
 30 32 0 0 0
SMALL
GASTEIGER

@<TRIPOS>ATOM
      1 N          -8.4225  -16.8105   22.4521 N.pl3   1  UNL1       -0.3035
      2 C         -13.3570  -18.1790   23.7400 C.2     1  UNL1        0.2257
      3 O         -14.6995  -18.2639   23.0763 O.2     1  UNL1       -0.2749
      4 N         -12.1628  -17.7151   22.9600 N.am    1  UNL1       -0.2778
      5 C         -12.1571  -17.3050   21.5171 C.3     1  UNL1        0.0952
      6 C         -10.7552  -16.9162   21.1512 C.3     1  UNL1        0.0430
      7 C          -9.8946  -17.0861   22.3680 C.3     1  UNL1        0.0946
      8 C         -10.7645  -17.5798   23.4858 C.3     1  UNL1        0.1131
      9 C         -14.3975  -18.5109   26.0974 C.3     1  UNL1        0.0101
     10 C         -13.2089  -18.5581   25.1837 C.3     1  UNL1        0.0853
     11 C          -7.4422  -17.7895   21.8771 C.ar    1  UNL1        0.0490
     12 C          -7.7689  -18.5208   20.6088 C.ar    1  UNL1        0.0153
     13 C          -6.7886  -19.4998   20.0338 C.ar    1  UNL1        0.0124
     14 C          -5.4817  -19.7475   20.7270 C.ar    1  UNL1        0.0791
     15 C          -5.1550  -19.0162   21.9953 C.ar    1  UNL1        0.0685
     16 CL         -3.8481  -19.2638   22.6885 Cl      1  UNL1       -0.0815
     17 C          -6.1353  -18.0372   22.5703 C.ar    1  UNL1        0.0266
     18 C          -4.5014  -20.7265   20.1519 C.1     1  UNL1        0.1013
     19 N          -3.5212  -21.7054   19.5769 N.1     1  UNL1       -0.1908
     20 C          -7.9307  -15.5561   23.1112 C.3     1  UNL1        0.1177
     21 C          -7.6322  -15.5486   24.5812 C.ar    1  UNL1        0.0015
     22 C          -8.7556  -15.5079   25.5744 C.ar    1  UNL1       -0.0027
     23 C          -8.4571  -15.5004   27.0444 C.ar    1  UNL1       -0.0003
     24 C          -7.0353  -15.5337   27.5211 C.ar    1  UNL1       -0.0001
     25 C          -5.9119  -15.5745   26.5279 C.ar    1  UNL1        0.0036
     26 C          -6.2104  -15.5819   25.0580 C.ar    1  UNL1        0.0691
     27 C          -5.0871  -15.6227   24.0648 C.3     1  UNL1        0.4183
     28 F          -3.9638  -15.6635   23.0716 F       1  UNL1       -0.1659
     29 F          -4.4494  -16.7429   24.8319 F       1  UNL1       -0.1659
     30 F          -5.7247  -14.5025   23.2976 F       1  UNL1       -0.1659
@<TRIPOS>BOND
     1     9    10    1
     2    10     2    1
     3     2     3    2
     4     2     4   am
     5     4     5    1
     6     5     6    1
     7     6     7    1
     8     7     1    1
     9     1    20    1
    10    20    21    1
    11    21    22   ar
    12    22    23   ar
    13    23    24   ar
    14    24    25   ar
    15    25    26   ar
    16    26    27    1
    17    27    28    1
    18    27    29    1
    19    27    30    1
    20     1    11    1
    21    11    12   ar
    22    12    13   ar
    23    13    14   ar
    24    14    18    1
    25    18    19    3
    26    14    15   ar
    27    15    16    1
    28    15    17   ar
    29     7     8    1
    30     8     4    1
    31    26    21   ar
    32    17    11   ar
@<TRIPOS>MOLECULE
*****
 30 32 0 0 0
SMALL
GASTEIGER

@<TRIPOS>ATOM
      1 N          -7.8700  -18.1255   22.0217 N.pl3   1  UNL1       -0.3035
      2 C          -7.6447  -15.6392   26.6744 C.2     1  UNL1        0.2257
      3 O          -8.4569  -14.6414   27.4456 O.2     1  UNL1       -0.2749
      4 N          -8.1026  -16.0925   25.3199 N.am    1  UNL1       -0.2778
      5 C          -9.3445  -15.6386   24.6115 C.3     1  UNL1        0.0952
      6 C          -9.4085  -16.3450   23.2897 C.3     1  UNL1        0.0430
      7 C          -8.2062  -17.2353   23.1813 C.3     1  UNL1        0.0946
      8 C          -7.3991  -17.0793   24.4360 C.3     1  UNL1        0.1131
      9 C          -5.0798  -16.0225   26.5178 C.3     1  UNL1        0.0101
     10 C          -6.3745  -16.1835   27.2578 C.3     1  UNL1        0.0853
     11 C          -6.4378  -18.3364   21.6287 C.ar    1  UNL1        0.0490
     12 C          -6.1055  -18.8939   20.2764 C.ar    1  UNL1        0.0153
     13 C          -4.6734  -19.1048   19.8834 C.ar    1  UNL1        0.0124
     14 C          -3.5735  -18.7583   20.8426 C.ar    1  UNL1        0.0791
     15 C          -3.9058  -18.2008   22.1950 C.ar    1  UNL1        0.0685
     16 CL         -2.8060  -17.8543   23.1543 Cl      1  UNL1       -0.0815
     17 C          -5.3380  -17.9899   22.5880 C.ar    1  UNL1        0.0266
     18 C          -2.1414  -18.9692   20.4496 C.1     1  UNL1        0.1013
     19 N          -0.7092  -19.1802   20.0566 N.1     1  UNL1       -0.1908
     20 C          -8.9659  -18.8046   21.2551 C.3     1  UNL1        0.1177
     21 C         -10.3382  -18.2004   21.2142 C.ar    1  UNL1        0.0015
     22 C         -10.6565  -17.1291   20.2137 C.ar    1  UNL1       -0.0027
     23 C         -12.0288  -16.5249   20.1728 C.ar    1  UNL1       -0.0003
     24 C         -13.0829  -16.9920   21.1324 C.ar    1  UNL1       -0.0001
     25 C         -12.7646  -18.0634   22.1329 C.ar    1  UNL1        0.0036
     26 C         -11.3923  -18.6676   22.1738 C.ar    1  UNL1        0.0691
     27 C         -11.0740  -19.7389   23.1743 C.3     1  UNL1        0.4183
     28 F         -10.7557  -20.8102   24.1748 F       1  UNL1       -0.1659
     29 F         -11.0107  -18.7060   24.2601 F       1  UNL1       -0.1659
     30 F         -11.1373  -20.7717   22.0884 F       1  UNL1       -0.1659
@<TRIPOS>BOND
     1     9    10    1
     2    10     2    1
     3     2     3    2
     4     2     4   am
     5     4     5    1
     6     5     6    1
     7     6     7    1
     8     7     1    1
     9     1    20    1
    10    20    21    1
    11    21    22   ar
    12    22    23   ar
    13    23    24   ar
    14    24    25   ar
    15    25    26   ar
    16    26    27    1
    17    27    28    1
    18    27    29    1
    19    27    30    1
    20     1    11    1
    21    11    12   ar
    22    12    13   ar
    23    13    14   ar
    24    14    18    1
    25    18    19    3
    26    14    15   ar
    27    15    16    1
    28    15    17   ar
    29     7     8    1
    30     8     4    1
    31    26    21   ar
    32    17    11   ar
