@<TRIPOS>MOLECULE
*****
 24 27 0 0 0
SMALL
GASTEIGER

@<TRIPOS>ATOM
      1 C           7.0658   -4.4949   23.4171 C.ar    1  UNL1        0.1917
      2 N           8.0602   -5.2957   22.6297 N.ar    1  UNL1       -0.1268
      3 N           7.8433   -5.0026   21.1747 N.ar    1  UNL1       -0.1315
      4 C           6.7150   -4.0206   21.0628 C.ar    1  UNL1        0.1636
      5 N           6.2345   -3.7068   22.4487 N.ar    1  UNL1       -0.2939
      6 C           5.1020   -2.7440   22.6497 C.3     1  UNL1        0.1302
      7 C           4.4500   -2.0950   21.4650 C.3     1  UNL1        0.1186
      8 N           4.9306   -2.4088   20.0791 N.am    1  UNL1       -0.2670
      9 C           4.2786   -1.7598   18.8943 C.2     1  UNL1        0.2494
     10 O           4.7591   -2.0736   17.5084 O.2     1  UNL1       -0.2699
     11 C           6.0631   -3.3716   19.8780 C.3     1  UNL1        0.1599
     12 C           3.1461   -0.7970   19.0954 C.ar    1  UNL1        0.0537
     13 C           3.1957    0.5620   18.4625 C.ar    1  UNL1        0.0068
     14 C           2.0631    1.5248   18.6636 C.ar    1  UNL1        0.0298
     15 C           0.8810    1.1286   19.4976 C.ar    1  UNL1        0.1401
     16 F          -0.2515    2.0913   19.6987 F       1  UNL1       -0.2042
     17 C           0.8314   -0.2305   20.1305 C.ar    1  UNL1        0.0298
     18 C           1.9639   -1.1933   19.9294 C.ar    1  UNL1        0.0068
     19 C           6.2586   -2.8636   28.3737 C.3     1  UNL1        0.0744
     20 C           6.5561   -3.7341   27.1889 C.ar    1  UNL1        0.1481
     21 N           6.8714   -5.2001   27.2290 N.ar    1  UNL1       -0.1929
     22 S           7.1007   -5.6634   25.8208 S.2     1  UNL1        0.0369
     23 C           6.9272   -4.4840   24.9106 C.ar    1  UNL1        0.1652
     24 N           6.5906   -3.2915   25.7561 N.ar    1  UNL1       -0.2190
@<TRIPOS>BOND
     1    19    20    1
     2    20    21   ar
     3    21    22   ar
     4    22    23   ar
     5    23     1    1
     6     1     2   ar
     7     2     3   ar
     8     3     4   ar
     9     4     5   ar
    10     5     6    1
    11     6     7    1
    12     7     8    1
    13     8     9   am
    14     9    10    2
    15     9    12    1
    16    12    13   ar
    17    13    14   ar
    18    14    15   ar
    19    15    16    1
    20    15    17   ar
    21    17    18   ar
    22     8    11    1
    23    23    24   ar
    24    24    20   ar
    25     5     1   ar
    26    18    12   ar
    27    11     4    1
@<TRIPOS>MOLECULE
*****
 24 27 0 0 0
SMALL
GASTEIGER

@<TRIPOS>ATOM
      1 C           2.1990    1.6760   25.7440 C.ar    1  UNL1        0.1917
      2 N           2.4577    3.1479   25.6148 N.ar    1  UNL1       -0.1268
      3 N           3.1571    3.3827   24.3088 N.ar    1  UNL1       -0.1315
      4 C           3.3307    2.0560   23.6308 C.ar    1  UNL1        0.1636
      5 N           2.7386    1.0012   24.5178 N.ar    1  UNL1       -0.2939
      6 C           2.7671   -0.4375   24.0943 C.3     1  UNL1        0.1302
      7 C           3.3879   -0.8213   22.7839 C.3     1  UNL1        0.1186
      8 N           3.9800    0.2335   21.8969 N.am    1  UNL1       -0.2670
      9 C           4.6007   -0.1505   20.5864 C.2     1  UNL1        0.2494
     10 O           5.1928    0.9043   19.6994 O.2     1  UNL1       -0.2699
     11 C           3.9514    1.6721   22.3203 C.3     1  UNL1        0.1599
     12 C           4.6293   -1.5892   20.1630 C.ar    1  UNL1        0.0537
     13 C           3.4391   -2.1934   19.4786 C.ar    1  UNL1        0.0068
     14 C           3.4677   -3.6321   19.0552 C.ar    1  UNL1        0.0298
     15 C           4.6865   -4.4666   19.3161 C.ar    1  UNL1        0.1401
     16 F           4.7151   -5.9053   18.8926 F       1  UNL1       -0.2042
     17 C           5.8767   -3.8624   20.0004 C.ar    1  UNL1        0.0298
     18 C           5.8482   -2.4237   20.4238 C.ar    1  UNL1        0.0068
     19 C          -1.5248   -0.1108   29.0336 C.3     1  UNL1        0.0744
     20 C          -0.1916    0.1767   28.4090 C.ar    1  UNL1        0.1481
     21 N           1.1419   -0.2675   28.9332 N.ar    1  UNL1       -0.1929
     22 S           2.1996    0.2402   27.9986 S.2     1  UNL1        0.0369
     23 C           1.5201    0.9980   26.8969 C.ar    1  UNL1        0.1652
     24 N           0.0422    0.9588   27.1505 N.ar    1  UNL1       -0.2190
@<TRIPOS>BOND
     1    19    20    1
     2    20    21   ar
     3    21    22   ar
     4    22    23   ar
     5    23     1    1
     6     1     2   ar
     7     2     3   ar
     8     3     4   ar
     9     4     5   ar
    10     5     6    1
    11     6     7    1
    12     7     8    1
    13     8     9   am
    14     9    10    2
    15     9    12    1
    16    12    13   ar
    17    13    14   ar
    18    14    15   ar
    19    15    16    1
    20    15    17   ar
    21    17    18   ar
    22     8    11    1
    23    23    24   ar
    24    24    20   ar
    25     5     1   ar
    26    18    12   ar
    27    11     4    1
@<TRIPOS>MOLECULE
*****
 24 27 0 0 0
SMALL
GASTEIGER

@<TRIPOS>ATOM
      1 C         -17.8364   -1.3179   20.2196 C.ar    1  UNL1        0.1917
      2 N         -19.0031   -2.1668   20.6297 N.ar    1  UNL1       -0.1268
      3 N         -18.6143   -3.6049   20.4540 N.ar    1  UNL1       -0.1315
      4 C         -17.2074   -3.6448   19.9355 C.ar    1  UNL1        0.1636
      5 N         -16.7266   -2.2313   19.7906 N.ar    1  UNL1       -0.2939
      6 C         -15.3403   -1.9586   19.2868 C.3     1  UNL1        0.1302
      7 C         -14.4349   -3.0993   18.9278 C.3     1  UNL1        0.1186
      8 N         -14.9157   -4.5127   19.0726 N.am    1  UNL1       -0.2670
      9 C         -14.0102   -5.6535   18.7136 C.2     1  UNL1        0.2494
     10 O         -14.4910   -7.0669   18.8585 O.2     1  UNL1       -0.2699
     11 C         -16.3020   -4.7855   19.5765 C.3     1  UNL1        0.1599
     12 C         -12.6240   -5.3807   18.2098 C.ar    1  UNL1        0.0537
     13 C         -11.4920   -5.2167   19.1802 C.ar    1  UNL1        0.0068
     14 C         -10.1057   -4.9440   18.6763 C.ar    1  UNL1        0.0298
     15 C          -9.8514   -4.8353   17.2020 C.ar    1  UNL1        0.1401
     16 F          -8.4652   -4.5625   16.6981 F       1  UNL1       -0.2042
     17 C         -10.9834   -4.9993   16.2316 C.ar    1  UNL1        0.0298
     18 C         -12.3697   -5.2720   16.7354 C.ar    1  UNL1        0.0068
     19 C         -17.1549    3.6675   21.8203 C.3     1  UNL1        0.0744
     20 C         -17.4747    2.4727   20.9715 C.ar    1  UNL1        0.1481
     21 N         -17.9521    2.5036   19.5498 N.ar    1  UNL1       -0.1929
     22 S         -18.1457    1.0873   19.0952 S.2     1  UNL1        0.0369
     23 C         -17.7880    0.1812   20.2358 C.ar    1  UNL1        0.1652
     24 N         -17.3733    1.0375   21.3955 N.ar    1  UNL1       -0.2190
@<TRIPOS>BOND
     1    19    20    1
     2    20    21   ar
     3    21    22   ar
     4    22    23   ar
     5    23     1    1
     6     1     2   ar
     7     2     3   ar
     8     3     4   ar
     9     4     5   ar
    10     5     6    1
    11     6     7    1
    12     7     8    1
    13     8     9   am
    14     9    10    2
    15     9    12    1
    16    12    13   ar
    17    13    14   ar
    18    14    15   ar
    19    15    16    1
    20    15    17   ar
    21    17    18   ar
    22     8    11    1
    23    23    24   ar
    24    24    20   ar
    25     5     1   ar
    26    18    12   ar
    27    11     4    1
@<TRIPOS>MOLECULE
*****
 24 27 0 0 0
SMALL
GASTEIGER

@<TRIPOS>ATOM
      1 C           5.6817   -1.3105   33.1937 C.ar    1  UNL1        0.1917
      2 N           5.7325   -0.7913   34.6001 N.ar    1  UNL1       -0.1268
      3 N           4.6591    0.2456   34.7503 N.ar    1  UNL1       -0.1315
      4 C           3.9449    0.3672   33.4368 C.ar    1  UNL1        0.1636
      5 N           4.5770   -0.5946   32.4748 N.ar    1  UNL1       -0.2939
      6 C           4.0649   -0.6941   31.0685 C.3     1  UNL1        0.1302
      7 C           2.9207    0.1681   30.6242 C.3     1  UNL1        0.1186
      8 N           2.2887    1.1299   31.5862 N.am    1  UNL1       -0.2670
      9 C           1.1445    1.9921   31.1418 C.2     1  UNL1        0.2494
     10 O           0.5124    2.9539   32.1039 O.2     1  UNL1       -0.2699
     11 C           2.8008    1.2294   32.9925 C.3     1  UNL1        0.1599
     12 C           0.6324    1.8926   29.7355 C.ar    1  UNL1        0.0537
     13 C          -0.3794    0.8445   29.3782 C.ar    1  UNL1        0.0068
     14 C          -0.8915    0.7450   27.9717 C.ar    1  UNL1        0.0298
     15 C          -0.3918    1.6936   26.9228 C.ar    1  UNL1        0.1401
     16 F          -0.9039    1.5940   25.5164 F       1  UNL1       -0.2042
     17 C           0.6200    2.7417   27.2801 C.ar    1  UNL1        0.0298
     18 C           1.1321    2.8412   28.6864 C.ar    1  UNL1        0.0068
     19 C           7.3844   -5.7686   30.9336 C.3     1  UNL1        0.0744
     20 C           7.3610   -4.4104   31.5701 C.ar    1  UNL1        0.1481
     21 N           8.5551   -3.5462   31.8479 N.ar    1  UNL1       -0.1929
     22 S           8.0713   -2.2798   32.4900 S.2     1  UNL1        0.0369
     23 C           6.5783   -2.3613   32.6089 C.ar    1  UNL1        0.1652
     24 N           6.1393   -3.6781   32.0404 N.ar    1  UNL1       -0.2190
@<TRIPOS>BOND
     1    19    20    1
     2    20    21   ar
     3    21    22   ar
     4    22    23   ar
     5    23     1    1
     6     1     2   ar
     7     2     3   ar
     8     3     4   ar
     9     4     5   ar
    10     5     6    1
    11     6     7    1
    12     7     8    1
    13     8     9   am
    14     9    10    2
    15     9    12    1
    16    12    13   ar
    17    13    14   ar
    18    14    15   ar
    19    15    16    1
    20    15    17   ar
    21    17    18   ar
    22     8    11    1
    23    23    24   ar
    24    24    20   ar
    25     5     1   ar
    26    18    12   ar
    27    11     4    1
@<TRIPOS>MOLECULE
*****
 24 27 0 0 0
SMALL
GASTEIGER

@<TRIPOS>ATOM
      1 C          -1.2405    3.0922   20.2047 C.ar    1  UNL1        0.1917
      2 N          -1.4111    3.7816   18.8836 N.ar    1  UNL1       -0.1268
      3 N          -0.3883    3.2278   17.9363 N.ar    1  UNL1       -0.1315
      4 C           0.4143    2.1961   18.6721 C.ar    1  UNL1        0.1636
      5 N          -0.1124    2.1123   20.0741 N.ar    1  UNL1       -0.2939
      6 C           0.5034    1.1545   21.0505 C.3     1  UNL1        0.1302
      7 C           1.6458    0.2806   20.6250 C.3     1  UNL1        0.1186
      8 N           2.1725    0.3644   19.2230 N.am    1  UNL1       -0.2670
      9 C           3.3150   -0.5095   18.7975 C.2     1  UNL1        0.2494
     10 O           3.8417   -0.4257   17.3955 O.2     1  UNL1       -0.2699
     11 C           1.5568    1.3222   18.2466 C.3     1  UNL1        0.1599
     12 C           3.9307   -1.4673   19.7740 C.ar    1  UNL1        0.0537
     13 C           4.8846   -0.9652   20.8170 C.ar    1  UNL1        0.0068
     14 C           5.5004   -1.9231   21.7935 C.ar    1  UNL1        0.0298
     15 C           5.1621   -3.3829   21.7269 C.ar    1  UNL1        0.1401
     16 F           5.7779   -4.3407   22.7034 F       1  UNL1       -0.2042
     17 C           4.2082   -3.8850   20.6839 C.ar    1  UNL1        0.0298
     18 C           3.5925   -2.9272   19.7075 C.ar    1  UNL1        0.0068
     19 C          -5.3179    3.4758   23.5378 C.3     1  UNL1        0.0744
     20 C          -3.9292    3.5155   22.9718 C.ar    1  UNL1        0.1481
     21 N          -2.6881    3.9231   23.7090 N.ar    1  UNL1       -0.1929
     22 S          -1.5298    3.8141   22.7621 S.2     1  UNL1        0.0369
     23 C          -2.0551    3.3392   21.4398 C.ar    1  UNL1        0.1652
     24 N          -3.5381    3.1546   21.5694 N.ar    1  UNL1       -0.2190
@<TRIPOS>BOND
     1    19    20    1
     2    20    21   ar
     3    21    22   ar
     4    22    23   ar
     5    23     1    1
     6     1     2   ar
     7     2     3   ar
     8     3     4   ar
     9     4     5   ar
    10     5     6    1
    11     6     7    1
    12     7     8    1
    13     8     9   am
    14     9    10    2
    15     9    12    1
    16    12    13   ar
    17    13    14   ar
    18    14    15   ar
    19    15    16    1
    20    15    17   ar
    21    17    18   ar
    22     8    11    1
    23    23    24   ar
    24    24    20   ar
    25     5     1   ar
    26    18    12   ar
    27    11     4    1
@<TRIPOS>MOLECULE
*****
 24 27 0 0 0
SMALL
GASTEIGER

@<TRIPOS>ATOM
      1 C          -0.9056    2.0794   26.6069 C.ar    1  UNL1        0.1917
      2 N          -1.9904    3.0802   26.8745 N.ar    1  UNL1       -0.1268
      3 N          -2.3030    3.7805   25.5854 N.ar    1  UNL1       -0.1315
      4 C          -1.4115    3.2126   24.5212 C.ar    1  UNL1        0.1636
      5 N          -0.5478    2.1612   25.1525 N.ar    1  UNL1       -0.2939
      6 C           0.4529    1.4142   24.3215 C.3     1  UNL1        0.1302
      7 C           0.5898    1.7185   22.8592 C.3     1  UNL1        0.1186
      8 N          -0.2739    2.7699   22.2278 N.am    1  UNL1       -0.2670
      9 C          -0.1369    3.0742   20.7653 C.2     1  UNL1        0.2494
     10 O          -1.0006    4.1256   20.1340 O.2     1  UNL1       -0.2699
     11 C          -1.2745    3.5169   23.0588 C.3     1  UNL1        0.1599
     12 C           0.8637    2.3272   19.9343 C.ar    1  UNL1        0.0537
     13 C           0.5360    0.9580   19.4168 C.ar    1  UNL1        0.0068
     14 C           1.5367    0.2110   18.5857 C.ar    1  UNL1        0.0298
     15 C           2.8651    0.8331   18.2723 C.ar    1  UNL1        0.1401
     16 F           3.8657    0.0861   17.4413 F       1  UNL1       -0.2042
     17 C           3.1928    2.2023   18.7899 C.ar    1  UNL1        0.0298
     18 C           2.1922    2.9494   19.6209 C.ar    1  UNL1        0.0068
     19 C           2.6516   -0.5389   29.5004 C.3     1  UNL1        0.0744
     20 C           1.3480   -0.0451   28.9465 C.ar    1  UNL1        0.1481
     21 N          -0.0185   -0.4725   29.3939 N.ar    1  UNL1       -0.1929
     22 S          -1.0290    0.2714   28.5719 S.2     1  UNL1        0.0369
     23 C          -0.2871    1.1584   27.6166 C.ar    1  UNL1        0.1652
     24 N           1.1820    0.9629   27.8481 N.ar    1  UNL1       -0.2190
@<TRIPOS>BOND
     1    19    20    1
     2    20    21   ar
     3    21    22   ar
     4    22    23   ar
     5    23     1    1
     6     1     2   ar
     7     2     3   ar
     8     3     4   ar
     9     4     5   ar
    10     5     6    1
    11     6     7    1
    12     7     8    1
    13     8     9   am
    14     9    10    2
    15     9    12    1
    16    12    13   ar
    17    13    14   ar
    18    14    15   ar
    19    15    16    1
    20    15    17   ar
    21    17    18   ar
    22     8    11    1
    23    23    24   ar
    24    24    20   ar
    25     5     1   ar
    26    18    12   ar
    27    11     4    1
@<TRIPOS>MOLECULE
*****
 24 27 0 0 0
SMALL
GASTEIGER

@<TRIPOS>ATOM
      1 C           4.0595   -1.3437   18.7946 C.ar    1  UNL1        0.1917
      2 N           4.6971   -1.6897   17.4817 N.ar    1  UNL1       -0.1268
      3 N           5.9193   -2.5127   17.7626 N.ar    1  UNL1       -0.1315
      4 C           6.0370   -2.6754   19.2491 C.ar    1  UNL1        0.1636
      5 N           4.8876   -1.9529   19.8869 N.ar    1  UNL1       -0.2939
      6 C           4.7436   -1.9431   21.3799 C.3     1  UNL1        0.1302
      7 C           5.7489   -2.6558   22.2351 C.3     1  UNL1        0.1186
      8 N           6.8983   -3.3783   21.5972 N.am    1  UNL1       -0.2670
      9 C           7.9037   -4.0910   22.4525 C.2     1  UNL1        0.2494
     10 O           9.0531   -4.8135   21.8146 O.2     1  UNL1       -0.2699
     11 C           7.0424   -3.3881   20.1042 C.3     1  UNL1        0.1599
     12 C           7.7596   -4.0811   23.9455 C.ar    1  UNL1        0.0537
     13 C           7.0559   -5.2100   24.6385 C.ar    1  UNL1        0.0068
     14 C           6.9118   -5.2002   26.1316 C.ar    1  UNL1        0.0298
     15 C           7.4715   -4.0614   26.9316 C.ar    1  UNL1        0.1401
     16 F           7.3274   -4.0516   28.4246 F       1  UNL1       -0.2042
     17 C           8.1752   -2.9325   26.2385 C.ar    1  UNL1        0.0298
     18 C           8.3193   -2.9423   24.7455 C.ar    1  UNL1        0.0068
     19 C           0.3889    2.4157   18.2700 C.3     1  UNL1        0.0744
     20 C           1.1255    1.1968   18.7412 C.ar    1  UNL1        0.1481
     21 N           0.6625    0.2416   19.8011 N.ar    1  UNL1       -0.1929
     22 S           1.7053   -0.8263   19.9501 S.2     1  UNL1        0.0369
     23 C           2.8127   -0.5312   18.9823 C.ar    1  UNL1        0.1652
     24 N           2.4544    0.7192   18.2352 N.ar    1  UNL1       -0.2190
@<TRIPOS>BOND
     1    19    20    1
     2    20    21   ar
     3    21    22   ar
     4    22    23   ar
     5    23     1    1
     6     1     2   ar
     7     2     3   ar
     8     3     4   ar
     9     4     5   ar
    10     5     6    1
    11     6     7    1
    12     7     8    1
    13     8     9   am
    14     9    10    2
    15     9    12    1
    16    12    13   ar
    17    13    14   ar
    18    14    15   ar
    19    15    16    1
    20    15    17   ar
    21    17    18   ar
    22     8    11    1
    23    23    24   ar
    24    24    20   ar
    25     5     1   ar
    26    18    12   ar
    27    11     4    1
@<TRIPOS>MOLECULE
*****
 24 27 0 0 0
SMALL
GASTEIGER

@<TRIPOS>ATOM
      1 C           5.8133   -2.7040   27.0170 C.ar    1  UNL1        0.1917
      2 N           6.7964   -3.6550   27.6327 N.ar    1  UNL1       -0.1268
      3 N           7.4757   -4.4019   26.5234 N.ar    1  UNL1       -0.1315
      4 C           6.9125   -3.9126   25.2222 C.ar    1  UNL1        0.1636
      5 N           5.8850   -2.8632   25.5272 N.ar    1  UNL1       -0.2939
      6 C           5.1475   -2.1882   24.4090 C.3     1  UNL1        0.1302
      7 C           5.4374   -2.5626   22.9858 C.3     1  UNL1        0.1186
      8 N           6.4649   -3.6120   22.6807 N.am    1  UNL1       -0.2670
      9 C           6.7548   -3.9864   21.2574 C.2     1  UNL1        0.2494
     10 O           7.7823   -5.0358   20.9523 O.2     1  UNL1       -0.2699
     11 C           7.2024   -4.2870   23.7989 C.3     1  UNL1        0.1599
     12 C           6.0173   -3.3114   20.1392 C.ar    1  UNL1        0.0537
     13 C           6.6480   -2.1615   19.4113 C.ar    1  UNL1        0.0068
     14 C           5.9104   -1.4865   18.2930 C.ar    1  UNL1        0.0298
     15 C           4.5422   -1.9615   17.9027 C.ar    1  UNL1        0.1401
     16 F           3.8046   -1.2865   16.7845 F       1  UNL1       -0.2042
     17 C           3.9115   -3.1114   18.6307 C.ar    1  UNL1        0.0298
     18 C           4.6490   -3.7864   19.7489 C.ar    1  UNL1        0.0068
     19 C           1.5144   -0.1596   28.7280 C.3     1  UNL1        0.0744
     20 C           2.9400   -0.5901   28.5470 C.ar    1  UNL1        0.1481
     21 N           4.1300   -0.0225   29.2625 N.ar    1  UNL1       -0.1929
     22 S           5.3511   -0.7454   28.7764 S.2     1  UNL1        0.0369
     23 C           4.9159   -1.7596   27.7606 C.ar    1  UNL1        0.1652
     24 N           3.4257   -1.6636   27.6188 N.ar    1  UNL1       -0.2190
@<TRIPOS>BOND
     1    19    20    1
     2    20    21   ar
     3    21    22   ar
     4    22    23   ar
     5    23     1    1
     6     1     2   ar
     7     2     3   ar
     8     3     4   ar
     9     4     5   ar
    10     5     6    1
    11     6     7    1
    12     7     8    1
    13     8     9   am
    14     9    10    2
    15     9    12    1
    16    12    13   ar
    17    13    14   ar
    18    14    15   ar
    19    15    16    1
    20    15    17   ar
    21    17    18   ar
    22     8    11    1
    23    23    24   ar
    24    24    20   ar
    25     5     1   ar
    26    18    12   ar
    27    11     4    1
@<TRIPOS>MOLECULE
*****
 24 27 0 0 0
SMALL
GASTEIGER

@<TRIPOS>ATOM
      1 C           5.2400   -2.1869   26.4324 C.ar    1  UNL1        0.1917
      2 N           6.3119   -3.2357   26.4643 N.ar    1  UNL1       -0.1268
      3 N           6.5938   -3.6535   25.0515 N.ar    1  UNL1       -0.1315
      4 C           5.6960   -2.8630   24.1464 C.ar    1  UNL1        0.1636
      5 N           4.8593   -1.9566   24.9999 N.ar    1  UNL1       -0.2939
      6 C           3.8589   -1.0386   24.3623 C.3     1  UNL1        0.1302
      7 C           3.6952   -1.0271   22.8714 C.3     1  UNL1        0.1186
      8 N           4.5319   -1.9335   22.0179 N.am    1  UNL1       -0.2670
      9 C           4.3682   -1.9219   20.5269 C.2     1  UNL1        0.2494
     10 O           5.2049   -2.8284   19.6735 O.2     1  UNL1       -0.2699
     11 C           5.5323   -2.8515   22.6555 C.3     1  UNL1        0.1599
     12 C           3.3678   -1.0040   19.8893 C.ar    1  UNL1        0.0537
     13 C           3.8089   -0.0258   18.8412 C.ar    1  UNL1        0.0068
     14 C           2.8084    0.8922   18.2036 C.ar    1  UNL1        0.0298
     15 C           1.3670    0.8320   18.6142 C.ar    1  UNL1        0.1401
     16 F           0.3666    1.7500   17.9767 F       1  UNL1       -0.2042
     17 C           0.9259   -0.1462   19.6624 C.ar    1  UNL1        0.0298
     18 C           1.9263   -1.0641   20.3000 C.ar    1  UNL1        0.0068
     19 C           1.7700   -0.1748   29.8663 C.3     1  UNL1        0.0744
     20 C           3.0569   -0.5658   29.2021 C.ar    1  UNL1        0.1481
     21 N           4.4368   -0.2727   29.7121 N.ar    1  UNL1       -0.1929
     22 S           5.4225   -0.8443   28.7365 S.2     1  UNL1        0.0369
     23 C           4.6519   -1.4907   27.6238 C.ar    1  UNL1        0.1652
     24 N           3.1898   -1.3185   27.9115 N.ar    1  UNL1       -0.2190
@<TRIPOS>BOND
     1    19    20    1
     2    20    21   ar
     3    21    22   ar
     4    22    23   ar
     5    23     1    1
     6     1     2   ar
     7     2     3   ar
     8     3     4   ar
     9     4     5   ar
    10     5     6    1
    11     6     7    1
    12     7     8    1
    13     8     9   am
    14     9    10    2
    15     9    12    1
    16    12    13   ar
    17    13    14   ar
    18    14    15   ar
    19    15    16    1
    20    15    17   ar
    21    17    18   ar
    22     8    11    1
    23    23    24   ar
    24    24    20   ar
    25     5     1   ar
    26    18    12   ar
    27    11     4    1
