@<TRIPOS>MOLECULE
*****
 31 33 0 0 0
SMALL
GASTEIGER

@<TRIPOS>ATOM
      1 C           5.8240   -2.2640   19.3238 C.ar    1  UNL1        0.0942
      2 C           7.1674   -1.7803   19.7834 C.ar    1  UNL1        0.1078
      3 N           8.0252   -2.6570   20.6469 N.ar    1  UNL1       -0.2119
      4 C           7.5395   -4.0175   21.0508 C.ar    1  UNL1        0.2206
      5 N           6.1961   -4.5013   20.5912 N.ar    1  UNL1       -0.2094
      6 C           5.3384   -3.6245   19.7277 C.ar    1  UNL1        0.1613
      7 O           4.9691   -1.5679   16.9713 O.2     1  UNL1       -0.2700
      8 C           4.9663   -1.3873   18.4603 C.2     1  UNL1        0.2488
      9 N           4.1057   -0.3299   19.0860 N.am    1  UNL1       -0.3008
     10 H           4.1038   -0.2114   20.0633 H       1  UNL1        0.1497
     11 C           3.2479    0.5468   18.2225 C.3     1  UNL1        0.0898
     12 C           2.0252    1.1992   18.7966 C.3     1  UNL1        0.0246
     13 C           1.1390    0.4362   19.7359 C.3     1  UNL1        0.0338
     14 C          -0.0836    1.0886   20.3099 C.3     1  UNL1        0.1422
     15 O          -0.4200    2.5040   19.9446 O.3     1  UNL1       -0.3538
     16 C           0.4662    3.2670   19.0052 C.3     1  UNL1        0.1422
     17 C           1.6888    2.6146   18.4312 C.3     1  UNL1        0.0338
     18 C           3.9950   -4.1083   19.2681 C.3     1  UNL1        0.4351
     19 F           2.6516   -4.5921   18.8085 F       1  UNL1       -0.1644
     20 F           4.6575   -4.9528   18.2203 F       1  UNL1       -0.1644
     21 F           3.3324   -3.2638   20.3159 F       1  UNL1       -0.1644
     22 N           8.3973   -4.8942   21.9142 N.pl3   1  UNL1       -0.2819
     23 H           9.2303   -5.2760   21.5542 H       1  UNL1        0.1551
     24 C           7.9859   -5.1893   23.3262 C.ar    1  UNL1        0.0612
     25 C           7.2257   -4.1650   24.1155 C.ar    1  UNL1        0.0164
     26 C           6.8143   -4.4600   25.5275 C.ar    1  UNL1        0.0127
     27 C           7.1632   -5.7793   26.1502 C.ar    1  UNL1        0.0586
     28 CL          6.7518   -6.0743   27.5622 Cl      1  UNL1       -0.0822
     29 C           7.9234   -6.8035   25.3610 C.ar    1  UNL1        0.0240
     30 C           8.3347   -6.5085   23.9490 C.ar    1  UNL1        0.0719
     31 CL          9.0950   -7.5328   23.1597 Cl      1  UNL1       -0.0809
@<TRIPOS>BOND
     1     7     8    2
     2     8     9   am
     3     9    11    1
     4    11    12    1
     5    12    13    1
     6    13    14    1
     7    14    15    1
     8    15    16    1
     9    16    17    1
    10     8     1    1
    11     1     2   ar
    12     2     3   ar
    13     3     4   ar
    14     4    22    1
    15    22    24    1
    16    24    25   ar
    17    25    26   ar
    18    26    27   ar
    19    27    28    1
    20    27    29   ar
    21    29    30   ar
    22    30    31    1
    23     4     5   ar
    24     5     6   ar
    25     6    18    1
    26    18    19    1
    27    18    20    1
    28    18    21    1
    29    17    12    1
    30     6     1   ar
    31    30    24   ar
    32     9    10    1
    33    22    23    1
@<TRIPOS>MOLECULE
*****
 31 33 0 0 0
SMALL
GASTEIGER

@<TRIPOS>ATOM
      1 C           6.1486   -2.4189   19.2798 C.ar    1  UNL1        0.0942
      2 C           7.5388   -1.9036   19.5077 C.ar    1  UNL1        0.1078
      3 N           8.5275   -2.7283   20.2774 N.ar    1  UNL1       -0.2119
      4 C           8.1260   -4.0683   20.8191 C.ar    1  UNL1        0.2206
      5 N           6.7359   -4.5835   20.5911 N.ar    1  UNL1       -0.2094
      6 C           5.7472   -3.7588   19.8215 C.ar    1  UNL1        0.1613
      7 O           4.8808   -1.9085   17.0703 O.2     1  UNL1       -0.2700
      8 C           5.1599   -1.5942   18.5102 C.2     1  UNL1        0.2488
      9 N           4.4503   -0.4552   19.1804 N.am    1  UNL1       -0.3008
     10 H           4.6335   -0.2489   20.1255 H       1  UNL1        0.1497
     11 C           3.4616    0.3694   18.4108 C.3     1  UNL1        0.0898
     12 C           2.1530    0.7498   19.0377 C.3     1  UNL1        0.0246
     13 C           1.5108    2.0615   18.6958 C.3     1  UNL1        0.0338
     14 C           0.2023    2.4419   19.3227 C.3     1  UNL1        0.1422
     15 O          -0.4641    1.5105   20.2915 O.3     1  UNL1       -0.3538
     16 C           0.1781    0.1987   20.6333 C.3     1  UNL1        0.1422
     17 C           1.4867   -0.1816   20.0064 C.3     1  UNL1        0.0338
     18 C           4.3570   -4.2740   19.5935 C.3     1  UNL1        0.4351
     19 F           2.9668   -4.7893   19.3656 F       1  UNL1       -0.1644
     20 F           3.8994   -3.5955   20.8506 F       1  UNL1       -0.1644
     21 F           4.8146   -4.9526   18.3365 F       1  UNL1       -0.1644
     22 N           9.1147   -4.8929   21.5887 N.pl3   1  UNL1       -0.2819
     23 H          10.0366   -4.9919   21.2577 H       1  UNL1        0.1551
     24 C           8.6989   -5.5667   22.8627 C.ar    1  UNL1        0.0612
     25 C           8.8396   -7.0533   23.0054 C.ar    1  UNL1        0.0164
     26 C           8.4237   -7.7271   24.2794 C.ar    1  UNL1        0.0127
     27 C           7.8672   -6.9144   25.4106 C.ar    1  UNL1        0.0586
     28 CL          7.4513   -7.5883   26.6846 Cl      1  UNL1       -0.0822
     29 C           7.7265   -5.4279   25.2679 C.ar    1  UNL1        0.0240
     30 C           8.1423   -4.7541   23.9939 C.ar    1  UNL1        0.0719
     31 CL          8.0016   -3.2675   23.8512 Cl      1  UNL1       -0.0809
@<TRIPOS>BOND
     1     7     8    2
     2     8     9   am
     3     9    11    1
     4    11    12    1
     5    12    13    1
     6    13    14    1
     7    14    15    1
     8    15    16    1
     9    16    17    1
    10     8     1    1
    11     1     2   ar
    12     2     3   ar
    13     3     4   ar
    14     4    22    1
    15    22    24    1
    16    24    25   ar
    17    25    26   ar
    18    26    27   ar
    19    27    28    1
    20    27    29   ar
    21    29    30   ar
    22    30    31    1
    23     4     5   ar
    24     5     6   ar
    25     6    18    1
    26    18    19    1
    27    18    20    1
    28    18    21    1
    29    17    12    1
    30     6     1   ar
    31    30    24   ar
    32     9    10    1
    33    22    23    1
@<TRIPOS>MOLECULE
*****
 31 33 0 0 0
SMALL
GASTEIGER

@<TRIPOS>ATOM
      1 C          -6.3072  -18.2075   22.3010 C.ar    1  UNL1        0.0942
      2 C          -7.2438  -17.3065   23.0500 C.ar    1  UNL1        0.1078
      3 N          -8.7207  -17.3854   22.8001 N.ar    1  UNL1       -0.2119
      4 C          -9.2611  -18.3652   21.8011 C.ar    1  UNL1        0.2206
      5 N          -8.3245  -19.2662   21.0520 N.ar    1  UNL1       -0.2094
      6 C          -6.8475  -19.1873   21.3020 C.ar    1  UNL1        0.1613
      7 O          -4.1023  -19.3089   23.1226 O.2     1  UNL1       -0.2700
      8 C          -4.8303  -18.1286   22.5509 C.2     1  UNL1        0.2488
      9 N          -4.0813  -16.8694   22.2291 N.am    1  UNL1       -0.3008
     10 H          -4.5592  -16.0947   21.8539 H       1  UNL1        0.1497
     11 C          -2.6045  -16.7905   22.4791 C.3     1  UNL1        0.0898
     12 C          -1.6432  -17.3669   21.4821 C.3     1  UNL1        0.0246
     13 C          -1.7331  -18.8158   21.1047 C.3     1  UNL1        0.0338
     14 C          -0.7719  -19.3921   20.1078 C.3     1  UNL1        0.1422
     15 O           0.2792  -18.5195   19.4883 O.3     1  UNL1       -0.3538
     16 C           0.3691  -17.0706   19.8657 C.3     1  UNL1        0.1422
     17 C          -0.5921  -16.4943   20.8626 C.3     1  UNL1        0.0338
     18 C          -5.9109  -20.0882   20.5530 C.3     1  UNL1        0.4351
     19 F          -4.9743  -20.9892   19.8039 F       1  UNL1       -0.1644
     20 F          -5.5858  -18.9671   19.6110 F       1  UNL1       -0.1644
     21 F          -6.2360  -21.2094   21.4950 F       1  UNL1       -0.1644
     22 N         -10.7380  -18.4441   21.5512 N.pl3   1  UNL1       -0.2819
     23 H         -11.0793  -18.4926   20.6290 H       1  UNL1        0.1551
     24 C         -11.6949  -18.4491   22.7063 C.ar    1  UNL1        0.0612
     25 C         -11.3222  -19.1371   23.9860 C.ar    1  UNL1        0.0164
     26 C         -12.2791  -19.1422   25.1411 C.ar    1  UNL1        0.0127
     27 C         -13.6088  -18.4592   25.0164 C.ar    1  UNL1        0.0586
     28 CL        -14.5657  -18.4643   26.1715 Cl      1  UNL1       -0.0822
     29 C         -13.9815  -17.7712   23.7367 C.ar    1  UNL1        0.0240
     30 C         -13.0245  -17.7662   22.5816 C.ar    1  UNL1        0.0719
     31 CL        -13.3973  -17.0782   21.3019 Cl      1  UNL1       -0.0809
@<TRIPOS>BOND
     1     7     8    2
     2     8     9   am
     3     9    11    1
     4    11    12    1
     5    12    13    1
     6    13    14    1
     7    14    15    1
     8    15    16    1
     9    16    17    1
    10     8     1    1
    11     1     2   ar
    12     2     3   ar
    13     3     4   ar
    14     4    22    1
    15    22    24    1
    16    24    25   ar
    17    25    26   ar
    18    26    27   ar
    19    27    28    1
    20    27    29   ar
    21    29    30   ar
    22    30    31    1
    23     4     5   ar
    24     5     6   ar
    25     6    18    1
    26    18    19    1
    27    18    20    1
    28    18    21    1
    29    17    12    1
    30     6     1   ar
    31    30    24   ar
    32     9    10    1
    33    22    23    1
@<TRIPOS>MOLECULE
*****
 31 33 0 0 0
SMALL
GASTEIGER

@<TRIPOS>ATOM
      1 C           4.9980   -2.0103   20.7484 C.ar    1  UNL1        0.0942
      2 C           5.6950   -1.1836   21.7879 C.ar    1  UNL1        0.1078
      3 N           6.8178   -1.7750   22.5876 N.ar    1  UNL1       -0.2119
      4 C           7.2437   -3.1932   22.3477 C.ar    1  UNL1        0.2206
      5 N           6.5466   -4.0199   21.3082 N.ar    1  UNL1       -0.2094
      6 C           5.4238   -3.4284   20.5085 C.ar    1  UNL1        0.1613
      7 O           2.4631   -1.5307   20.4420 O.2     1  UNL1       -0.2700
      8 C           3.8752   -1.4189   19.9487 C.2     1  UNL1        0.2488
      9 N           4.1645   -0.7158   18.6556 N.am    1  UNL1       -0.3008
     10 H           5.0913   -0.6424   18.3318 H       1  UNL1        0.1497
     11 C           3.0417   -0.1244   17.8560 C.3     1  UNL1        0.0898
     12 C           2.4601    1.2020   18.2467 C.3     1  UNL1        0.0246
     13 C           0.9757    1.3542   18.3995 C.3     1  UNL1        0.0338
     14 C           0.3941    2.6805   18.7902 C.3     1  UNL1        0.1422
     15 O           1.2969    3.8546   19.0280 O.3     1  UNL1       -0.3538
     16 C           2.7813    3.7023   18.8751 C.3     1  UNL1        0.1422
     17 C           3.3629    2.3760   18.4845 C.3     1  UNL1        0.0338
     18 C           4.7267   -4.2552   19.4689 C.3     1  UNL1        0.4351
     19 F           4.0297   -5.0819   18.4294 F       1  UNL1       -0.1644
     20 F           5.6513   -3.7143   18.4189 F       1  UNL1       -0.1644
     21 F           3.8022   -4.7961   20.5190 F       1  UNL1       -0.1644
     22 N           8.3665   -3.7846   23.1474 N.pl3   1  UNL1       -0.2819
     23 H           9.2685   -3.3938   23.0932 H       1  UNL1        0.1551
     24 C           8.1150   -4.9714   24.0295 C.ar    1  UNL1        0.0612
     25 C           8.5785   -6.3333   23.6047 C.ar    1  UNL1        0.0164
     26 C           8.3271   -7.5201   24.4869 C.ar    1  UNL1        0.0127
     27 C           7.6122   -7.3451   25.7938 C.ar    1  UNL1        0.0586
     28 CL          7.3607   -8.5319   26.6760 Cl      1  UNL1       -0.0822
     29 C           7.1487   -5.9832   26.2186 C.ar    1  UNL1        0.0240
     30 C           7.4001   -4.7964   25.3365 C.ar    1  UNL1        0.0719
     31 CL          6.9366   -3.4345   25.7614 Cl      1  UNL1       -0.0809
@<TRIPOS>BOND
     1     7     8    2
     2     8     9   am
     3     9    11    1
     4    11    12    1
     5    12    13    1
     6    13    14    1
     7    14    15    1
     8    15    16    1
     9    16    17    1
    10     8     1    1
    11     1     2   ar
    12     2     3   ar
    13     3     4   ar
    14     4    22    1
    15    22    24    1
    16    24    25   ar
    17    25    26   ar
    18    26    27   ar
    19    27    28    1
    20    27    29   ar
    21    29    30   ar
    22    30    31    1
    23     4     5   ar
    24     5     6   ar
    25     6    18    1
    26    18    19    1
    27    18    20    1
    28    18    21    1
    29    17    12    1
    30     6     1   ar
    31    30    24   ar
    32     9    10    1
    33    22    23    1
@<TRIPOS>MOLECULE
*****
 31 33 0 0 0
SMALL
GASTEIGER

@<TRIPOS>ATOM
      1 C           3.8719    0.1430   32.8178 C.ar    1  UNL1        0.0942
      2 C           2.7471    1.0498   32.4147 C.ar    1  UNL1        0.1078
      3 N           1.9819    0.7804   31.1531 N.ar    1  UNL1       -0.2119
      4 C           2.3414   -0.3958   30.2944 C.ar    1  UNL1        0.2206
      5 N           3.4663   -1.3026   30.6974 N.ar    1  UNL1       -0.2094
      6 C           4.2315   -1.0332   31.9592 C.ar    1  UNL1        0.1613
      7 O           5.7652    1.4011   34.0758 O.2     1  UNL1       -0.2700
      8 C           4.6372    0.4124   34.0794 C.2     1  UNL1        0.2488
      9 N           4.2744   -0.3070   35.3447 N.am    1  UNL1       -0.3008
     10 H           3.5341   -0.9559   35.3471 H       1  UNL1        0.1497
     11 C           5.0397   -0.0376   36.6064 C.3     1  UNL1        0.0898
     12 C           4.5147    0.9505   37.6055 C.3     1  UNL1        0.0246
     13 C           5.4492    1.9254   38.2584 C.3     1  UNL1        0.0338
     14 C           4.9242    2.9134   39.2575 C.3     1  UNL1        0.1422
     15 O           3.4648    2.9265   39.6037 O.3     1  UNL1       -0.3538
     16 C           2.5303    1.9515   38.9509 C.3     1  UNL1        0.1422
     17 C           3.0553    0.9636   37.9518 C.3     1  UNL1        0.0338
     18 C           5.3564   -1.9400   32.3622 C.3     1  UNL1        0.4351
     19 F           6.4812   -2.8468   32.7653 F       1  UNL1       -0.1644
     20 F           6.3196   -1.0888   31.5890 F       1  UNL1       -0.1644
     21 F           4.3932   -2.7911   33.1354 F       1  UNL1       -0.1644
     22 N           1.5762   -0.6652   29.0327 N.pl3   1  UNL1       -0.2819
     23 H           1.5388   -1.5777   28.6650 H       1  UNL1        0.1551
     24 C           0.8679    0.4557   28.3314 C.ar    1  UNL1        0.0612
     25 C           1.6581    1.5134   27.6196 C.ar    1  UNL1        0.0164
     26 C           0.9498    2.6343   26.9183 C.ar    1  UNL1        0.0127
     27 C          -0.5488    2.6974   26.9286 C.ar    1  UNL1        0.0586
     28 CL         -1.2572    3.8182   26.2272 Cl      1  UNL1       -0.0822
     29 C          -1.3391    1.6396   27.6403 C.ar    1  UNL1        0.0240
     30 C          -0.6308    0.5188   28.3417 C.ar    1  UNL1        0.0719
     31 CL         -1.4211   -0.5390   29.0535 Cl      1  UNL1       -0.0809
@<TRIPOS>BOND
     1     7     8    2
     2     8     9   am
     3     9    11    1
     4    11    12    1
     5    12    13    1
     6    13    14    1
     7    14    15    1
     8    15    16    1
     9    16    17    1
    10     8     1    1
    11     1     2   ar
    12     2     3   ar
    13     3     4   ar
    14     4    22    1
    15    22    24    1
    16    24    25   ar
    17    25    26   ar
    18    26    27   ar
    19    27    28    1
    20    27    29   ar
    21    29    30   ar
    22    30    31    1
    23     4     5   ar
    24     5     6   ar
    25     6    18    1
    26    18    19    1
    27    18    20    1
    28    18    21    1
    29    17    12    1
    30     6     1   ar
    31    30    24   ar
    32     9    10    1
    33    22    23    1
@<TRIPOS>MOLECULE
*****
 31 33 0 0 0
SMALL
GASTEIGER

@<TRIPOS>ATOM
      1 C           0.5451    2.2845   19.0804 C.ar    1  UNL1        0.0942
      2 C          -0.2126    3.2189   18.1844 C.ar    1  UNL1        0.1078
      3 N          -1.5283    3.7842   18.6308 N.ar    1  UNL1       -0.2119
      4 C          -2.0863    3.4152   19.9734 C.ar    1  UNL1        0.2206
      5 N          -1.3286    2.4808   20.8695 N.ar    1  UNL1       -0.2094
      6 C          -0.0129    1.9155   20.4229 C.ar    1  UNL1        0.1613
      7 O           3.1133    2.5324   18.7755 O.2     1  UNL1       -0.2700
      8 C           1.8608    1.7192   18.6340 C.2     1  UNL1        0.2488
      9 N           1.9240    0.3407   18.0459 N.am    1  UNL1       -0.3008
     10 H           1.1019   -0.1930   17.9529 H       1  UNL1        0.1497
     11 C           3.2397   -0.2246   17.5994 C.3     1  UNL1        0.0898
     12 C           3.9184   -1.2820   18.4187 C.3     1  UNL1        0.0246
     13 C           3.3725   -1.6527   19.7658 C.3     1  UNL1        0.0338
     14 C           4.0513   -2.7100   20.5850 C.3     1  UNL1        0.1422
     15 O           5.2760   -3.3967   20.0572 O.3     1  UNL1       -0.3538
     16 C           5.8219   -3.0261   18.7102 C.3     1  UNL1        0.1422
     17 C           5.1431   -1.9687   17.8909 C.3     1  UNL1        0.0338
     18 C           0.7448    0.9812   21.3190 C.3     1  UNL1        0.4351
     19 F           1.5025    0.0469   22.2151 F       1  UNL1       -0.1644
     20 F           0.0801   -0.1905   20.6593 F       1  UNL1       -0.1644
     21 F           1.4095    2.1529   21.9787 F       1  UNL1       -0.1644
     22 N          -3.4020    3.9805   20.4199 N.pl3   1  UNL1       -0.2819
     23 H          -4.0493    4.3064   19.7535 H       1  UNL1        0.1551
     24 C          -3.7315    4.0492   21.8816 C.ar    1  UNL1        0.0612
     25 C          -4.6980    3.0702   22.4794 C.ar    1  UNL1        0.0164
     26 C          -5.0275    3.1390   23.9412 C.ar    1  UNL1        0.0127
     27 C          -4.3905    4.1867   24.8051 C.ar    1  UNL1        0.0586
     28 CL         -4.7200    4.2555   26.2669 Cl      1  UNL1       -0.0822
     29 C          -3.4240    5.1657   24.2073 C.ar    1  UNL1        0.0240
     30 C          -3.0945    5.0970   22.7456 C.ar    1  UNL1        0.0719
     31 CL         -2.1280    6.0760   22.1478 Cl      1  UNL1       -0.0809
@<TRIPOS>BOND
     1     7     8    2
     2     8     9   am
     3     9    11    1
     4    11    12    1
     5    12    13    1
     6    13    14    1
     7    14    15    1
     8    15    16    1
     9    16    17    1
    10     8     1    1
    11     1     2   ar
    12     2     3   ar
    13     3     4   ar
    14     4    22    1
    15    22    24    1
    16    24    25   ar
    17    25    26   ar
    18    26    27   ar
    19    27    28    1
    20    27    29   ar
    21    29    30   ar
    22    30    31    1
    23     4     5   ar
    24     5     6   ar
    25     6    18    1
    26    18    19    1
    27    18    20    1
    28    18    21    1
    29    17    12    1
    30     6     1   ar
    31    30    24   ar
    32     9    10    1
    33    22    23    1
@<TRIPOS>MOLECULE
*****
 31 33 0 0 0
SMALL
GASTEIGER

@<TRIPOS>ATOM
      1 C           7.0909   -3.8133   21.2980 C.ar    1  UNL1        0.0942
      2 C           8.3551   -4.5703   21.0170 C.ar    1  UNL1        0.1078
      3 N           8.9220   -5.4945   22.0536 N.ar    1  UNL1       -0.2119
      4 C           8.2248   -5.6616   23.3712 C.ar    1  UNL1        0.2206
      5 N           6.9607   -4.9046   23.6522 N.ar    1  UNL1       -0.2094
      6 C           6.3938   -3.9805   22.6155 C.ar    1  UNL1        0.1613
      7 O           6.9861   -1.4638   20.1941 O.2     1  UNL1       -0.2700
      8 C           6.5240   -2.8892   20.2614 C.2     1  UNL1        0.2488
      9 N           5.4948   -3.3905   19.2920 N.am    1  UNL1       -0.3008
     10 H           5.1915   -4.3261   19.3362 H       1  UNL1        0.1497
     11 C           4.9279   -2.4664   18.2555 C.3     1  UNL1        0.0898
     12 C           3.7727   -1.5730   18.5984 C.3     1  UNL1        0.0246
     13 C           3.4297   -0.4155   17.7082 C.3     1  UNL1        0.0338
     14 C           2.2746    0.4778   18.0512 C.3     1  UNL1        0.1422
     15 O           1.4625    0.2136   19.2844 O.3     1  UNL1       -0.3538
     16 C           1.8055   -0.9439   20.1746 C.3     1  UNL1        0.1422
     17 C           2.9606   -1.8372   19.8316 C.3     1  UNL1        0.0338
     18 C           5.1296   -3.2235   22.8965 C.3     1  UNL1        0.4351
     19 F           3.8655   -2.4665   23.1775 F       1  UNL1       -0.1644
     20 F           4.3322   -4.3117   22.2408 F       1  UNL1       -0.1644
     21 F           5.9270   -2.1352   23.5522 F       1  UNL1       -0.1644
     22 N           8.7918   -6.5857   24.4078 N.pl3   1  UNL1       -0.2819
     23 H           9.1608   -7.4584   24.1402 H       1  UNL1        0.1551
     24 C           8.7964   -6.1804   25.8519 C.ar    1  UNL1        0.0612
     25 C           9.5311   -4.9453   26.2819 C.ar    1  UNL1        0.0164
     26 C           9.5358   -4.5399   27.7261 C.ar    1  UNL1        0.0127
     27 C           8.8058   -5.3696   28.7403 C.ar    1  UNL1        0.0586
     28 CL          8.8104   -4.9642   30.1845 Cl      1  UNL1       -0.0822
     29 C           8.0711   -6.6046   28.3103 C.ar    1  UNL1        0.0240
     30 C           8.0664   -7.0100   26.8662 C.ar    1  UNL1        0.0719
     31 CL          7.3317   -8.2451   26.4362 Cl      1  UNL1       -0.0809
@<TRIPOS>BOND
     1     7     8    2
     2     8     9   am
     3     9    11    1
     4    11    12    1
     5    12    13    1
     6    13    14    1
     7    14    15    1
     8    15    16    1
     9    16    17    1
    10     8     1    1
    11     1     2   ar
    12     2     3   ar
    13     3     4   ar
    14     4    22    1
    15    22    24    1
    16    24    25   ar
    17    25    26   ar
    18    26    27   ar
    19    27    28    1
    20    27    29   ar
    21    29    30   ar
    22    30    31    1
    23     4     5   ar
    24     5     6   ar
    25     6    18    1
    26    18    19    1
    27    18    20    1
    28    18    21    1
    29    17    12    1
    30     6     1   ar
    31    30    24   ar
    32     9    10    1
    33    22    23    1
@<TRIPOS>MOLECULE
*****
 31 33 0 0 0
SMALL
GASTEIGER

@<TRIPOS>ATOM
      1 C          -8.9645  -18.3425   20.9613 C.ar    1  UNL1        0.0942
      2 C          -8.7017  -19.2897   19.8283 C.ar    1  UNL1        0.1078
      3 N          -7.3531  -19.9303   19.6838 N.ar    1  UNL1       -0.2119
      4 C          -6.2674  -19.6238   20.6724 C.ar    1  UNL1        0.2206
      5 N          -6.5302  -18.6767   21.8055 N.ar    1  UNL1       -0.2094
      6 C          -7.8789  -18.0360   21.9499 C.ar    1  UNL1        0.1613
      7 O         -10.6085  -16.4094   20.4041 O.2     1  UNL1       -0.2700
      8 C         -10.3131  -17.7018   21.1058 C.2     1  UNL1        0.2488
      9 N         -11.3663  -18.3536   21.9520 N.am    1  UNL1       -0.3008
     10 H         -11.1725  -19.2019   22.4125 H       1  UNL1        0.1497
     11 C         -12.7149  -17.7130   22.0965 C.3     1  UNL1        0.0898
     12 C         -13.6047  -18.0886   23.2442 C.3     1  UNL1        0.0246
     13 C         -13.0405  -18.1831   24.6308 C.3     1  UNL1        0.0338
     14 C         -13.9303  -18.5588   25.7785 C.3     1  UNL1        0.1422
     15 O         -15.3842  -18.8400   25.5395 O.3     1  UNL1       -0.3538
     16 C         -15.9483  -18.7455   24.1529 C.3     1  UNL1        0.1422
     17 C         -15.0586  -18.3698   23.0052 C.3     1  UNL1        0.0338
     18 C          -8.1417  -17.0888   23.0829 C.3     1  UNL1        0.4351
     19 F          -8.4046  -16.1417   24.2160 F       1  UNL1       -0.1644
     20 F          -7.6151  -15.9535   22.2560 F       1  UNL1       -0.1644
     21 F          -8.6683  -18.2242   23.9098 F       1  UNL1       -0.1644
     22 N          -4.9188  -20.2645   20.5279 N.pl3   1  UNL1       -0.2819
     23 H          -4.8388  -21.2457   20.5155 H       1  UNL1        0.1551
     24 C          -3.6922  -19.4103   20.4025 C.ar    1  UNL1        0.0612
     25 C          -3.1472  -19.0751   19.0458 C.ar    1  UNL1        0.0164
     26 C          -1.9206  -18.2209   18.9204 C.ar    1  UNL1        0.0127
     27 C          -1.2390  -17.7019   20.1516 C.ar    1  UNL1        0.0586
     28 CL         -0.0124  -16.8476   20.0261 Cl      1  UNL1       -0.0822
     29 C          -1.7840  -18.0371   21.5083 C.ar    1  UNL1        0.0240
     30 C          -3.0106  -18.8913   21.6337 C.ar    1  UNL1        0.0719
     31 CL         -3.5555  -19.2265   22.9905 Cl      1  UNL1       -0.0809
@<TRIPOS>BOND
     1     7     8    2
     2     8     9   am
     3     9    11    1
     4    11    12    1
     5    12    13    1
     6    13    14    1
     7    14    15    1
     8    15    16    1
     9    16    17    1
    10     8     1    1
    11     1     2   ar
    12     2     3   ar
    13     3     4   ar
    14     4    22    1
    15    22    24    1
    16    24    25   ar
    17    25    26   ar
    18    26    27   ar
    19    27    28    1
    20    27    29   ar
    21    29    30   ar
    22    30    31    1
    23     4     5   ar
    24     5     6   ar
    25     6    18    1
    26    18    19    1
    27    18    20    1
    28    18    21    1
    29    17    12    1
    30     6     1   ar
    31    30    24   ar
    32     9    10    1
    33    22    23    1
@<TRIPOS>MOLECULE
*****
 31 33 0 0 0
SMALL
GASTEIGER

@<TRIPOS>ATOM
      1 C           0.2250    2.2601   28.4344 C.ar    1  UNL1        0.0942
      2 C           0.9152    3.4928   28.9384 C.ar    1  UNL1        0.1078
      3 N           1.2080    3.6431   30.4018 N.ar    1  UNL1       -0.2119
      4 C           0.8106    2.5607   31.3613 C.ar    1  UNL1        0.2206
      5 N           0.1204    1.3280   30.8573 N.ar    1  UNL1       -0.2094
      6 C          -0.1725    1.1778   29.3938 C.ar    1  UNL1        0.1613
      7 O          -1.4153    2.4902   26.4328 O.2     1  UNL1       -0.2700
      8 C          -0.0679    2.1098   26.9710 C.2     1  UNL1        0.2488
      9 N           0.9868    1.5791   26.0457 N.am    1  UNL1       -0.3008
     10 H           1.8712    1.3294   26.3989 H       1  UNL1        0.1497
     11 C           0.6940    1.4288   24.5823 C.3     1  UNL1        0.0898
     12 C           1.6150    0.6263   23.7116 C.3     1  UNL1        0.0246
     13 C           1.4625    0.6678   22.2200 C.3     1  UNL1        0.0338
     14 C           2.3835   -0.1347   21.3495 C.3     1  UNL1        0.1422
     15 O           3.4569   -0.9785   21.9705 O.3     1  UNL1       -0.3538
     16 C           3.6093   -1.0200   23.4622 C.3     1  UNL1        0.1422
     17 C           2.6883   -0.2175   24.3327 C.3     1  UNL1        0.0338
     18 C          -0.8627   -0.0549   28.8897 C.3     1  UNL1        0.4351
     19 F          -1.5530   -1.2876   28.3857 F       1  UNL1       -0.1644
     20 F           0.4683   -0.7123   28.6746 F       1  UNL1       -0.1644
     21 F          -2.1937    0.6024   29.1049 F       1  UNL1       -0.1644
     22 N           1.1034    2.7110   32.8247 N.pl3   1  UNL1       -0.2819
     23 H           0.5518    3.3100   33.3781 H       1  UNL1        0.1551
     24 C           2.2367    1.9488   33.4450 C.ar    1  UNL1        0.0612
     25 C           2.8926    0.8321   32.6882 C.ar    1  UNL1        0.0164
     26 C           4.0258    0.0699   33.3084 C.ar    1  UNL1        0.0127
     27 C           4.5032    0.4244   34.6855 C.ar    1  UNL1        0.0586
     28 CL          5.6364   -0.3379   35.3058 Cl      1  UNL1       -0.0822
     29 C           3.8473    1.5410   35.4424 C.ar    1  UNL1        0.0240
     30 C           2.7140    2.3032   34.8221 C.ar    1  UNL1        0.0719
     31 CL          2.0581    3.4200   35.5790 Cl      1  UNL1       -0.0809
@<TRIPOS>BOND
     1     7     8    2
     2     8     9   am
     3     9    11    1
     4    11    12    1
     5    12    13    1
     6    13    14    1
     7    14    15    1
     8    15    16    1
     9    16    17    1
    10     8     1    1
    11     1     2   ar
    12     2     3   ar
    13     3     4   ar
    14     4    22    1
    15    22    24    1
    16    24    25   ar
    17    25    26   ar
    18    26    27   ar
    19    27    28    1
    20    27    29   ar
    21    29    30   ar
    22    30    31    1
    23     4     5   ar
    24     5     6   ar
    25     6    18    1
    26    18    19    1
    27    18    20    1
    28    18    21    1
    29    17    12    1
    30     6     1   ar
    31    30    24   ar
    32     9    10    1
    33    22    23    1
