@<TRIPOS>MOLECULE
*****
 30 33 0 0 0
SMALL
GASTEIGER

@<TRIPOS>ATOM
      1 C          -8.4047  -18.4389   23.2413 C.ar    1  UNL1        0.0284
      2 C          -8.2673  -19.8979   22.9214 C.ar    1  UNL1        0.0027
      3 C          -7.0958  -20.3829   22.1198 C.ar    1  UNL1        0.0339
      4 C          -6.0618  -19.4089   21.6381 C.ar    1  UNL1        0.1311
      5 N          -6.1992  -17.9498   21.9581 N.ar    1  UNL1       -0.2035
      6 C          -7.3706  -17.4648   22.7597 C.ar    1  UNL1        0.2196
      7 F          -7.5079  -16.0058   23.0796 F       1  UNL1       -0.1835
      8 N          -4.8903  -19.8939   20.8366 N.pl3   1  UNL1       -0.3143
      9 H          -4.5015  -20.7796   21.0196 H       1  UNL1        0.1485
     10 C          -4.3114  -19.0294   19.7560 C.3     1  UNL1        0.1200
     11 C          -2.8728  -18.6099   19.8214 C.ar    1  UNL1        0.0506
     12 C          -2.1426  -18.2366   18.5654 C.ar    1  UNL1        0.0036
     13 C          -0.7040  -17.8171   18.6307 C.ar    1  UNL1        0.0206
     14 C           0.0045  -17.7707   19.9521 C.ar    1  UNL1        0.1020
     15 N          -0.7258  -18.1439   21.2081 N.ar    1  UNL1       -0.2104
     16 C          -2.1643  -18.5635   21.1427 C.ar    1  UNL1        0.2224
     17 O          -2.8945  -18.9367   22.3988 O.3     1  UNL1       -0.4563
     18 C          -3.1329  -17.9060   23.4621 C.3     1  UNL1        0.2542
     19 C          -9.5761  -17.9539   24.0429 C.3     1  UNL1        0.0603
     20 C         -10.9992  -15.5130   20.0764 C.2     1  UNL1        0.1673
     21 C         -12.4636  -15.6684   19.7914 C.2     1  UNL1        0.2683
     22 N         -13.3181  -16.5092   20.6930 N.2     1  UNL1       -0.0278
     23 C         -12.7081  -17.1947   21.8796 C.2     1  UNL1        0.3719
     24 N         -13.2948  -18.0808   22.9382 N.2     1  UNL1       -0.0311
     25 C         -12.1930  -18.4730   23.8774 C.2     1  UNL1        0.2319
     26 C         -10.9253  -17.8294   23.3993 C.2     1  UNL1        0.0329
     27 C         -11.2436  -17.0393   22.1646 C.2     1  UNL1        0.0739
     28 C         -10.3892  -16.1984   21.2630 C.3     1  UNL1        0.1019
     29 C          -9.1137  -13.7537   19.7607 C.3     1  UNL1        0.2522
     30 O         -10.1447  -14.6721   19.1748 O.2     1  UNL1       -0.4715
@<TRIPOS>BOND
     1    29    30    1
     2    30    20    1
     3    20    21    2
     4    21    22    1
     5    22    23    2
     6    23    24    1
     7    24    25    2
     8    25    26    1
     9    26    19    1
    10    19     1    1
    11     1     2   ar
    12     2     3   ar
    13     3     4   ar
    14     4     8    1
    15     8    10    1
    16    10    11    1
    17    11    12   ar
    18    12    13   ar
    19    13    14   ar
    20    14    15   ar
    21    15    16   ar
    22    16    17    1
    23    17    18    1
    24     4     5   ar
    25     5     6   ar
    26     6     7    1
    27    26    27    2
    28    27    28    1
    29    28    20    1
    30    27    23    1
    31     6     1   ar
    32    16    11   ar
    33     8     9    1
@<TRIPOS>MOLECULE
*****
 30 33 0 0 0
SMALL
GASTEIGER

@<TRIPOS>ATOM
      1 C          -6.6739  -20.3405   20.9505 C.ar    1  UNL1        0.0284
      2 C          -6.9869  -20.6292   22.3887 C.ar    1  UNL1        0.0027
      3 C          -8.2737  -20.1446   22.9882 C.ar    1  UNL1        0.0339
      4 C          -9.2476  -19.3714   22.1493 C.ar    1  UNL1        0.1311
      5 N          -8.9345  -19.0827   20.7110 N.ar    1  UNL1       -0.2035
      6 C          -7.6477  -19.5672   20.1116 C.ar    1  UNL1        0.2196
      7 F          -7.3347  -19.2784   18.6733 F       1  UNL1       -0.1835
      8 N         -10.5344  -18.8868   22.7488 N.pl3   1  UNL1       -0.3143
      9 H         -11.3050  -18.6911   22.1681 H       1  UNL1        0.1485
     10 C         -10.6471  -18.7006   24.2329 C.3     1  UNL1        0.1200
     11 C          -9.8471  -17.6324   24.9176 C.ar    1  UNL1        0.0506
     12 C          -9.3500  -17.8481   26.3163 C.ar    1  UNL1        0.0036
     13 C          -8.5499  -16.7799   27.0010 C.ar    1  UNL1        0.0206
     14 C          -8.2469  -15.4960   26.2870 C.ar    1  UNL1        0.1020
     15 N          -8.7440  -15.2803   24.8883 N.ar    1  UNL1       -0.2104
     16 C          -9.5440  -16.3485   24.2036 C.ar    1  UNL1        0.2224
     17 O         -10.0411  -16.1328   22.8048 O.3     1  UNL1       -0.4563
     18 C          -9.0955  -15.6713   21.7357 C.3     1  UNL1        0.2542
     19 C          -5.3871  -20.8250   20.3511 C.3     1  UNL1        0.0603
     20 C          -3.8055  -17.1754   23.1610 C.2     1  UNL1        0.1673
     21 C          -2.6057  -16.4792   22.5904 C.2     1  UNL1        0.2683
     22 N          -2.0259  -16.9334   21.2836 N.2     1  UNL1       -0.0278
     23 C          -2.6460  -18.0839   20.5475 C.2     1  UNL1        0.3719
     24 N          -2.2974  -18.7499   19.2495 N.2     1  UNL1       -0.0311
     25 C          -3.2818  -19.8578   19.0179 C.2     1  UNL1        0.2319
     26 C          -4.2388  -19.8765   20.1728 C.2     1  UNL1        0.0329
     27 C          -3.8458  -18.7802   21.1182 C.2     1  UNL1        0.0739
     28 C          -4.4255  -18.3259   22.4249 C.3     1  UNL1        0.1019
     29 C          -5.1960  -15.4608   24.5308 C.3     1  UNL1        0.2522
     30 O          -4.3852  -16.7212   24.4677 O.2     1  UNL1       -0.4715
@<TRIPOS>BOND
     1    29    30    1
     2    30    20    1
     3    20    21    2
     4    21    22    1
     5    22    23    2
     6    23    24    1
     7    24    25    2
     8    25    26    1
     9    26    19    1
    10    19     1    1
    11     1     2   ar
    12     2     3   ar
    13     3     4   ar
    14     4     8    1
    15     8    10    1
    16    10    11    1
    17    11    12   ar
    18    12    13   ar
    19    13    14   ar
    20    14    15   ar
    21    15    16   ar
    22    16    17    1
    23    17    18    1
    24     4     5   ar
    25     5     6   ar
    26     6     7    1
    27    26    27    2
    28    27    28    1
    29    28    20    1
    30    27    23    1
    31     6     1   ar
    32    16    11   ar
    33     8     9    1
@<TRIPOS>MOLECULE
*****
 30 33 0 0 0
SMALL
GASTEIGER

@<TRIPOS>ATOM
      1 C          -7.1345  -16.3784   23.9911 C.ar    1  UNL1        0.0284
      2 C          -6.8468  -17.4452   22.9767 C.ar    1  UNL1        0.0027
      3 C          -5.4355  -17.8953   22.7412 C.ar    1  UNL1        0.0339
      4 C          -4.3117  -17.2786   23.5201 C.ar    1  UNL1        0.1311
      5 N          -4.5994  -16.2117   24.5346 N.ar    1  UNL1       -0.2035
      6 C          -6.0107  -15.7616   24.7701 C.ar    1  UNL1        0.2196
      7 F          -6.2983  -14.6948   25.7846 F       1  UNL1       -0.1835
      8 N          -2.9003  -17.7286   23.2845 N.pl3   1  UNL1       -0.3143
      9 H          -2.1602  -17.3064   23.7777 H       1  UNL1        0.1485
     10 C          -2.6166  -18.8220   22.2976 C.3     1  UNL1        0.1200
     11 C          -2.1811  -18.4797   20.9037 C.ar    1  UNL1        0.0506
     12 C          -0.8077  -17.9275   20.6613 C.ar    1  UNL1        0.0036
     13 C          -0.3722  -17.5852   19.2673 C.ar    1  UNL1        0.0206
     14 C          -1.3101  -17.7951   18.1157 C.ar    1  UNL1        0.1020
     15 N          -2.6836  -18.3473   18.3581 N.ar    1  UNL1       -0.2104
     16 C          -3.1190  -18.6896   19.7520 C.ar    1  UNL1        0.2224
     17 O          -4.4925  -19.2418   19.9944 O.3     1  UNL1       -0.4563
     18 C          -4.6998  -20.7248   20.0826 C.3     1  UNL1        0.2542
     19 C          -8.5458  -15.9284   24.2267 C.3     1  UNL1        0.0603
     20 C         -12.2622  -16.6233   21.1571 C.2     1  UNL1        0.1673
     21 C         -13.1517  -17.7592   21.5676 C.2     1  UNL1        0.2683
     22 N         -12.8452  -18.5403   22.8109 N.2     1  UNL1       -0.0278
     23 C         -11.6492  -18.1855   23.6438 C.2     1  UNL1        0.3719
     24 N         -11.0991  -18.7706   24.9107 N.2     1  UNL1       -0.0311
     25 C          -9.8696  -17.9963   25.2832 C.2     1  UNL1        0.2319
     26 C          -9.6598  -16.9327   24.2466 C.2     1  UNL1        0.0329
     27 C         -10.7598  -17.0496   23.2334 C.2     1  UNL1        0.0739
     28 C         -11.0663  -16.2685   21.9901 C.3     1  UNL1        0.1019
     29 C         -11.4636  -15.4703   18.9702 C.3     1  UNL1        0.2522
     30 O         -12.5687  -15.8421   19.9138 O.2     1  UNL1       -0.4715
@<TRIPOS>BOND
     1    29    30    1
     2    30    20    1
     3    20    21    2
     4    21    22    1
     5    22    23    2
     6    23    24    1
     7    24    25    2
     8    25    26    1
     9    26    19    1
    10    19     1    1
    11     1     2   ar
    12     2     3   ar
    13     3     4   ar
    14     4     8    1
    15     8    10    1
    16    10    11    1
    17    11    12   ar
    18    12    13   ar
    19    13    14   ar
    20    14    15   ar
    21    15    16   ar
    22    16    17    1
    23    17    18    1
    24     4     5   ar
    25     5     6   ar
    26     6     7    1
    27    26    27    2
    28    27    28    1
    29    28    20    1
    30    27    23    1
    31     6     1   ar
    32    16    11   ar
    33     8     9    1
@<TRIPOS>MOLECULE
*****
 30 33 0 0 0
SMALL
GASTEIGER

@<TRIPOS>ATOM
      1 C          -7.1713  -20.4702   21.4316 C.ar    1  UNL1        0.0284
      2 C          -7.5469  -20.6389   22.8740 C.ar    1  UNL1        0.0027
      3 C          -8.8795  -20.1549   23.3636 C.ar    1  UNL1        0.0339
      4 C          -9.8367  -19.5020   22.4109 C.ar    1  UNL1        0.1311
      5 N          -9.4611  -19.3333   20.9685 N.ar    1  UNL1       -0.2035
      6 C          -8.1284  -19.8173   20.4788 C.ar    1  UNL1        0.2196
      7 F          -7.7529  -19.6485   19.0364 F       1  UNL1       -0.1835
      8 N         -11.1693  -19.0180   22.9006 N.pl3   1  UNL1       -0.3143
      9 H         -11.8490  -19.6650   23.1983 H       1  UNL1        0.1485
     10 C         -11.4663  -17.5481   22.9367 C.3     1  UNL1        0.1200
     11 C         -11.2564  -16.7102   21.7104 C.ar    1  UNL1        0.0506
     12 C         -12.2633  -16.7418   20.5991 C.ar    1  UNL1        0.0036
     13 C         -12.0534  -15.9039   19.3728 C.ar    1  UNL1        0.0206
     14 C         -10.8366  -15.0343   19.2577 C.ar    1  UNL1        0.1020
     15 N          -9.8296  -15.0028   20.3691 N.ar    1  UNL1       -0.2104
     16 C         -10.0395  -15.8407   21.5954 C.ar    1  UNL1        0.2224
     17 O          -9.0325  -15.8091   22.7067 O.3     1  UNL1       -0.4563
     18 C          -7.7810  -16.6302   22.6084 C.3     1  UNL1        0.2542
     19 C          -5.8387  -20.9543   20.9420 C.3     1  UNL1        0.0603
     20 C          -4.0663  -17.1664   23.4373 C.2     1  UNL1        0.1673
     21 C          -2.9798  -16.4409   22.7004 C.2     1  UNL1        0.2683
     22 N          -2.5532  -16.9098   21.3410 N.2     1  UNL1       -0.0278
     23 C          -3.2132  -18.1043   20.7184 C.2     1  UNL1        0.3719
     24 N          -3.0056  -18.7935   19.4024 N.2     1  UNL1       -0.0311
     25 C          -3.9639  -19.9450   19.3260 C.2     1  UNL1        0.2319
     26 C          -4.7637  -19.9675   20.5947 C.2     1  UNL1        0.0329
     27 C          -4.2997  -18.8298   21.4553 C.2     1  UNL1        0.0739
     28 C          -4.7263  -18.3608   22.8147 C.3     1  UNL1        0.1019
     29 C          -5.3331  -15.4625   24.9346 C.3     1  UNL1        0.2522
     30 O          -4.4929  -16.6974   24.7968 O.2     1  UNL1       -0.4715
@<TRIPOS>BOND
     1    29    30    1
     2    30    20    1
     3    20    21    2
     4    21    22    1
     5    22    23    2
     6    23    24    1
     7    24    25    2
     8    25    26    1
     9    26    19    1
    10    19     1    1
    11     1     2   ar
    12     2     3   ar
    13     3     4   ar
    14     4     8    1
    15     8    10    1
    16    10    11    1
    17    11    12   ar
    18    12    13   ar
    19    13    14   ar
    20    14    15   ar
    21    15    16   ar
    22    16    17    1
    23    17    18    1
    24     4     5   ar
    25     5     6   ar
    26     6     7    1
    27    26    27    2
    28    27    28    1
    29    28    20    1
    30    27    23    1
    31     6     1   ar
    32    16    11   ar
    33     8     9    1
@<TRIPOS>MOLECULE
*****
 30 33 0 0 0
SMALL
GASTEIGER

@<TRIPOS>ATOM
      1 C          -7.4390  -16.1680   24.6098 C.ar    1  UNL1        0.0284
      2 C          -7.1774  -16.7726   23.2622 C.ar    1  UNL1        0.0027
      3 C          -5.7914  -16.7560   22.6889 C.ar    1  UNL1        0.0339
      4 C          -4.6669  -16.1348   23.4632 C.ar    1  UNL1        0.1311
      5 N          -4.9285  -15.5301   24.8108 N.ar    1  UNL1       -0.2035
      6 C          -6.3145  -15.5467   25.3841 C.ar    1  UNL1        0.2196
      7 F          -6.5760  -14.9420   26.7317 F       1  UNL1       -0.1835
      8 N          -3.2809  -16.1182   22.8899 N.pl3   1  UNL1       -0.3143
      9 H          -2.8591  -15.2627   22.6463 H       1  UNL1        0.1485
     10 C          -2.5375  -17.4053   22.6878 C.3     1  UNL1        0.1200
     11 C          -2.9571  -18.3512   21.6019 C.ar    1  UNL1        0.0506
     12 C          -3.9574  -19.4305   21.8926 C.ar    1  UNL1        0.0036
     13 C          -4.3771  -20.3764   20.8068 C.ar    1  UNL1        0.0206
     14 C          -3.7964  -20.2431   19.4302 C.ar    1  UNL1        0.1020
     15 N          -2.7961  -19.1638   19.1395 N.ar    1  UNL1       -0.2104
     16 C          -2.3765  -18.2179   20.2253 C.ar    1  UNL1        0.2224
     17 O          -1.3761  -17.1386   19.9345 O.3     1  UNL1       -0.4563
     18 C           0.0915  -17.4461   19.9731 C.3     1  UNL1        0.2542
     19 C          -8.8250  -16.1845   25.1831 C.3     1  UNL1        0.0603
     20 C         -11.9393  -16.5404   21.4560 C.2     1  UNL1        0.1673
     21 C         -12.7112  -17.8265   21.4631 C.2     1  UNL1        0.2683
     22 N         -12.4774  -18.8355   22.5481 N.2     1  UNL1       -0.0278
     23 C         -11.4717  -18.5586   23.6259 C.2     1  UNL1        0.3719
     24 N         -11.0295  -19.3579   24.8156 N.2     1  UNL1       -0.0311
     25 C          -9.9843  -18.5659   25.5438 C.2     1  UNL1        0.2319
     26 C          -9.7804  -17.2770   24.8040 C.2     1  UNL1        0.0329
     27 C         -10.6997  -17.2725   23.6187 C.2     1  UNL1        0.0739
     28 C         -10.9335  -16.2635   22.5337 C.3     1  UNL1        0.1019
     29 C         -11.5328  -15.7134   19.0268 C.3     1  UNL1        0.2522
     30 O         -12.1731  -15.5314   20.3710 O.2     1  UNL1       -0.4715
@<TRIPOS>BOND
     1    29    30    1
     2    30    20    1
     3    20    21    2
     4    21    22    1
     5    22    23    2
     6    23    24    1
     7    24    25    2
     8    25    26    1
     9    26    19    1
    10    19     1    1
    11     1     2   ar
    12     2     3   ar
    13     3     4   ar
    14     4     8    1
    15     8    10    1
    16    10    11    1
    17    11    12   ar
    18    12    13   ar
    19    13    14   ar
    20    14    15   ar
    21    15    16   ar
    22    16    17    1
    23    17    18    1
    24     4     5   ar
    25     5     6   ar
    26     6     7    1
    27    26    27    2
    28    27    28    1
    29    28    20    1
    30    27    23    1
    31     6     1   ar
    32    16    11   ar
    33     8     9    1
@<TRIPOS>MOLECULE
*****
 30 33 0 0 0
SMALL
GASTEIGER

@<TRIPOS>ATOM
      1 C         -12.2556   -3.5173   19.2267 C.ar    1  UNL1        0.0284
      2 C         -11.6772   -4.3585   18.1278 C.ar    1  UNL1        0.0027
      3 C         -11.9763   -5.8273   18.0709 C.ar    1  UNL1        0.0339
      4 C         -12.8539   -6.4549   19.1130 C.ar    1  UNL1        0.1311
      5 N         -13.4324   -5.6136   20.2119 N.ar    1  UNL1       -0.2035
      6 C         -13.1333   -4.1448   20.2689 C.ar    1  UNL1        0.2196
      7 F         -13.7118   -3.3036   21.3678 F       1  UNL1       -0.1835
      8 N         -13.1530   -7.9236   19.0561 N.pl3   1  UNL1       -0.3143
      9 H         -12.5482   -8.5664   19.4922 H       1  UNL1        0.1485
     10 C         -14.3737   -8.4130   18.3346 C.3     1  UNL1        0.1200
     11 C         -15.7350   -7.9569   18.7692 C.ar    1  UNL1        0.0506
     12 C         -16.4662   -8.7002   19.8475 C.ar    1  UNL1        0.0036
     13 C         -17.8275   -8.2442   20.2820 C.ar    1  UNL1        0.0206
     14 C         -18.4576   -7.0448   19.6383 C.ar    1  UNL1        0.1020
     15 N         -17.7263   -6.3014   18.5600 N.ar    1  UNL1       -0.2104
     16 C         -16.3651   -6.7575   18.1254 C.ar    1  UNL1        0.2224
     17 O         -15.6338   -6.0141   17.0471 O.3     1  UNL1       -0.4563
     18 C         -15.3885   -4.5408   17.1858 C.3     1  UNL1        0.2542
     19 C         -11.9565   -2.0485   19.2836 C.3     1  UNL1        0.0603
     20 C         -16.6699   -0.8267   19.1997 C.2     1  UNL1        0.1673
     21 C         -16.9914    0.1805   18.1356 C.2     1  UNL1        0.2683
     22 N         -15.9051    0.6977   17.2398 N.2     1  UNL1       -0.0278
     23 C         -14.4974    0.2078   17.4080 C.2     1  UNL1        0.3719
     24 N         -13.2273    0.5341   16.6797 N.2     1  UNL1       -0.0311
     25 C         -12.1209   -0.2715   17.2937 C.2     1  UNL1        0.2319
     26 C         -12.7071   -1.0955   18.4014 C.2     1  UNL1        0.0329
     27 C         -14.1760   -0.7993   18.4721 C.2     1  UNL1        0.0739
     28 C         -15.2622   -1.3166   19.3679 C.3     1  UNL1        0.1019
     29 C         -18.1376   -2.7939   20.0515 C.3     1  UNL1        0.2522
     30 O         -17.7562   -1.3439   20.0955 O.2     1  UNL1       -0.4715
@<TRIPOS>BOND
     1    29    30    1
     2    30    20    1
     3    20    21    2
     4    21    22    1
     5    22    23    2
     6    23    24    1
     7    24    25    2
     8    25    26    1
     9    26    19    1
    10    19     1    1
    11     1     2   ar
    12     2     3   ar
    13     3     4   ar
    14     4     8    1
    15     8    10    1
    16    10    11    1
    17    11    12   ar
    18    12    13   ar
    19    13    14   ar
    20    14    15   ar
    21    15    16   ar
    22    16    17    1
    23    17    18    1
    24     4     5   ar
    25     5     6   ar
    26     6     7    1
    27    26    27    2
    28    27    28    1
    29    28    20    1
    30    27    23    1
    31     6     1   ar
    32    16    11   ar
    33     8     9    1
@<TRIPOS>MOLECULE
*****
 30 33 0 0 0
SMALL
GASTEIGER

@<TRIPOS>ATOM
      1 C           5.1345   -3.5835   21.8942 C.ar    1  UNL1        0.0284
      2 C           4.2910   -2.8660   22.9060 C.ar    1  UNL1        0.0027
      3 C           4.8692   -2.5009   24.2411 C.ar    1  UNL1        0.0339
      4 C           6.2909   -2.8534   24.5644 C.ar    1  UNL1        0.1311
      5 N           7.1344   -3.5710   23.5525 N.ar    1  UNL1       -0.2035
      6 C           6.5562   -3.9360   22.2174 C.ar    1  UNL1        0.2196
      7 F           7.3997   -4.6535   21.2057 F       1  UNL1       -0.1835
      8 N           6.8691   -2.4884   25.8994 N.pl3   1  UNL1       -0.3143
      9 H           7.8245   -2.2638   25.9773 H       1  UNL1        0.1485
     10 C           5.9917   -2.4655   27.1158 C.3     1  UNL1        0.1200
     11 C           6.3075   -3.3504   28.2851 C.ar    1  UNL1        0.0506
     12 C           6.4268   -2.7625   29.6599 C.ar    1  UNL1        0.0036
     13 C           6.7425   -3.6474   30.8292 C.ar    1  UNL1        0.0206
     14 C           6.9390   -5.1203   30.6237 C.ar    1  UNL1        0.1020
     15 N           6.8197   -5.7081   29.2488 N.ar    1  UNL1       -0.2104
     16 C           6.5040   -4.8232   28.0796 C.ar    1  UNL1        0.2224
     17 O           6.3847   -5.4111   26.7047 O.3     1  UNL1       -0.4563
     18 C           7.5104   -6.2232   26.1360 C.3     1  UNL1        0.2542
     19 C           4.5562   -3.9485   20.5591 C.3     1  UNL1        0.0603
     20 C           1.5140   -0.2452   19.6955 C.2     1  UNL1        0.1673
     21 C           1.8660    0.5201   18.4544 C.2     1  UNL1        0.2683
     22 N           3.0509    0.1100   17.6312 N.2     1  UNL1       -0.0278
     23 C           3.8838   -1.0654   18.0490 C.2     1  UNL1        0.3719
     24 N           5.1006   -1.6995   17.4429 N.2     1  UNL1       -0.0311
     25 C           5.5006   -2.8567   18.3094 C.2     1  UNL1        0.2319
     26 C           4.5310   -2.9378   19.4511 C.2     1  UNL1        0.0329
     27 C           3.5318   -1.8307   19.2901 C.2     1  UNL1        0.0739
     28 C           2.3469   -1.4206   20.1134 C.3     1  UNL1        0.1019
     29 C          -0.1025    1.6012   20.5487 C.3     1  UNL1        0.2522
     30 O           0.3290    0.1650   20.5188 O.2     1  UNL1       -0.4715
@<TRIPOS>BOND
     1    29    30    1
     2    30    20    1
     3    20    21    2
     4    21    22    1
     5    22    23    2
     6    23    24    1
     7    24    25    2
     8    25    26    1
     9    26    19    1
    10    19     1    1
    11     1     2   ar
    12     2     3   ar
    13     3     4   ar
    14     4     8    1
    15     8    10    1
    16    10    11    1
    17    11    12   ar
    18    12    13   ar
    19    13    14   ar
    20    14    15   ar
    21    15    16   ar
    22    16    17    1
    23    17    18    1
    24     4     5   ar
    25     5     6   ar
    26     6     7    1
    27    26    27    2
    28    27    28    1
    29    28    20    1
    30    27    23    1
    31     6     1   ar
    32    16    11   ar
    33     8     9    1
@<TRIPOS>MOLECULE
*****
 30 33 0 0 0
SMALL
GASTEIGER

@<TRIPOS>ATOM
      1 C           5.2419   -3.5244   21.7569 C.ar    1  UNL1        0.0284
      2 C           4.6357   -3.0101   23.0289 C.ar    1  UNL1        0.0027
      3 C           5.5087   -2.7296   24.2160 C.ar    1  UNL1        0.0339
      4 C           6.9880   -2.9633   24.1311 C.ar    1  UNL1        0.1311
      5 N           7.5942   -3.4776   22.8590 N.ar    1  UNL1       -0.2035
      6 C           6.7211   -3.7582   21.6719 C.ar    1  UNL1        0.2196
      7 F           7.3274   -4.2725   20.3999 F       1  UNL1       -0.1835
      8 N           7.8610   -2.6828   25.3182 N.pl3   1  UNL1       -0.3143
      9 H           7.7656   -1.8354   25.8100 H       1  UNL1        0.1485
     10 C           8.8793   -3.6935   25.7558 C.3     1  UNL1        0.1200
     11 C           8.5147   -5.1472   25.8172 C.ar    1  UNL1        0.0506
     12 C           9.2916   -6.1498   25.0165 C.ar    1  UNL1        0.0036
     13 C           8.9271   -7.6035   25.0779 C.ar    1  UNL1        0.0206
     14 C           7.7856   -8.0547   25.9402 C.ar    1  UNL1        0.1020
     15 N           7.0087   -7.0521   26.7410 N.ar    1  UNL1       -0.2104
     16 C           7.3733   -5.5984   26.6795 C.ar    1  UNL1        0.2224
     17 O           6.5963   -4.5958   27.4804 O.3     1  UNL1       -0.4563
     18 C           6.5666   -4.6922   28.9770 C.3     1  UNL1        0.2542
     19 C           4.3689   -3.8049   20.5698 C.3     1  UNL1        0.0603
     20 C           1.2513   -0.1427   19.8049 C.2     1  UNL1        0.1673
     21 C           1.5363    0.6097   18.5389 C.2     1  UNL1        0.2683
     22 N           2.6851    0.2003   17.6656 N.2     1  UNL1       -0.0278
     23 C           3.5489   -0.9615   18.0582 C.2     1  UNL1        0.3719
     24 N           4.7420   -1.5917   17.4031 N.2     1  UNL1       -0.0311
     25 C           5.1944   -2.7336   18.2643 C.2     1  UNL1        0.2319
     26 C           4.2809   -2.8091   19.4516 C.2     1  UNL1        0.0329
     27 C           3.2639   -1.7138   19.3242 C.2     1  UNL1        0.0739
     28 C           2.1151   -1.3044   20.1975 C.3     1  UNL1        0.1019
     29 C           0.0945    1.6223   21.3204 C.3     1  UNL1        0.2522
     30 O           0.1025    0.2667   20.6782 O.2     1  UNL1       -0.4715
@<TRIPOS>BOND
     1    29    30    1
     2    30    20    1
     3    20    21    2
     4    21    22    1
     5    22    23    2
     6    23    24    1
     7    24    25    2
     8    25    26    1
     9    26    19    1
    10    19     1    1
    11     1     2   ar
    12     2     3   ar
    13     3     4   ar
    14     4     8    1
    15     8    10    1
    16    10    11    1
    17    11    12   ar
    18    12    13   ar
    19    13    14   ar
    20    14    15   ar
    21    15    16   ar
    22    16    17    1
    23    17    18    1
    24     4     5   ar
    25     5     6   ar
    26     6     7    1
    27    26    27    2
    28    27    28    1
    29    28    20    1
    30    27    23    1
    31     6     1   ar
    32    16    11   ar
    33     8     9    1
@<TRIPOS>MOLECULE
*****
 30 33 0 0 0
SMALL
GASTEIGER

@<TRIPOS>ATOM
      1 C         -11.8952   -3.6315   19.1988 C.ar    1  UNL1        0.0284
      2 C         -13.2189   -4.0406   19.7737 C.ar    1  UNL1        0.0027
      3 C         -13.6603   -5.4720   19.6959 C.ar    1  UNL1        0.0339
      4 C         -12.7781   -6.4945   19.0430 C.ar    1  UNL1        0.1311
      5 N         -11.4543   -6.0854   18.4681 N.ar    1  UNL1       -0.2035
      6 C         -11.0129   -4.6540   18.5460 C.ar    1  UNL1        0.2196
      7 F          -9.6892   -4.2450   17.9710 F       1  UNL1       -0.1835
      8 N         -13.2195   -7.9259   18.9652 N.pl3   1  UNL1       -0.3143
      9 H         -13.0062   -8.5474   19.6983 H       1  UNL1        0.1485
     10 C         -13.9860   -8.4104   17.7703 C.3     1  UNL1        0.1200
     11 C         -15.3817   -8.9343   17.9365 C.ar    1  UNL1        0.0506
     12 C         -15.6062  -10.3824   18.2564 C.ar    1  UNL1        0.0036
     13 C         -17.0019  -10.9062   18.4226 C.ar    1  UNL1        0.0206
     14 C         -18.1732   -9.9819   18.2690 C.ar    1  UNL1        0.1020
     15 N         -17.9486   -8.5336   17.9492 N.ar    1  UNL1       -0.2104
     16 C         -16.5530   -8.0099   17.7829 C.ar    1  UNL1        0.2224
     17 O         -16.3285   -6.5616   17.4631 O.3     1  UNL1       -0.4563
     18 C         -17.1324   -5.5057   18.1624 C.3     1  UNL1        0.2542
     19 C         -11.4538   -2.2001   19.2767 C.3     1  UNL1        0.0603
     20 C         -15.4318    0.3689   18.1399 C.2     1  UNL1        0.1673
     21 C         -15.2628    1.1810   16.8902 C.2     1  UNL1        0.2683
     22 N         -13.9654    1.1398   16.1385 N.2     1  UNL1       -0.0278
     23 C         -12.8369    0.2864   16.6366 C.2     1  UNL1        0.3719
     24 N         -11.4526    0.0460   16.1112 N.2     1  UNL1       -0.0311
     25 C         -10.7660   -0.9146   17.0362 C.2     1  UNL1        0.2319
     26 C         -11.7259   -1.2681   18.1333 C.2     1  UNL1        0.0329
     27 C         -13.0058   -0.5258   17.8863 C.2     1  UNL1        0.0739
     28 C         -14.3032   -0.4845   18.6380 C.3     1  UNL1        0.1019
     29 C         -16.8338   -0.2324   20.2429 C.3     1  UNL1        0.2522
     30 O         -16.7292    0.4102   18.8916 O.2     1  UNL1       -0.4715
@<TRIPOS>BOND
     1    29    30    1
     2    30    20    1
     3    20    21    2
     4    21    22    1
     5    22    23    2
     6    23    24    1
     7    24    25    2
     8    25    26    1
     9    26    19    1
    10    19     1    1
    11     1     2   ar
    12     2     3   ar
    13     3     4   ar
    14     4     8    1
    15     8    10    1
    16    10    11    1
    17    11    12   ar
    18    12    13   ar
    19    13    14   ar
    20    14    15   ar
    21    15    16   ar
    22    16    17    1
    23    17    18    1
    24     4     5   ar
    25     5     6   ar
    26     6     7    1
    27    26    27    2
    28    27    28    1
    29    28    20    1
    30    27    23    1
    31     6     1   ar
    32    16    11   ar
    33     8     9    1
