@<TRIPOS>MOLECULE
*****
 31 35 0 0 0
SMALL
GASTEIGER

@<TRIPOS>ATOM
      1 C          -9.9926  -17.0866   22.9820 C.ar    1  UNL1        0.0436
      2 C         -11.4030  -16.8042   23.4073 C.ar    1  UNL1        0.0142
      3 C         -12.5501  -17.3713   22.6246 C.ar    1  UNL1        0.0010
      4 C         -12.2867  -18.2207   21.4167 C.ar    1  UNL1       -0.0031
      5 C         -10.8763  -18.5031   20.9914 C.ar    1  UNL1       -0.0089
      6 C          -9.7292  -17.9360   21.7741 C.ar    1  UNL1       -0.0101
      7 C          -8.3187  -18.2184   21.3489 C.3     1  UNL1        0.0447
      8 C          -8.0553  -19.0678   20.1409 C.3     1  UNL1        0.0782
      9 N          -9.2024  -19.6349   19.3582 N.3     1  UNL1       -0.2674
     10 C          -8.9391  -20.4843   18.1503 C.3     1  UNL1        0.0899
     11 C         -10.6129  -19.3525   19.7835 C.3     1  UNL1        0.0989
     12 C          -5.4041  -14.8183   26.1127 C.3     1  UNL1        0.0897
     13 N          -6.5512  -15.3854   25.3300 N.3     1  UNL1       -0.2686
     14 C          -7.6727  -16.0825   26.0415 C.3     1  UNL1        0.0938
     15 C          -8.8199  -16.6495   25.2588 C.3     1  UNL1        0.1081
     16 N          -8.8454  -16.5195   23.7647 N.pl3   1  UNL1       -0.3049
     17 C          -7.7239  -15.8224   23.0532 C.3     1  UNL1        0.1081
     18 C          -6.5768  -15.2553   23.8359 C.3     1  UNL1        0.0938
     19 C          -6.6448  -19.3502   19.7157 C.3     1  UNL1        0.0888
     20 N          -5.6767  -19.9596   20.6859 N.3     1  UNL1       -0.2667
     21 C          -5.6900  -21.4397   20.9291 C.3     1  UNL1        0.0899
     22 C          -4.6952  -19.0888   21.4130 C.3     1  UNL1        0.0978
     23 C          -4.9290  -18.7346   22.8517 C.3     1  UNL1        0.0224
     24 C          -3.9476  -17.8639   23.5787 C.3     1  UNL1        0.0065
     25 C          -2.7323  -17.3474   22.8670 C.3     1  UNL1        0.0277
     26 C          -2.4985  -17.7017   21.4284 C.ar    1  UNL1       -0.0073
     27 C          -1.2833  -17.1852   20.7167 C.ar    1  UNL1       -0.0015
     28 C          -1.0495  -17.5395   19.2780 C.ar    1  UNL1        0.0203
     29 C          -2.0310  -18.4102   18.5509 C.ar    1  UNL1        0.0985
     30 N          -3.2462  -18.9267   19.2626 N.ar    1  UNL1       -0.2471
     31 C          -3.4800  -18.5724   20.7014 C.ar    1  UNL1        0.0695
@<TRIPOS>BOND
     1    12    13    1
     2    13    14    1
     3    14    15    1
     4    15    16    1
     5    16     1    1
     6     1     2   ar
     7     2     3   ar
     8     3     4   ar
     9     4     5   ar
    10     5     6   ar
    11     6     7    1
    12     7     8    1
    13     8    19    1
    14    19    20    1
    15    20    21    1
    16    22    20    1
    17    22    23    1
    18    23    24    1
    19    24    25    1
    20    25    26    1
    21    26    27   ar
    22    27    28   ar
    23    28    29   ar
    24    29    30   ar
    25    30    31   ar
    26     8     9    1
    27     9    10    1
    28     9    11    1
    29    16    17    1
    30    17    18    1
    31    18    13    1
    32     6     1   ar
    33    31    22    1
    34    11     5    1
    35    31    26   ar
@<TRIPOS>MOLECULE
*****
 31 35 0 0 0
SMALL
GASTEIGER

@<TRIPOS>ATOM
      1 C          -7.5157  -16.0000   24.0053 C.ar    1  UNL1        0.0436
      2 C          -7.4140  -15.1634   25.2462 C.ar    1  UNL1        0.0142
      3 C          -6.1200  -15.0965   26.0016 C.ar    1  UNL1        0.0010
      4 C          -4.9275  -15.8662   25.5163 C.ar    1  UNL1       -0.0031
      5 C          -5.0291  -16.7028   24.2754 C.ar    1  UNL1       -0.0089
      6 C          -6.3232  -16.7697   23.5200 C.ar    1  UNL1       -0.0101
      7 C          -6.4249  -17.6064   22.2791 C.3     1  UNL1        0.0447
      8 C          -5.2324  -18.3761   21.7937 C.3     1  UNL1        0.0782
      9 N          -3.9383  -18.3091   22.5492 N.3     1  UNL1       -0.2674
     10 C          -2.7458  -19.0788   22.0639 C.3     1  UNL1        0.0899
     11 C          -3.8366  -17.4725   23.7901 C.3     1  UNL1        0.0989
     12 C         -12.6922  -16.2678   20.9833 C.3     1  UNL1        0.0897
     13 N         -11.3981  -16.2009   21.7388 N.3     1  UNL1       -0.2686
     14 C         -10.1415  -15.7770   21.0378 C.3     1  UNL1        0.0938
     15 C          -8.8473  -15.7100   21.7934 C.3     1  UNL1        0.1081
     16 N          -8.8098  -16.0670   23.2498 N.pl3   1  UNL1       -0.3049
     17 C         -10.0664  -16.4909   23.9507 C.3     1  UNL1        0.1081
     18 C         -11.3605  -16.5578   23.1952 C.3     1  UNL1        0.0938
     19 C          -5.3340  -19.2127   20.5529 C.3     1  UNL1        0.0888
     20 N          -6.3458  -20.3172   20.4738 N.3     1  UNL1       -0.2667
     21 C          -5.9024  -21.7478   20.5569 C.3     1  UNL1        0.0899
     22 C          -7.8010  -19.9912   20.3117 C.3     1  UNL1        0.0978
     23 C          -8.3388  -19.6112   18.9640 C.3     1  UNL1        0.0224
     24 C          -9.7939  -19.2852   18.8020 C.3     1  UNL1        0.0065
     25 C         -10.7112  -19.3393   19.9876 C.3     1  UNL1        0.0277
     26 C         -10.1734  -19.7193   21.3353 C.ar    1  UNL1       -0.0073
     27 C         -11.0907  -19.7734   22.5209 C.ar    1  UNL1       -0.0015
     28 C         -10.5528  -20.1535   23.8685 C.ar    1  UNL1        0.0203
     29 C          -9.0976  -20.4795   24.0306 C.ar    1  UNL1        0.0985
     30 N          -8.1804  -20.4254   22.8450 N.ar    1  UNL1       -0.2471
     31 C          -8.7183  -20.0453   21.4973 C.ar    1  UNL1        0.0695
@<TRIPOS>BOND
     1    12    13    1
     2    13    14    1
     3    14    15    1
     4    15    16    1
     5    16     1    1
     6     1     2   ar
     7     2     3   ar
     8     3     4   ar
     9     4     5   ar
    10     5     6   ar
    11     6     7    1
    12     7     8    1
    13     8    19    1
    14    19    20    1
    15    20    21    1
    16    22    20    1
    17    22    23    1
    18    23    24    1
    19    24    25    1
    20    25    26    1
    21    26    27   ar
    22    27    28   ar
    23    28    29   ar
    24    29    30   ar
    25    30    31   ar
    26     8     9    1
    27     9    10    1
    28     9    11    1
    29    16    17    1
    30    17    18    1
    31    18    13    1
    32     6     1   ar
    33    31    22    1
    34    11     5    1
    35    31    26   ar
@<TRIPOS>MOLECULE
*****
 31 35 0 0 0
SMALL
GASTEIGER

@<TRIPOS>ATOM
      1 C           3.6918   -1.7147   19.9490 C.ar    1  UNL1        0.0436
      2 C           4.0343   -2.3552   18.6366 C.ar    1  UNL1        0.0142
      3 C           5.0051   -3.4977   18.5903 C.ar    1  UNL1        0.0010
      4 C           5.6334   -3.9998   19.8565 C.ar    1  UNL1       -0.0031
      5 C           5.2908   -3.3593   21.1689 C.ar    1  UNL1       -0.0089
      6 C           4.3201   -2.2168   21.2152 C.ar    1  UNL1       -0.0101
      7 C           3.9775   -1.5763   22.5276 C.3     1  UNL1        0.0447
      8 C           4.6058   -2.0784   23.7938 C.3     1  UNL1        0.0782
      9 N           5.5766   -3.2210   23.7475 N.3     1  UNL1       -0.2674
     10 C           6.2048   -3.7231   25.0137 C.3     1  UNL1        0.0899
     11 C           5.9191   -3.8614   22.4351 C.3     1  UNL1        0.0989
     12 C          -0.1915    2.8554   20.1342 C.3     1  UNL1        0.0897
     13 N           0.7793    1.7129   20.0879 N.3     1  UNL1       -0.2686
     14 C           2.2375    1.9767   19.8549 C.3     1  UNL1        0.0938
     15 C           3.2083    0.8341   19.8086 C.3     1  UNL1        0.1081
     16 N           2.7210   -0.5721   19.9953 N.pl3   1  UNL1       -0.3049
     17 C           1.2629   -0.8359   20.2283 C.3     1  UNL1        0.1081
     18 C           0.2920    0.3066   20.2746 C.3     1  UNL1        0.0938
     19 C           4.2632   -1.4380   25.1062 C.3     1  UNL1        0.0888
     20 N           4.0303    0.0419   25.1805 N.3     1  UNL1       -0.2667
     21 C           5.1961    0.9806   25.2802 C.3     1  UNL1        0.0899
     22 C           2.6316    0.5833   25.1550 C.3     1  UNL1        0.0978
     23 C           2.0141    1.0047   23.8546 C.3     1  UNL1        0.0224
     24 C           0.6154    1.5459   23.8292 C.3     1  UNL1        0.0065
     25 C          -0.1658    1.6658   25.1041 C.3     1  UNL1        0.0277
     26 C           0.4518    1.2444   26.4045 C.ar    1  UNL1       -0.0073
     27 C          -0.3294    1.3642   27.6794 C.ar    1  UNL1       -0.0015
     28 C           0.2881    0.9428   28.9798 C.ar    1  UNL1        0.0203
     29 C           1.6869    0.4015   29.0053 C.ar    1  UNL1        0.0985
     30 N           2.4680    0.2816   27.7303 N.ar    1  UNL1       -0.2471
     31 C           1.8504    0.7031   26.4299 C.ar    1  UNL1        0.0695
@<TRIPOS>BOND
     1    12    13    1
     2    13    14    1
     3    14    15    1
     4    15    16    1
     5    16     1    1
     6     1     2   ar
     7     2     3   ar
     8     3     4   ar
     9     4     5   ar
    10     5     6   ar
    11     6     7    1
    12     7     8    1
    13     8    19    1
    14    19    20    1
    15    20    21    1
    16    22    20    1
    17    22    23    1
    18    23    24    1
    19    24    25    1
    20    25    26    1
    21    26    27   ar
    22    27    28   ar
    23    28    29   ar
    24    29    30   ar
    25    30    31   ar
    26     8     9    1
    27     9    10    1
    28     9    11    1
    29    16    17    1
    30    17    18    1
    31    18    13    1
    32     6     1   ar
    33    31    22    1
    34    11     5    1
    35    31    26   ar
@<TRIPOS>MOLECULE
*****
 31 35 0 0 0
SMALL
GASTEIGER

@<TRIPOS>ATOM
      1 C           2.7794   -0.0351   22.5414 C.ar    1  UNL1        0.0436
      2 C           1.5640    0.7706   22.1897 C.ar    1  UNL1        0.0142
      3 C           0.8245    0.4945   20.9142 C.ar    1  UNL1        0.0010
      4 C           1.3002   -0.5874   19.9905 C.ar    1  UNL1       -0.0031
      5 C           2.5156   -1.3931   20.3422 C.ar    1  UNL1       -0.0089
      6 C           3.2551   -1.1170   21.6176 C.ar    1  UNL1       -0.0101
      7 C           4.4705   -1.9227   21.9694 C.3     1  UNL1        0.0447
      8 C           4.9463   -3.0046   21.0457 C.3     1  UNL1        0.0782
      9 N           4.2066   -3.2807   19.7702 N.3     1  UNL1       -0.2674
     10 C           4.6824   -4.3625   18.8464 C.3     1  UNL1        0.0899
     11 C           2.9913   -2.4749   19.4185 C.3     1  UNL1        0.0989
     12 C           5.7378    1.0691   27.6432 C.3     1  UNL1        0.0897
     13 N           4.9982    0.7931   26.3678 N.3     1  UNL1       -0.2686
     14 C           5.3437    1.5523   25.1211 C.3     1  UNL1        0.0938
     15 C           4.6040    1.2762   23.8456 C.3     1  UNL1        0.1081
     16 N           3.5190    0.2410   23.8168 N.pl3   1  UNL1       -0.3049
     17 C           3.1736   -0.5183   25.0635 C.3     1  UNL1        0.1081
     18 C           3.9131   -0.2423   26.3390 C.3     1  UNL1        0.0938
     19 C           6.1616   -3.8103   21.3974 C.3     1  UNL1        0.0888
     20 N           7.1571   -3.2747   22.3833 N.3     1  UNL1       -0.2667
     21 C           8.2484   -2.3546   21.9226 C.3     1  UNL1        0.0899
     22 C           7.0611   -3.6592   23.8301 C.3     1  UNL1        0.0978
     23 C           6.5073   -2.6872   24.8293 C.3     1  UNL1        0.0224
     24 C           6.4114   -3.0717   26.2760 C.3     1  UNL1        0.0065
     25 C           6.8693   -4.4282   26.7234 C.3     1  UNL1        0.0277
     26 C           7.4230   -5.4002   25.7242 C.ar    1  UNL1       -0.0073
     27 C           7.8809   -6.7567   26.1717 C.ar    1  UNL1       -0.0015
     28 C           8.4347   -7.7287   25.1725 C.ar    1  UNL1        0.0203
     29 C           8.5306   -7.3442   23.7257 C.ar    1  UNL1        0.0985
     30 N           8.0728   -5.9877   23.2782 N.ar    1  UNL1       -0.2471
     31 C           7.5190   -5.0157   24.2775 C.ar    1  UNL1        0.0695
@<TRIPOS>BOND
     1    12    13    1
     2    13    14    1
     3    14    15    1
     4    15    16    1
     5    16     1    1
     6     1     2   ar
     7     2     3   ar
     8     3     4   ar
     9     4     5   ar
    10     5     6   ar
    11     6     7    1
    12     7     8    1
    13     8    19    1
    14    19    20    1
    15    20    21    1
    16    22    20    1
    17    22    23    1
    18    23    24    1
    19    24    25    1
    20    25    26    1
    21    26    27   ar
    22    27    28   ar
    23    28    29   ar
    24    29    30   ar
    25    30    31   ar
    26     8     9    1
    27     9    10    1
    28     9    11    1
    29    16    17    1
    30    17    18    1
    31    18    13    1
    32     6     1   ar
    33    31    22    1
    34    11     5    1
    35    31    26   ar
@<TRIPOS>MOLECULE
*****
 31 35 0 0 0
SMALL
GASTEIGER

@<TRIPOS>ATOM
      1 C           2.5592    0.4068   19.4286 C.ar    1  UNL1        0.0436
      2 C           2.8032    0.1407   17.9728 C.ar    1  UNL1        0.0142
      3 C           3.6837   -1.0000   17.5562 C.ar    1  UNL1        0.0010
      4 C           4.3201   -1.8746   18.5954 C.ar    1  UNL1       -0.0031
      5 C           4.0761   -1.6085   20.0513 C.ar    1  UNL1       -0.0089
      6 C           3.1956   -0.4678   20.4679 C.ar    1  UNL1       -0.0101
      7 C           2.9516   -0.2016   21.9238 C.3     1  UNL1        0.0447
      8 C           3.5880   -1.0762   22.9631 C.3     1  UNL1        0.0782
      9 N           4.4684   -2.2169   22.5464 N.3     1  UNL1       -0.2674
     10 C           5.1049   -3.0915   23.5857 C.3     1  UNL1        0.0899
     11 C           4.7125   -2.4831   21.0906 C.3     1  UNL1        0.0989
     12 C          -0.9625    4.9698   21.0952 C.3     1  UNL1        0.0897
     13 N          -0.0821    3.8290   20.6786 N.3     1  UNL1       -0.2686
     14 C          -0.6549    2.4490   20.5464 C.3     1  UNL1        0.0938
     15 C           0.2256    1.3083   20.1297 C.3     1  UNL1        0.1081
     16 N           1.6788    1.5476   19.8453 N.pl3   1  UNL1       -0.3049
     17 C           2.2516    2.9276   19.9775 C.3     1  UNL1        0.1081
     18 C           1.3712    4.0683   20.3941 C.3     1  UNL1        0.0938
     19 C           3.3440   -0.8101   24.4190 C.3     1  UNL1        0.0888
     20 N           3.1808    0.5990   24.9068 N.3     1  UNL1       -0.2667
     21 C           4.3897    1.4513   25.1554 C.3     1  UNL1        0.0899
     22 C           1.8085    1.1557   25.1460 C.3     1  UNL1        0.0978
     23 C           1.1109    1.9226   24.0620 C.3     1  UNL1        0.0224
     24 C          -0.2613    2.4792   24.3012 C.3     1  UNL1        0.0065
     25 C          -0.9358    2.2689   25.6244 C.3     1  UNL1        0.0277
     26 C          -0.2382    1.5020   26.7083 C.ar    1  UNL1       -0.0073
     27 C          -0.9127    1.2917   28.0315 C.ar    1  UNL1       -0.0015
     28 C          -0.2150    0.5247   29.1155 C.ar    1  UNL1        0.0203
     29 C           1.1572   -0.0319   28.8763 C.ar    1  UNL1        0.0985
     30 N           1.8317    0.1784   27.5531 N.ar    1  UNL1       -0.2471
     31 C           1.1340    0.9454   26.4691 C.ar    1  UNL1        0.0695
@<TRIPOS>BOND
     1    12    13    1
     2    13    14    1
     3    14    15    1
     4    15    16    1
     5    16     1    1
     6     1     2   ar
     7     2     3   ar
     8     3     4   ar
     9     4     5   ar
    10     5     6   ar
    11     6     7    1
    12     7     8    1
    13     8    19    1
    14    19    20    1
    15    20    21    1
    16    22    20    1
    17    22    23    1
    18    23    24    1
    19    24    25    1
    20    25    26    1
    21    26    27   ar
    22    27    28   ar
    23    28    29   ar
    24    29    30   ar
    25    30    31   ar
    26     8     9    1
    27     9    10    1
    28     9    11    1
    29    16    17    1
    30    17    18    1
    31    18    13    1
    32     6     1   ar
    33    31    22    1
    34    11     5    1
    35    31    26   ar
@<TRIPOS>MOLECULE
*****
 31 35 0 0 0
SMALL
GASTEIGER

@<TRIPOS>ATOM
      1 C          -3.6625    4.3076   23.9396 C.ar    1  UNL1        0.0436
      2 C          -4.8882    5.0155   24.4360 C.ar    1  UNL1        0.0142
      3 C          -5.2246    4.9971   25.8977 C.ar    1  UNL1        0.0010
      4 C          -4.3353    4.2709   26.8629 C.ar    1  UNL1       -0.0031
      5 C          -3.1096    3.5629   26.3664 C.ar    1  UNL1       -0.0089
      6 C          -2.7732    3.5813   24.9048 C.ar    1  UNL1       -0.0101
      7 C          -1.5475    2.8734   24.4083 C.3     1  UNL1        0.0447
      8 C          -0.6581    2.1471   25.3735 C.3     1  UNL1        0.0782
      9 N          -0.9946    2.1287   26.8352 N.3     1  UNL1       -0.2674
     10 C          -0.1053    1.4024   27.8004 C.3     1  UNL1        0.0899
     11 C          -2.2203    2.8367   27.3316 C.3     1  UNL1        0.0989
     12 C          -2.3168    4.3811   18.0929 C.3     1  UNL1        0.0897
     13 N          -2.6532    4.3627   19.5545 N.3     1  UNL1       -0.2686
     14 C          -3.6138    3.3428   20.0902 C.3     1  UNL1        0.0938
     15 C          -3.9502    3.3244   21.5520 C.3     1  UNL1        0.1081
     16 N          -3.3261    4.3260   22.4778 N.pl3   1  UNL1       -0.3049
     17 C          -2.3655    5.3459   21.9421 C.3     1  UNL1        0.1081
     18 C          -2.0291    5.3643   20.4805 C.3     1  UNL1        0.0938
     19 C           0.5675    1.4392   24.8770 C.3     1  UNL1        0.0888
     20 N           1.3278    1.9876   23.7060 N.3     1  UNL1       -0.2667
     21 C           2.2182    3.1817   23.8826 C.3     1  UNL1        0.0899
     22 C           1.1977    1.3418   22.3584 C.3     1  UNL1        0.0978
     23 C           0.1912    1.8581   21.3733 C.3     1  UNL1        0.0224
     24 C           0.0610    1.2123   20.0258 C.3     1  UNL1        0.0065
     25 C           0.9374    0.0502   19.6632 C.3     1  UNL1        0.0277
     26 C           1.9439   -0.4661   20.6482 C.ar    1  UNL1       -0.0073
     27 C           2.8203   -1.6282   20.2857 C.ar    1  UNL1       -0.0015
     28 C           3.8268   -2.1446   21.2707 C.ar    1  UNL1        0.0203
     29 C           3.9570   -1.4988   22.6184 C.ar    1  UNL1        0.0985
     30 N           3.0806   -0.3367   22.9809 N.ar    1  UNL1       -0.2471
     31 C           2.0741    0.1797   21.9958 C.ar    1  UNL1        0.0695
@<TRIPOS>BOND
     1    12    13    1
     2    13    14    1
     3    14    15    1
     4    15    16    1
     5    16     1    1
     6     1     2   ar
     7     2     3   ar
     8     3     4   ar
     9     4     5   ar
    10     5     6   ar
    11     6     7    1
    12     7     8    1
    13     8    19    1
    14    19    20    1
    15    20    21    1
    16    22    20    1
    17    22    23    1
    18    23    24    1
    19    24    25    1
    20    25    26    1
    21    26    27   ar
    22    27    28   ar
    23    28    29   ar
    24    29    30   ar
    25    30    31   ar
    26     8     9    1
    27     9    10    1
    28     9    11    1
    29    16    17    1
    30    17    18    1
    31    18    13    1
    32     6     1   ar
    33    31    22    1
    34    11     5    1
    35    31    26   ar
@<TRIPOS>MOLECULE
*****
 31 35 0 0 0
SMALL
GASTEIGER

@<TRIPOS>ATOM
      1 C           6.4671   -3.1426   28.9999 C.ar    1  UNL1        0.0436
      2 C           6.5309   -3.3488   30.4842 C.ar    1  UNL1        0.0142
      3 C           6.9522   -4.6770   31.0394 C.ar    1  UNL1        0.0010
      4 C           7.3097   -5.7990   30.1102 C.ar    1  UNL1       -0.0031
      5 C           7.2459   -5.5928   28.6259 C.ar    1  UNL1       -0.0089
      6 C           6.8246   -4.2645   28.0707 C.ar    1  UNL1       -0.0101
      7 C           6.7608   -4.0582   26.5863 C.3     1  UNL1        0.0447
      8 C           7.1183   -5.1802   25.6571 C.3     1  UNL1        0.0782
      9 N           7.5396   -6.5085   26.2124 N.3     1  UNL1       -0.2674
     10 C           7.8971   -7.6305   25.2832 C.3     1  UNL1        0.0899
     11 C           7.6034   -6.7148   27.6967 C.3     1  UNL1        0.0989
     12 C           4.7818    2.1704   26.7789 C.3     1  UNL1        0.0897
     13 N           5.2031    0.8422   27.3341 N.3     1  UNL1       -0.2686
     14 C           6.6280    0.6197   27.7467 C.3     1  UNL1        0.0938
     15 C           7.0493   -0.7086   28.3020 C.3     1  UNL1        0.1081
     16 N           6.0458   -1.8143   28.4446 N.pl3   1  UNL1       -0.3049
     17 C           4.6209   -1.5917   28.0320 C.3     1  UNL1        0.1081
     18 C           4.1996   -0.2636   27.4768 C.3     1  UNL1        0.0938
     19 C           7.0545   -4.9740   24.1728 C.3     1  UNL1        0.0888
     20 N           7.1374   -3.5885   23.6038 N.3     1  UNL1       -0.2667
     21 C           8.4726   -2.9270   23.4317 C.3     1  UNL1        0.0899
     22 C           5.8850   -2.8646   23.2069 C.3     1  UNL1        0.0978
     23 C           5.2174   -1.9343   24.1757 C.3     1  UNL1        0.0224
     24 C           3.9650   -1.2105   23.7788 C.3     1  UNL1        0.0065
     25 C           3.3803   -1.4169   22.4130 C.3     1  UNL1        0.0277
     26 C           4.0479   -2.3472   21.4441 C.ar    1  UNL1       -0.0073
     27 C           3.4631   -2.5537   20.0783 C.ar    1  UNL1       -0.0015
     28 C           4.1307   -3.4840   19.1094 C.ar    1  UNL1        0.0203
     29 C           5.3831   -4.2079   19.5064 C.ar    1  UNL1        0.0985
     30 N           5.9679   -4.0015   20.8722 N.ar    1  UNL1       -0.2471
     31 C           5.3002   -3.0711   21.8411 C.ar    1  UNL1        0.0695
@<TRIPOS>BOND
     1    12    13    1
     2    13    14    1
     3    14    15    1
     4    15    16    1
     5    16     1    1
     6     1     2   ar
     7     2     3   ar
     8     3     4   ar
     9     4     5   ar
    10     5     6   ar
    11     6     7    1
    12     7     8    1
    13     8    19    1
    14    19    20    1
    15    20    21    1
    16    22    20    1
    17    22    23    1
    18    23    24    1
    19    24    25    1
    20    25    26    1
    21    26    27   ar
    22    27    28   ar
    23    28    29   ar
    24    29    30   ar
    25    30    31   ar
    26     8     9    1
    27     9    10    1
    28     9    11    1
    29    16    17    1
    30    17    18    1
    31    18    13    1
    32     6     1   ar
    33    31    22    1
    34    11     5    1
    35    31    26   ar
