@<TRIPOS>MOLECULE
*****
 43 46 0 0 0
SMALL
GASTEIGER

@<TRIPOS>ATOM
      1 C           9.0784   -5.6216   22.5210 C.3     1  UNL1        0.0038
      2 C           8.9509   -6.9987   23.1018 C.3     1  UNL1        0.0474
      3 C           8.8756   -7.1815   24.5888 C.3     1  UNL1        0.2071
      4 O           7.5629   -7.0266   25.2979 O.3     1  UNL1       -0.4602
      5 C           7.1191   -5.6727   25.7669 C.ar    1  UNL1        0.2248
      6 C           6.7080   -4.6309   24.7692 C.ar    1  UNL1        0.0577
      7 C           6.2642   -3.2769   25.2383 C.ar    1  UNL1        0.0061
      8 C           6.2315   -2.9649   26.7051 C.ar    1  UNL1        0.0194
      9 C           6.6427   -4.0067   27.7028 C.ar    1  UNL1        0.0844
     10 N           7.0865   -5.3606   27.2338 N.ar    1  UNL1       -0.2117
     11 C           6.6100   -3.6946   29.1697 C.ar    1  UNL1        0.0178
     12 C           6.2467   -2.3158   29.6352 C.ar    1  UNL1        0.0015
     13 C           6.2140   -2.0038   31.1020 C.ar    1  UNL1        0.0000
     14 C           6.5447   -3.0706   32.1033 C.ar    1  UNL1        0.0000
     15 C           6.9081   -4.4494   31.6378 C.ar    1  UNL1        0.0000
     16 C           6.9408   -4.7614   30.1710 C.ar    1  UNL1        0.0015
     17 C           5.8530   -2.2351   24.2405 C.ar    1  UNL1        0.0002
     18 C           4.4244   -2.1493   23.7913 C.ar    1  UNL1        0.0000
     19 C           4.0133   -1.1075   22.7935 C.ar    1  UNL1        0.0000
     20 C           5.0307   -0.1514   22.2450 C.ar    1  UNL1        0.0000
     21 C           6.4593   -0.2372   22.6942 C.ar    1  UNL1        0.0000
     22 C           6.8704   -1.2791   23.6920 C.ar    1  UNL1        0.0000
     23 C           9.0684   -5.4313   21.0332 C.3     1  UNL1        0.0005
     24 C           9.1308   -4.0493   20.4534 C.3     1  UNL1        0.0047
     25 C           8.0957   -3.0308   20.8294 C.3     1  UNL1        0.0261
     26 C           4.9368   -2.4777   18.4915 C.ar    1  UNL1        0.1342
     27 C           3.9230   -3.3467   19.1747 C.ar    1  UNL1        0.0365
     28 C           4.3000   -4.1105   20.4093 C.ar    1  UNL1        0.0028
     29 C           5.6909   -4.0053   20.9609 C.ar    1  UNL1       -0.0044
     30 C           6.7047   -3.1362   20.2778 C.ar    1  UNL1       -0.0232
     31 C           6.3277   -2.3724   19.0431 C.ar    1  UNL1        0.0082
     32 C           7.3417   -1.5032   18.3600 C.3     1  UNL1        0.0350
     33 C           7.4387   -0.0477   18.7091 C.3     1  UNL1        0.0465
     34 C           6.9618    0.9902   17.7368 C.2     1  UNL1        0.0507
     35 O           7.2495    0.8349   16.2728 O.co2   1  UNL1       -0.5492
     36 O           6.1973    2.1835   18.2284 O.co2   1  UNL1       -0.5492
     37 O           4.5598   -1.7138   17.2569 O.3     1  UNL1       -0.4758
     38 C           3.5380   -0.6185   17.3353 C.3     1  UNL1        0.2058
     39 C           3.4273    0.2164   18.5765 C.3     1  UNL1        0.0532
     40 C           2.3865   -0.1067   19.6073 C.3     1  UNL1        0.0455
     41 O           0.5785    1.0677   18.1576 O.co2   1  UNL1       -0.5492
     42 C           0.9770    0.3733   19.4261 C.2     1  UNL1        0.0505
     43 O          -0.0339    0.1590   20.5133 O.co2   1  UNL1       -0.5492
@<TRIPOS>UNITY_ATOM_ATTR
35 1
charge -1
41 1
charge -1
@<TRIPOS>BOND
     1    41    42   ar
     2    42    43   ar
     3    42    40    1
     4    40    39    1
     5    39    38    1
     6    38    37    1
     7    37    26    1
     8    26    27   ar
     9    27    28   ar
    10    28    29   ar
    11    29    30   ar
    12    30    25    1
    13    25    24    1
    14    24    23    1
    15    23     1    1
    16     1     2    1
    17     2     3    1
    18     3     4    1
    19     4     5    1
    20     5     6   ar
    21     6     7   ar
    22     7    17    1
    23    17    18   ar
    24    18    19   ar
    25    19    20   ar
    26    20    21   ar
    27    21    22   ar
    28     7     8   ar
    29     8     9   ar
    30     9    11    1
    31    11    12   ar
    32    12    13   ar
    33    13    14   ar
    34    14    15   ar
    35    15    16   ar
    36     9    10   ar
    37    30    31   ar
    38    31    32    1
    39    32    33    1
    40    33    34    1
    41    34    35   ar
    42    34    36   ar
    43    31    26   ar
    44    10     5   ar
    45    22    17   ar
    46    16    11   ar
@<TRIPOS>MOLECULE
*****
 43 46 0 0 0
SMALL
GASTEIGER

@<TRIPOS>ATOM
      1 C          -6.1830  -14.9942   26.9263 C.3     1  UNL1        0.0038
      2 C          -5.1877  -15.1496   25.8150 C.3     1  UNL1        0.0474
      3 C          -4.9172  -16.5062   25.2347 C.3     1  UNL1        0.2071
      4 O          -5.9118  -17.1364   24.3055 O.3     1  UNL1       -0.4602
      5 C          -5.4548  -17.7198   23.0014 C.ar    1  UNL1        0.2248
      6 C          -6.4117  -18.5062   22.1552 C.ar    1  UNL1        0.0577
      7 C          -5.9546  -19.0897   20.8511 C.ar    1  UNL1        0.0061
      8 C          -4.5407  -18.8867   20.3932 C.ar    1  UNL1        0.0194
      9 C          -3.5839  -18.1003   21.2393 C.ar    1  UNL1        0.0844
     10 N          -4.0409  -17.5169   22.5434 N.ar    1  UNL1       -0.2117
     11 C          -2.1699  -17.8974   20.7814 C.ar    1  UNL1        0.0178
     12 C          -1.3937  -19.0476   20.2118 C.ar    1  UNL1        0.0015
     13 C           0.0202  -18.8446   19.7539 C.ar    1  UNL1        0.0000
     14 C           0.6578  -17.4915   19.8655 C.ar    1  UNL1        0.0000
     15 C          -0.1185  -16.3413   20.4351 C.ar    1  UNL1        0.0000
     16 C          -1.5323  -16.5443   20.8930 C.ar    1  UNL1        0.0015
     17 C          -6.9114  -19.8761   20.0049 C.ar    1  UNL1        0.0002
     18 C          -6.5340  -21.2447   19.5206 C.ar    1  UNL1        0.0000
     19 C          -7.4909  -22.0311   18.6744 C.ar    1  UNL1        0.0000
     20 C          -8.8252  -21.4489   18.3126 C.ar    1  UNL1        0.0000
     21 C          -9.2025  -20.0803   18.7969 C.ar    1  UNL1        0.0000
     22 C          -8.2456  -19.2939   19.6430 C.ar    1  UNL1        0.0000
     23 C          -6.8413  -16.2050   27.5184 C.3     1  UNL1        0.0005
     24 C          -8.1731  -16.6627   27.0018 C.3     1  UNL1        0.0047
     25 C          -9.0121  -15.7395   26.1691 C.3     1  UNL1        0.0261
     26 C          -9.7524  -16.9961   22.4781 C.ar    1  UNL1        0.1342
     27 C          -8.9131  -16.0426   21.6804 C.ar    1  UNL1        0.0365
     28 C          -8.1068  -14.9881   22.3789 C.ar    1  UNL1        0.0028
     29 C          -8.1398  -14.8870   23.8751 C.ar    1  UNL1       -0.0044
     30 C          -8.9791  -15.8405   24.6728 C.ar    1  UNL1       -0.0232
     31 C          -9.7854  -16.8950   23.9743 C.ar    1  UNL1        0.0082
     32 C         -10.6247  -17.8485   24.7721 C.3     1  UNL1        0.0350
     33 C         -10.0150  -19.1026   25.3249 C.3     1  UNL1        0.0465
     34 C         -10.0495  -20.3699   24.5232 C.2     1  UNL1        0.0507
     35 O         -10.8069  -20.4185   23.2294 O.co2   1  UNL1       -0.5492
     36 O          -9.3266  -21.5886   25.0153 O.co2   1  UNL1       -0.5492
     37 O         -10.5587  -18.0506   21.7797 O.3     1  UNL1       -0.4758
     38 C         -11.9251  -17.7245   21.2539 C.3     1  UNL1        0.2058
     39 C         -13.1439  -18.1527   22.0163 C.3     1  UNL1        0.0532
     40 C         -13.4397  -17.5499   23.3576 C.3     1  UNL1        0.0455
     41 O         -15.6952  -18.7201   23.8992 O.co2   1  UNL1       -0.5492
     42 C         -14.3282  -18.2735   24.3256 C.2     1  UNL1        0.0505
     43 O         -13.8497  -18.5506   25.7199 O.co2   1  UNL1       -0.5492
@<TRIPOS>UNITY_ATOM_ATTR
35 1
charge -1
41 1
charge -1
@<TRIPOS>BOND
     1    41    42   ar
     2    42    43   ar
     3    42    40    1
     4    40    39    1
     5    39    38    1
     6    38    37    1
     7    37    26    1
     8    26    27   ar
     9    27    28   ar
    10    28    29   ar
    11    29    30   ar
    12    30    25    1
    13    25    24    1
    14    24    23    1
    15    23     1    1
    16     1     2    1
    17     2     3    1
    18     3     4    1
    19     4     5    1
    20     5     6   ar
    21     6     7   ar
    22     7    17    1
    23    17    18   ar
    24    18    19   ar
    25    19    20   ar
    26    20    21   ar
    27    21    22   ar
    28     7     8   ar
    29     8     9   ar
    30     9    11    1
    31    11    12   ar
    32    12    13   ar
    33    13    14   ar
    34    14    15   ar
    35    15    16   ar
    36     9    10   ar
    37    30    31   ar
    38    31    32    1
    39    32    33    1
    40    33    34    1
    41    34    35   ar
    42    34    36   ar
    43    31    26   ar
    44    10     5   ar
    45    22    17   ar
    46    16    11   ar
@<TRIPOS>MOLECULE
*****
 43 46 0 0 0
SMALL
GASTEIGER

@<TRIPOS>ATOM
      1 C           8.0509   -4.2543   20.7991 C.3     1  UNL1        0.0038
      2 C           8.5187   -5.5705   21.3456 C.3     1  UNL1        0.0474
      3 C           8.8671   -5.6980   22.7990 C.3     1  UNL1        0.2071
      4 O           7.8038   -6.0491   23.7971 O.3     1  UNL1       -0.4602
      5 C           7.2047   -4.9799   24.6619 C.ar    1  UNL1        0.2248
      6 C           6.5496   -3.7861   24.0330 C.ar    1  UNL1        0.0577
      7 C           5.9504   -2.7169   24.8978 C.ar    1  UNL1        0.0061
      8 C           6.0063   -2.8416   26.3915 C.ar    1  UNL1        0.0194
      9 C           6.6613   -4.0355   27.0205 C.ar    1  UNL1        0.0844
     10 N           7.2605   -5.1046   26.1557 N.ar    1  UNL1       -0.2117
     11 C           6.7171   -4.1602   28.5143 C.ar    1  UNL1        0.0178
     12 C           6.9470   -5.5007   29.1469 C.ar    1  UNL1        0.0015
     13 C           7.0028   -5.6253   30.6407 C.ar    1  UNL1        0.0000
     14 C           6.8288   -4.4095   31.5018 C.ar    1  UNL1        0.0000
     15 C           6.5989   -3.0691   30.8692 C.ar    1  UNL1        0.0000
     16 C           6.5431   -2.9444   29.3754 C.ar    1  UNL1        0.0015
     17 C           5.2954   -1.5230   24.2689 C.ar    1  UNL1        0.0002
     18 C           3.9232   -1.6462   23.6754 C.ar    1  UNL1        0.0000
     19 C           3.2682   -0.4524   23.0464 C.ar    1  UNL1        0.0000
     20 C           3.9853    0.8647   23.0110 C.ar    1  UNL1        0.0000
     21 C           5.3573    0.9879   23.6045 C.ar    1  UNL1        0.0000
     22 C           6.0124   -0.2060   24.2334 C.ar    1  UNL1        0.0000
     23 C           8.6749   -2.9780   21.2806 C.3     1  UNL1        0.0005
     24 C           7.8674   -1.7143   21.3140 C.3     1  UNL1        0.0047
     25 C           6.4179   -1.7401   20.9290 C.3     1  UNL1        0.0261
     26 C           3.9624    0.1346   18.4378 C.ar    1  UNL1        0.1342
     27 C           4.7989    1.3186   18.0527 C.ar    1  UNL1        0.0365
     28 C           6.1751    1.4831   18.6264 C.ar    1  UNL1        0.0028
     29 C           6.7147    0.4636   19.5852 C.ar    1  UNL1       -0.0044
     30 C           5.8782   -0.7205   19.9702 C.ar    1  UNL1       -0.0232
     31 C           4.5021   -0.8849   19.3965 C.ar    1  UNL1        0.0082
     32 C           3.6656   -2.0690   19.7816 C.3     1  UNL1        0.0350
     33 C           3.8000   -3.3591   19.0281 C.3     1  UNL1        0.0465
     34 C           4.2666   -4.5962   19.7364 C.2     1  UNL1        0.0507
     35 O           4.6907   -5.7984   18.9458 O.co2   1  UNL1       -0.5492
     36 O           4.3092   -4.6313   21.2354 O.co2   1  UNL1       -0.5492
     37 O           2.5863   -0.0298   17.8641 O.3     1  UNL1       -0.4758
     38 C           1.4195    0.6630   18.5033 C.3     1  UNL1        0.2058
     39 C           1.5737    1.3031   19.8510 C.3     1  UNL1        0.0532
     40 C           0.5987    0.9885   20.9467 C.3     1  UNL1        0.0455
     41 O           0.1648    2.7571   22.7998 O.co2   1  UNL1       -0.5492
     42 C          -0.2522    2.0779   21.5290 C.2     1  UNL1        0.0505
     43 O          -1.5202    2.4882   20.8406 O.co2   1  UNL1       -0.5492
@<TRIPOS>UNITY_ATOM_ATTR
35 1
charge -1
41 1
charge -1
@<TRIPOS>BOND
     1    41    42   ar
     2    42    43   ar
     3    42    40    1
     4    40    39    1
     5    39    38    1
     6    38    37    1
     7    37    26    1
     8    26    27   ar
     9    27    28   ar
    10    28    29   ar
    11    29    30   ar
    12    30    25    1
    13    25    24    1
    14    24    23    1
    15    23     1    1
    16     1     2    1
    17     2     3    1
    18     3     4    1
    19     4     5    1
    20     5     6   ar
    21     6     7   ar
    22     7    17    1
    23    17    18   ar
    24    18    19   ar
    25    19    20   ar
    26    20    21   ar
    27    21    22   ar
    28     7     8   ar
    29     8     9   ar
    30     9    11    1
    31    11    12   ar
    32    12    13   ar
    33    13    14   ar
    34    14    15   ar
    35    15    16   ar
    36     9    10   ar
    37    30    31   ar
    38    31    32    1
    39    32    33    1
    40    33    34    1
    41    34    35   ar
    42    34    36   ar
    43    31    26   ar
    44    10     5   ar
    45    22    17   ar
    46    16    11   ar
@<TRIPOS>MOLECULE
*****
 43 46 0 0 0
SMALL
GASTEIGER

@<TRIPOS>ATOM
      1 C           4.1010    0.6229   17.6970 C.3     1  UNL1        0.0038
      2 C           2.7571    0.0225   17.9859 C.3     1  UNL1        0.0474
      3 C           1.7029    0.8390   18.6730 C.3     1  UNL1        0.2071
      4 O           0.8720    0.2276   19.7619 O.3     1  UNL1       -0.4602
      5 C           1.3415    0.2848   21.1854 C.ar    1  UNL1        0.2248
      6 C           2.6580   -0.3252   21.5659 C.ar    1  UNL1        0.0577
      7 C           3.1275   -0.2680   22.9895 C.ar    1  UNL1        0.0061
      8 C           2.2806    0.3991   24.0323 C.ar    1  UNL1        0.0194
      9 C           0.9641    1.0090   23.6518 C.ar    1  UNL1        0.0844
     10 N           0.4946    0.9519   22.2283 N.ar    1  UNL1       -0.2117
     11 C           0.1171    1.6762   24.6947 C.ar    1  UNL1        0.0178
     12 C           0.1394    1.1788   26.1097 C.ar    1  UNL1        0.0015
     13 C          -0.7075    1.8459   27.1525 C.ar    1  UNL1        0.0000
     14 C          -1.5767    3.0104   26.7805 C.ar    1  UNL1        0.0000
     15 C          -1.5990    3.5077   25.3655 C.ar    1  UNL1        0.0000
     16 C          -0.7521    2.8406   24.3227 C.ar    1  UNL1        0.0015
     17 C           4.4440   -0.8779   23.3700 C.ar    1  UNL1        0.0002
     18 C           5.7215   -0.1489   23.0755 C.ar    1  UNL1        0.0000
     19 C           7.0380   -0.7588   23.4560 C.ar    1  UNL1        0.0000
     20 C           7.0770   -2.0978   24.1312 C.ar    1  UNL1        0.0000
     21 C           5.7996   -2.8268   24.4257 C.ar    1  UNL1        0.0000
     22 C           4.4831   -2.2168   24.0451 C.ar    1  UNL1        0.0000
     23 C           4.8898    1.2621   18.8012 C.3     1  UNL1        0.0005
     24 C           5.8044    0.4287   19.6491 C.3     1  UNL1        0.0047
     25 C           5.7170   -1.0679   19.5992 C.3     1  UNL1        0.0261
     26 C           8.0955   -4.0365   20.7310 C.ar    1  UNL1        0.1342
     27 C           9.4156   -3.5592   20.2025 C.ar    1  UNL1        0.0365
     28 C           9.5029   -2.2514   19.4730 C.ar    1  UNL1        0.0028
     29 C           8.2701   -1.4210   19.2719 C.ar    1  UNL1       -0.0044
     30 C           6.9499   -1.8984   19.8003 C.ar    1  UNL1       -0.0232
     31 C           6.8626   -3.2061   20.5299 C.ar    1  UNL1        0.0082
     32 C           5.5424   -3.6834   21.0583 C.3     1  UNL1        0.0350
     33 C           4.3071   -3.5548   20.2172 C.3     1  UNL1        0.0465
     34 C           3.8552   -4.7053   19.3675 C.2     1  UNL1        0.0507
     35 O           4.7933   -5.8402   19.0813 O.co2   1  UNL1       -0.5492
     36 O           2.4651   -4.7209   18.8040 O.co2   1  UNL1       -0.5492
     37 O           8.0081   -5.3442   21.4605 O.3     1  UNL1       -0.4758
     38 C           8.7641   -5.5406   22.7411 C.3     1  UNL1        0.2058
     39 C           8.0635   -6.0875   23.9494 C.3     1  UNL1        0.0532
     40 C           8.3430   -7.4878   24.4087 C.3     1  UNL1        0.0455
     41 O           9.3019   -7.5151   26.8233 O.co2   1  UNL1       -0.5492
     42 C           8.2009   -7.8439   25.8589 C.2     1  UNL1        0.0505
     43 O           6.9580   -8.5287   26.3448 O.co2   1  UNL1       -0.5492
@<TRIPOS>UNITY_ATOM_ATTR
35 1
charge -1
41 1
charge -1
@<TRIPOS>BOND
     1    41    42   ar
     2    42    43   ar
     3    42    40    1
     4    40    39    1
     5    39    38    1
     6    38    37    1
     7    37    26    1
     8    26    27   ar
     9    27    28   ar
    10    28    29   ar
    11    29    30   ar
    12    30    25    1
    13    25    24    1
    14    24    23    1
    15    23     1    1
    16     1     2    1
    17     2     3    1
    18     3     4    1
    19     4     5    1
    20     5     6   ar
    21     6     7   ar
    22     7    17    1
    23    17    18   ar
    24    18    19   ar
    25    19    20   ar
    26    20    21   ar
    27    21    22   ar
    28     7     8   ar
    29     8     9   ar
    30     9    11    1
    31    11    12   ar
    32    12    13   ar
    33    13    14   ar
    34    14    15   ar
    35    15    16   ar
    36     9    10   ar
    37    30    31   ar
    38    31    32    1
    39    32    33    1
    40    33    34    1
    41    34    35   ar
    42    34    36   ar
    43    31    26   ar
    44    10     5   ar
    45    22    17   ar
    46    16    11   ar
@<TRIPOS>MOLECULE
*****
 43 46 0 0 0
SMALL
GASTEIGER

@<TRIPOS>ATOM
      1 C           8.2710   -5.6056   22.9000 C.3     1  UNL1        0.0038
      2 C           8.5632   -6.6765   23.9088 C.3     1  UNL1        0.0474
      3 C           8.9348   -6.3026   25.3132 C.3     1  UNL1        0.2071
      4 O           7.8668   -6.1429   26.3543 O.3     1  UNL1       -0.4602
      5 C           7.1832   -4.8195   26.5305 C.ar    1  UNL1        0.2248
      6 C           6.9230   -4.2873   27.9086 C.ar    1  UNL1        0.0577
      7 C           6.2393   -2.9638   28.0848 C.ar    1  UNL1        0.0061
      8 C           5.8159   -2.1725   26.8830 C.ar    1  UNL1        0.0194
      9 C           6.0760   -2.7047   25.5049 C.ar    1  UNL1        0.0844
     10 N           6.7596   -4.0281   25.3287 N.ar    1  UNL1       -0.2117
     11 C           5.6525   -1.9133   24.3030 C.ar    1  UNL1        0.0178
     12 C           4.2726   -2.0846   23.7404 C.ar    1  UNL1        0.0015
     13 C           3.8491   -1.2932   22.5386 C.ar    1  UNL1        0.0000
     14 C           4.8055   -0.3307   21.8993 C.ar    1  UNL1        0.0000
     15 C           6.1854   -0.1594   22.4619 C.ar    1  UNL1        0.0000
     16 C           6.6089   -0.9507   23.6637 C.ar    1  UNL1        0.0015
     17 C           5.9792   -2.4316   29.4629 C.ar    1  UNL1        0.0002
     18 C           5.1968   -1.1644   29.6422 C.ar    1  UNL1        0.0000
     19 C           4.9367   -0.6322   31.0203 C.ar    1  UNL1        0.0000
     20 C           5.4589   -1.3673   32.2191 C.ar    1  UNL1        0.0000
     21 C           6.2412   -2.6344   32.0398 C.ar    1  UNL1        0.0000
     22 C           6.5014   -3.1666   30.6617 C.ar    1  UNL1        0.0000
     23 C           9.2254   -5.3600   21.7691 C.3     1  UNL1        0.0005
     24 C           8.9761   -4.2356   20.8081 C.3     1  UNL1        0.0047
     25 C           7.9184   -3.2147   21.1062 C.3     1  UNL1        0.0261
     26 C           5.0667   -2.4954   18.4415 C.ar    1  UNL1        0.1342
     27 C           3.9673   -3.3751   18.9584 C.ar    1  UNL1        0.0365
     28 C           4.1848   -4.2013   20.1913 C.ar    1  UNL1        0.0028
     29 C           5.5018   -4.1479   20.9072 C.ar    1  UNL1       -0.0044
     30 C           6.6013   -3.2682   20.3903 C.ar    1  UNL1       -0.0232
     31 C           6.3837   -2.4420   19.1574 C.ar    1  UNL1        0.0082
     32 C           7.4833   -1.5623   18.6405 C.3     1  UNL1        0.0350
     33 C           7.3981   -0.0748   18.8143 C.3     1  UNL1        0.0465
     34 C           7.7449    0.8347   17.6731 C.2     1  UNL1        0.0507
     35 O           7.0773    0.6559   16.3418 O.co2   1  UNL1       -0.5492
     36 O           8.7595    1.9231   17.8631 O.co2   1  UNL1       -0.5492
     37 O           4.8492   -1.6692   17.2086 O.3     1  UNL1       -0.4758
     38 C           3.6325   -0.7995   17.0936 C.3     1  UNL1        0.2058
     39 C           3.3040    0.1784   18.1825 C.3     1  UNL1        0.0532
     40 C           2.3129   -0.1893   19.2468 C.3     1  UNL1        0.0455
     41 O           0.0071    0.1734   20.3878 O.co2   1  UNL1       -0.5492
     42 C           0.9507    0.4388   19.2523 C.2     1  UNL1        0.0505
     43 O           0.5322    1.3323   18.1226 O.co2   1  UNL1       -0.5492
@<TRIPOS>UNITY_ATOM_ATTR
35 1
charge -1
41 1
charge -1
@<TRIPOS>BOND
     1    41    42   ar
     2    42    43   ar
     3    42    40    1
     4    40    39    1
     5    39    38    1
     6    38    37    1
     7    37    26    1
     8    26    27   ar
     9    27    28   ar
    10    28    29   ar
    11    29    30   ar
    12    30    25    1
    13    25    24    1
    14    24    23    1
    15    23     1    1
    16     1     2    1
    17     2     3    1
    18     3     4    1
    19     4     5    1
    20     5     6   ar
    21     6     7   ar
    22     7    17    1
    23    17    18   ar
    24    18    19   ar
    25    19    20   ar
    26    20    21   ar
    27    21    22   ar
    28     7     8   ar
    29     8     9   ar
    30     9    11    1
    31    11    12   ar
    32    12    13   ar
    33    13    14   ar
    34    14    15   ar
    35    15    16   ar
    36     9    10   ar
    37    30    31   ar
    38    31    32    1
    39    32    33    1
    40    33    34    1
    41    34    35   ar
    42    34    36   ar
    43    31    26   ar
    44    10     5   ar
    45    22    17   ar
    46    16    11   ar
@<TRIPOS>MOLECULE
*****
 43 46 0 0 0
SMALL
GASTEIGER

@<TRIPOS>ATOM
      1 C           2.3398    0.1912   18.2049 C.3     1  UNL1        0.0038
      2 C           1.2230   -0.0342   19.1806 C.3     1  UNL1        0.0474
      3 C           0.6085    1.1303   19.8992 C.3     1  UNL1        0.2071
      4 O           0.1265    0.9710   21.3107 O.3     1  UNL1       -0.4602
      5 C           1.1137    0.9167   22.4386 C.ar    1  UNL1        0.2248
      6 C           2.5651    0.6673   22.1537 C.ar    1  UNL1        0.0577
      7 C           3.5524    0.6131   23.2818 C.ar    1  UNL1        0.0061
      8 C           3.0882    0.8083   24.6947 C.ar    1  UNL1        0.0194
      9 C           1.6368    1.0578   24.9796 C.ar    1  UNL1        0.0844
     10 N           0.6495    1.1120   23.8517 N.ar    1  UNL1       -0.2117
     11 C           1.1726    1.2530   26.3926 C.ar    1  UNL1        0.0178
     12 C           2.1701    1.5290   27.4783 C.ar    1  UNL1        0.0015
     13 C           1.7059    1.7243   28.8913 C.ar    1  UNL1        0.0000
     14 C           0.2443    1.6435   29.2185 C.ar    1  UNL1        0.0000
     15 C          -0.7532    1.3674   28.1328 C.ar    1  UNL1        0.0000
     16 C          -0.2890    1.1722   26.7199 C.ar    1  UNL1        0.0015
     17 C           5.0038    0.3636   22.9968 C.ar    1  UNL1        0.0002
     18 C           5.8374   -0.4115   23.9738 C.ar    1  UNL1        0.0000
     19 C           7.2889   -0.6609   23.6888 C.ar    1  UNL1        0.0000
     20 C           7.9066   -0.1353   22.4270 C.ar    1  UNL1        0.0000
     21 C           7.0729    0.6397   21.4501 C.ar    1  UNL1        0.0000
     22 C           5.6215    0.8892   21.7351 C.ar    1  UNL1        0.0000
     23 C           3.5496    0.9758   18.6181 C.3     1  UNL1        0.0005
     24 C           4.9120    0.5537   18.1534 C.3     1  UNL1        0.0047
     25 C           5.1959   -0.8934   17.8792 C.3     1  UNL1        0.0261
     26 C           6.4731   -3.2978   20.7667 C.ar    1  UNL1        0.1342
     27 C           7.9584   -3.1960   20.5841 C.ar    1  UNL1        0.0365
     28 C           8.5230   -2.3267   19.4999 C.ar    1  UNL1        0.0028
     29 C           7.6022   -1.5591   18.5983 C.ar    1  UNL1       -0.0044
     30 C           6.1168   -1.6609   18.7809 C.ar    1  UNL1       -0.0232
     31 C           5.5523   -2.5303   19.8651 C.ar    1  UNL1        0.0082
     32 C           4.0669   -2.6321   20.0476 C.3     1  UNL1        0.0350
     33 C           3.2979   -3.7143   19.3494 C.3     1  UNL1        0.0465
     34 C           3.7083   -5.1482   19.5087 C.2     1  UNL1        0.0507
     35 O           3.0046   -6.0238   20.5028 O.co2   1  UNL1       -0.5492
     36 O           4.8223   -5.7066   18.6737 O.co2   1  UNL1       -0.5492
     37 O           5.9086   -4.1672   21.8509 O.3     1  UNL1       -0.4758
     38 C           6.5062   -4.1340   23.2263 C.3     1  UNL1        0.2058
     39 C           7.7779   -4.8772   23.5097 C.3     1  UNL1        0.0532
     40 C           8.1799   -5.1630   24.9263 C.3     1  UNL1        0.0455
     41 O           7.5836   -7.6759   25.2091 O.co2   1  UNL1       -0.5492
     42 C           7.4994   -6.2583   25.6926 C.2     1  UNL1        0.0505
     43 O           6.7348   -5.9363   26.9422 O.co2   1  UNL1       -0.5492
@<TRIPOS>UNITY_ATOM_ATTR
35 1
charge -1
41 1
charge -1
@<TRIPOS>BOND
     1    41    42   ar
     2    42    43   ar
     3    42    40    1
     4    40    39    1
     5    39    38    1
     6    38    37    1
     7    37    26    1
     8    26    27   ar
     9    27    28   ar
    10    28    29   ar
    11    29    30   ar
    12    30    25    1
    13    25    24    1
    14    24    23    1
    15    23     1    1
    16     1     2    1
    17     2     3    1
    18     3     4    1
    19     4     5    1
    20     5     6   ar
    21     6     7   ar
    22     7    17    1
    23    17    18   ar
    24    18    19   ar
    25    19    20   ar
    26    20    21   ar
    27    21    22   ar
    28     7     8   ar
    29     8     9   ar
    30     9    11    1
    31    11    12   ar
    32    12    13   ar
    33    13    14   ar
    34    14    15   ar
    35    15    16   ar
    36     9    10   ar
    37    30    31   ar
    38    31    32    1
    39    32    33    1
    40    33    34    1
    41    34    35   ar
    42    34    36   ar
    43    31    26   ar
    44    10     5   ar
    45    22    17   ar
    46    16    11   ar
@<TRIPOS>MOLECULE
*****
 43 46 0 0 0
SMALL
GASTEIGER

@<TRIPOS>ATOM
      1 C          -6.0752  -14.9992   26.9087 C.3     1  UNL1        0.0038
      2 C          -5.1891  -15.2704   25.7292 C.3     1  UNL1        0.0474
      3 C          -5.0041  -16.6755   25.2375 C.3     1  UNL1        0.2071
      4 O          -5.9885  -17.2684   24.2734 O.3     1  UNL1       -0.4602
      5 C          -5.5133  -17.8268   22.9649 C.ar    1  UNL1        0.2248
      6 C          -6.4500  -18.6219   22.1044 C.ar    1  UNL1        0.0577
      7 C          -5.9748  -19.1804   20.7957 C.ar    1  UNL1        0.0061
      8 C          -4.5630  -18.9437   20.3477 C.ar    1  UNL1        0.0194
      9 C          -3.6264  -18.1485   21.2082 C.ar    1  UNL1        0.0844
     10 N          -4.1015  -17.5901   22.5167 N.ar    1  UNL1       -0.2117
     11 C          -2.2145  -17.9118   20.7600 C.ar    1  UNL1        0.0178
     12 C          -1.5876  -16.5609   20.9383 C.ar    1  UNL1        0.0015
     13 C          -0.1758  -16.3242   20.4902 C.ar    1  UNL1        0.0000
     14 C           0.6090  -17.4385   19.8638 C.ar    1  UNL1        0.0000
     15 C          -0.0179  -18.7895   19.6855 C.ar    1  UNL1        0.0000
     16 C          -1.4297  -19.0261   20.1336 C.ar    1  UNL1        0.0015
     17 C          -6.9114  -19.9755   19.9353 C.ar    1  UNL1        0.0002
     18 C          -6.5399  -21.3643   19.5068 C.ar    1  UNL1        0.0000
     19 C          -7.4766  -22.1594   18.6463 C.ar    1  UNL1        0.0000
     20 C          -8.7847  -21.5658   18.2143 C.ar    1  UNL1        0.0000
     21 C          -9.1561  -20.1772   18.6428 C.ar    1  UNL1        0.0000
     22 C          -8.2195  -19.3820   19.5033 C.ar    1  UNL1        0.0000
     23 C          -6.8144  -16.1266   27.5663 C.3     1  UNL1        0.0005
     24 C          -8.1864  -16.5025   27.0904 C.3     1  UNL1        0.0047
     25 C          -8.9424  -15.5821   26.1788 C.3     1  UNL1        0.0261
     26 C          -9.5612  -17.1352   22.5795 C.ar    1  UNL1        0.1342
     27 C          -8.7727  -16.1892   21.7232 C.ar    1  UNL1        0.0365
     28 C          -8.0408  -15.0408   22.3520 C.ar    1  UNL1        0.0028
     29 C          -8.0973  -14.8384   23.8372 C.ar    1  UNL1       -0.0044
     30 C          -8.8858  -15.7844   24.6935 C.ar    1  UNL1       -0.0232
     31 C          -9.6177  -16.9328   24.0646 C.ar    1  UNL1        0.0082
     32 C         -10.4062  -17.8789   24.9210 C.3     1  UNL1        0.0350
     33 C          -9.8390  -19.2222   25.2730 C.3     1  UNL1        0.0465
     34 C          -9.8567  -20.3316   24.2637 C.2     1  UNL1        0.0507
     35 O         -11.1637  -20.8438   23.7350 O.co2   1  UNL1       -0.5492
     36 O          -8.5674  -20.9289   23.7830 O.co2   1  UNL1       -0.5492
     37 O         -10.2931  -18.2836   21.9506 O.3     1  UNL1       -0.4758
     38 C         -11.7852  -18.2329   21.8057 C.3     1  UNL1        0.2058
     39 C         -12.5093  -16.9277   21.9546 C.3     1  UNL1        0.0532
     40 C         -12.4912  -15.9282   20.8362 C.3     1  UNL1        0.0455
     41 O         -10.8412  -15.0662   19.0238 O.co2   1  UNL1       -0.5492
     42 C         -11.6511  -16.1796   19.6192 C.2     1  UNL1        0.0505
     43 O         -11.6210  -17.5443   18.9975 O.co2   1  UNL1       -0.5492
@<TRIPOS>UNITY_ATOM_ATTR
35 1
charge -1
41 1
charge -1
@<TRIPOS>BOND
     1    41    42   ar
     2    42    43   ar
     3    42    40    1
     4    40    39    1
     5    39    38    1
     6    38    37    1
     7    37    26    1
     8    26    27   ar
     9    27    28   ar
    10    28    29   ar
    11    29    30   ar
    12    30    25    1
    13    25    24    1
    14    24    23    1
    15    23     1    1
    16     1     2    1
    17     2     3    1
    18     3     4    1
    19     4     5    1
    20     5     6   ar
    21     6     7   ar
    22     7    17    1
    23    17    18   ar
    24    18    19   ar
    25    19    20   ar
    26    20    21   ar
    27    21    22   ar
    28     7     8   ar
    29     8     9   ar
    30     9    11    1
    31    11    12   ar
    32    12    13   ar
    33    13    14   ar
    34    14    15   ar
    35    15    16   ar
    36     9    10   ar
    37    30    31   ar
    38    31    32    1
    39    32    33    1
    40    33    34    1
    41    34    35   ar
    42    34    36   ar
    43    31    26   ar
    44    10     5   ar
    45    22    17   ar
    46    16    11   ar
@<TRIPOS>MOLECULE
*****
 43 46 0 0 0
SMALL
GASTEIGER

@<TRIPOS>ATOM
      1 C           9.4335   -3.9156   21.2267 C.3     1  UNL1        0.0038
      2 C           8.9770   -5.3429   21.2914 C.3     1  UNL1        0.0474
      3 C           9.0049   -6.0809   22.5971 C.3     1  UNL1        0.2071
      4 O           7.7486   -6.2256   23.4038 O.3     1  UNL1       -0.4602
      5 C           7.1680   -5.0350   24.1076 C.ar    1  UNL1        0.2248
      6 C           6.5922   -3.9009   23.3125 C.ar    1  UNL1        0.0577
      7 C           6.0116   -2.7103   24.0164 C.ar    1  UNL1        0.0061
      8 C           6.0067   -2.6539   25.5153 C.ar    1  UNL1        0.0194
      9 C           6.5825   -3.7880   26.3103 C.ar    1  UNL1        0.0844
     10 N           7.1631   -4.9786   25.6065 N.ar    1  UNL1       -0.2117
     11 C           6.5776   -3.7316   27.8093 C.ar    1  UNL1        0.0178
     12 C           6.8888   -4.9630   28.6072 C.ar    1  UNL1        0.0015
     13 C           6.8839   -4.9065   30.1061 C.ar    1  UNL1        0.0000
     14 C           6.5678   -3.6186   30.8071 C.ar    1  UNL1        0.0000
     15 C           6.2566   -2.3872   30.0092 C.ar    1  UNL1        0.0000
     16 C           6.2615   -2.4437   28.5103 C.ar    1  UNL1        0.0015
     17 C           5.4358   -1.5761   23.2213 C.ar    1  UNL1        0.0002
     18 C           6.3209   -0.7659   22.3211 C.ar    1  UNL1        0.0000
     19 C           5.7451    0.3683   21.5260 C.ar    1  UNL1        0.0000
     20 C           4.2843    0.6922   21.6311 C.ar    1  UNL1        0.0000
     21 C           3.3992   -0.1180   22.5312 C.ar    1  UNL1        0.0000
     22 C           3.9750   -1.2522   23.3263 C.ar    1  UNL1        0.0000
     23 C           9.5252   -3.2168   19.9027 C.3     1  UNL1        0.0005
     24 C           8.5829   -2.0951   19.5797 C.3     1  UNL1        0.0047
     25 C           7.5598   -2.2636   18.4959 C.3     1  UNL1        0.0261
     26 C           3.7213   -1.2563   18.5354 C.ar    1  UNL1        0.1342
     27 C           3.1772   -2.2512   19.5173 C.ar    1  UNL1        0.0365
     28 C           4.0940   -3.2503   20.1587 C.ar    1  UNL1        0.0028
     29 C           5.5548   -3.2545   19.8183 C.ar    1  UNL1       -0.0044
     30 C           6.0989   -2.2595   18.8364 C.ar    1  UNL1       -0.0232
     31 C           5.1821   -1.2605   18.1950 C.ar    1  UNL1        0.0082
     32 C           5.7262   -0.2655   17.2131 C.3     1  UNL1        0.0350
     33 C           6.0826    1.1188   17.6676 C.3     1  UNL1        0.0465
     34 C           7.5222    1.5281   17.7673 C.2     1  UNL1        0.0507
     35 O           8.2695    1.3350   19.0536 O.co2   1  UNL1       -0.5492
     36 O           8.2146    2.1306   16.5809 O.co2   1  UNL1       -0.5492
     37 O           2.8045   -0.2573   17.8940 O.3     1  UNL1       -0.4758
     38 C           2.1948    0.8381   18.7176 C.3     1  UNL1        0.2058
     39 C           0.8588    0.6324   19.3680 C.3     1  UNL1        0.0532
     40 C           0.4316    1.5186   20.5004 C.3     1  UNL1        0.0455
     41 O          -1.8966    2.5647   20.9853 O.co2   1  UNL1       -0.5492
     42 C          -0.5810    2.6000   20.2655 C.2     1  UNL1        0.0505
     43 O          -0.2780    3.7166   19.3110 O.co2   1  UNL1       -0.5492
@<TRIPOS>UNITY_ATOM_ATTR
35 1
charge -1
41 1
charge -1
@<TRIPOS>BOND
     1    41    42   ar
     2    42    43   ar
     3    42    40    1
     4    40    39    1
     5    39    38    1
     6    38    37    1
     7    37    26    1
     8    26    27   ar
     9    27    28   ar
    10    28    29   ar
    11    29    30   ar
    12    30    25    1
    13    25    24    1
    14    24    23    1
    15    23     1    1
    16     1     2    1
    17     2     3    1
    18     3     4    1
    19     4     5    1
    20     5     6   ar
    21     6     7   ar
    22     7    17    1
    23    17    18   ar
    24    18    19   ar
    25    19    20   ar
    26    20    21   ar
    27    21    22   ar
    28     7     8   ar
    29     8     9   ar
    30     9    11    1
    31    11    12   ar
    32    12    13   ar
    33    13    14   ar
    34    14    15   ar
    35    15    16   ar
    36     9    10   ar
    37    30    31   ar
    38    31    32    1
    39    32    33    1
    40    33    34    1
    41    34    35   ar
    42    34    36   ar
    43    31    26   ar
    44    10     5   ar
    45    22    17   ar
    46    16    11   ar
@<TRIPOS>MOLECULE
*****
 43 46 0 0 0
SMALL
GASTEIGER

@<TRIPOS>ATOM
      1 C           7.6725   -5.4412   23.8090 C.3     1  UNL1        0.0038
      2 C           8.1178   -5.8037   25.1947 C.3     1  UNL1        0.0474
      3 C           8.4729   -4.7250   26.1747 C.3     1  UNL1        0.2071
      4 O           7.5177   -4.3664   27.2742 O.3     1  UNL1       -0.4602
      5 C           6.5526   -3.2332   27.0892 C.ar    1  UNL1        0.2248
      6 C           6.2752   -2.7011   25.7145 C.ar    1  UNL1        0.0577
      7 C           5.3100   -1.5678   25.5296 C.ar    1  UNL1        0.0061
      8 C           4.6223   -0.9666   26.7193 C.ar    1  UNL1        0.0194
      9 C           4.8997   -1.4987   28.0941 C.ar    1  UNL1        0.0844
     10 N           5.8649   -2.6319   28.2790 N.ar    1  UNL1       -0.2117
     11 C           4.2120   -0.8975   29.2839 C.ar    1  UNL1        0.0178
     12 C           4.8845   -0.9103   30.6246 C.ar    1  UNL1        0.0015
     13 C           4.1967   -0.3091   31.8144 C.ar    1  UNL1        0.0000
     14 C           2.8365    0.3050   31.6634 C.ar    1  UNL1        0.0000
     15 C           2.1641    0.3178   30.3227 C.ar    1  UNL1        0.0000
     16 C           2.8518   -0.2834   29.1329 C.ar    1  UNL1        0.0015
     17 C           5.0325   -1.0357   24.1548 C.ar    1  UNL1        0.0002
     18 C           3.7269   -1.3405   23.4820 C.ar    1  UNL1        0.0000
     19 C           3.4495   -0.8084   22.1073 C.ar    1  UNL1        0.0000
     20 C           4.4777    0.0285   21.4053 C.ar    1  UNL1        0.0000
     21 C           5.7832    0.3332   22.0781 C.ar    1  UNL1        0.0000
     22 C           6.0606   -0.1989   23.4529 C.ar    1  UNL1        0.0000
     23 C           8.4693   -4.4637   22.9969 C.3     1  UNL1        0.0005
     24 C           7.8435   -3.1770   22.5463 C.3     1  UNL1        0.0047
     25 C           7.7171   -2.8769   21.0821 C.3     1  UNL1        0.0261
     26 C           4.8236   -2.4961   18.3928 C.ar    1  UNL1        0.1342
     27 C           3.7330   -3.3021   19.0338 C.ar    1  UNL1        0.0365
     28 C           3.9704   -3.9664   20.3575 C.ar    1  UNL1        0.0028
     29 C           5.2984   -3.8247   21.0403 C.ar    1  UNL1       -0.0044
     30 C           6.3890   -3.0186   20.3993 C.ar    1  UNL1       -0.0232
     31 C           6.1516   -2.3543   19.0756 C.ar    1  UNL1        0.0082
     32 C           7.2423   -1.5483   18.4346 C.3     1  UNL1        0.0350
     33 C           7.3856   -0.0903   18.7568 C.3     1  UNL1        0.0465
     34 C           6.9537    0.9441   17.7601 C.2     1  UNL1        0.0507
     35 O           6.3822    2.2481   18.2323 O.co2   1  UNL1       -0.5492
     36 O           7.0934    0.6745   16.2911 O.co2   1  UNL1       -0.5492
     37 O           4.5861   -1.8318   17.0690 O.3     1  UNL1       -0.4758
     38 C           3.8221   -0.5426   17.0031 C.3     1  UNL1        0.2058
     39 C           3.2564    0.0588   18.2554 C.3     1  UNL1        0.0532
     40 C           1.7788    0.0098   18.5097 C.3     1  UNL1        0.0455
     41 O           1.7823    2.1298   20.0117 O.co2   1  UNL1       -0.5492
     42 C           1.1843    0.8074   19.6323 C.2     1  UNL1        0.0505
     43 O          -0.0083    0.2827   20.3757 O.co2   1  UNL1       -0.5492
@<TRIPOS>UNITY_ATOM_ATTR
35 1
charge -1
41 1
charge -1
@<TRIPOS>BOND
     1    41    42   ar
     2    42    43   ar
     3    42    40    1
     4    40    39    1
     5    39    38    1
     6    38    37    1
     7    37    26    1
     8    26    27   ar
     9    27    28   ar
    10    28    29   ar
    11    29    30   ar
    12    30    25    1
    13    25    24    1
    14    24    23    1
    15    23     1    1
    16     1     2    1
    17     2     3    1
    18     3     4    1
    19     4     5    1
    20     5     6   ar
    21     6     7   ar
    22     7    17    1
    23    17    18   ar
    24    18    19   ar
    25    19    20   ar
    26    20    21   ar
    27    21    22   ar
    28     7     8   ar
    29     8     9   ar
    30     9    11    1
    31    11    12   ar
    32    12    13   ar
    33    13    14   ar
    34    14    15   ar
    35    15    16   ar
    36     9    10   ar
    37    30    31   ar
    38    31    32    1
    39    32    33    1
    40    33    34    1
    41    34    35   ar
    42    34    36   ar
    43    31    26   ar
    44    10     5   ar
    45    22    17   ar
    46    16    11   ar
