@<TRIPOS>MOLECULE
*****
 34 38 0 0 0
SMALL
GASTEIGER

@<TRIPOS>ATOM
      1 N          -7.5233  -19.5929   21.4974 N.3     1  UNL1       -0.2679
      2 C          -8.3894  -19.2260   22.6657 C.3     1  UNL1        0.0978
      3 C          -9.3484  -20.2302   23.2331 C.3     1  UNL1        0.0224
      4 C         -10.2146  -19.8632   24.4015 C.3     1  UNL1        0.0065
      5 C         -10.1218  -18.4921   25.0025 C.3     1  UNL1        0.0277
      6 C          -9.1628  -17.4879   24.4352 C.ar    1  UNL1       -0.0073
      7 C          -9.0700  -16.1167   25.0362 C.ar    1  UNL1       -0.0015
      8 C          -8.1110  -15.1125   24.4688 C.ar    1  UNL1        0.0203
      9 C          -7.2449  -15.4794   23.3005 C.ar    1  UNL1        0.0985
     10 N          -7.3377  -16.8505   22.6995 N.ar    1  UNL1       -0.2471
     11 C          -8.2967  -17.8548   23.2668 C.ar    1  UNL1        0.0695
     12 C          -6.1769  -20.2129   21.7273 C.3     1  UNL1        0.0886
     13 C          -0.3948  -16.8524   20.1386 C.ar    1  UNL1       -0.0003
     14 C          -0.8029  -17.7050   18.9740 C.ar    1  UNL1       -0.0003
     15 C          -2.0410  -18.5476   19.0588 C.ar    1  UNL1       -0.0045
     16 C          -2.8709  -18.5377   20.3083 C.ar    1  UNL1       -0.0234
     17 C          -2.4627  -17.6850   21.4729 C.ar    1  UNL1       -0.0103
     18 C          -1.2247  -16.8424   21.3881 C.ar    1  UNL1       -0.0032
     19 C          -3.2926  -17.6750   22.7224 C.3     1  UNL1        0.0953
     20 N          -4.5307  -18.5176   22.8072 N.3     1  UNL1       -0.2934
     21 C          -4.9388  -19.3703   21.6425 C.3     1  UNL1        0.0748
     22 C          -4.1089  -19.3803   20.3931 C.3     1  UNL1        0.0432
     23 H          -5.3068  -17.8826   22.9936 H       1  UNL1        0.1236
     24 C          -8.0035  -19.3399   20.0990 C.3     1  UNL1        0.0725
     25 C          -9.1008  -20.1820   19.5189 C.3     1  UNL1        0.0188
     26 C         -10.4586  -19.5885   19.2862 C.3     1  UNL1        0.0188
     27 C         -11.4265  -19.4609   20.4250 C.3     1  UNL1        0.0722
     28 N         -11.5581  -18.1571   21.1550 N.3     1  UNL1       -0.2703
     29 C         -10.6812  -16.9980   20.7839 C.3     1  UNL1        0.0894
     30 C         -10.8128  -15.6942   21.5139 C.3     1  UNL1        0.0862
     31 N         -11.8211  -15.5495   22.6149 N.3     1  UNL1       -0.2951
     32 C         -12.6980  -16.7086   22.9859 C.3     1  UNL1        0.0862
     33 C         -12.5665  -18.0124   22.2560 C.3     1  UNL1        0.0894
     34 H         -12.4412  -14.7849   22.3476 H       1  UNL1        0.1233
@<TRIPOS>BOND
     1    13    14   ar
     2    14    15   ar
     3    15    16   ar
     4    16    17   ar
     5    17    18   ar
     6    17    19    1
     7    19    20    1
     8    20    21    1
     9    21    12    1
    10    12     1    1
    11     1    24    1
    12    24    25    1
    13    25    26    1
    14    26    27    1
    15    27    28    1
    16    28    29    1
    17    29    30    1
    18    30    31    1
    19    31    32    1
    20    32    33    1
    21     2     1    1
    22     2     3    1
    23     3     4    1
    24     4     5    1
    25     5     6    1
    26     6     7   ar
    27     7     8   ar
    28     8     9   ar
    29     9    10   ar
    30    10    11   ar
    31    21    22    1
    32    18    13   ar
    33    33    28    1
    34    11     2    1
    35    22    16    1
    36    11     6   ar
    37    20    23    1
    38    31    34    1
@<TRIPOS>MOLECULE
*****
 34 38 0 0 0
SMALL
GASTEIGER

@<TRIPOS>ATOM
      1 N          -7.5373  -19.6076   21.5778 N.3     1  UNL1       -0.2679
      2 C          -8.3609  -19.2338   22.7744 C.3     1  UNL1        0.0978
      3 C          -9.2403  -20.2576   23.4291 C.3     1  UNL1        0.0224
      4 C         -10.0640  -19.8838   24.6258 C.3     1  UNL1        0.0065
      5 C         -10.0082  -18.4863   25.1677 C.3     1  UNL1        0.0277
      6 C          -9.1288  -17.4625   24.5131 C.ar    1  UNL1       -0.0073
      7 C          -9.0730  -16.0650   25.0551 C.ar    1  UNL1       -0.0015
      8 C          -8.1936  -15.0412   24.4004 C.ar    1  UNL1        0.0203
      9 C          -7.3700  -15.4150   23.2038 C.ar    1  UNL1        0.0985
     10 N          -7.4258  -16.8125   22.6618 N.ar    1  UNL1       -0.2471
     11 C          -8.3052  -17.8363   23.3165 C.ar    1  UNL1        0.0695
     12 C          -6.2615  -20.3761   21.7558 C.3     1  UNL1        0.0886
     13 C          -0.4810  -17.0342   20.1227 C.ar    1  UNL1       -0.0003
     14 C          -1.1146  -16.3688   21.3082 C.ar    1  UNL1       -0.0003
     15 C          -2.3974  -16.9040   21.8720 C.ar    1  UNL1       -0.0045
     16 C          -3.0466  -18.1048   21.2502 C.ar    1  UNL1       -0.0234
     17 C          -2.4130  -18.7702   20.0646 C.ar    1  UNL1       -0.0103
     18 C          -1.1301  -18.2350   19.5008 C.ar    1  UNL1       -0.0032
     19 C          -3.0622  -19.9711   19.4427 C.3     1  UNL1        0.0953
     20 N          -4.3450  -20.5063   20.0064 N.3     1  UNL1       -0.2934
     21 C          -4.9786  -19.8408   21.1921 C.3     1  UNL1        0.0748
     22 C          -4.3294  -18.6401   21.8139 C.3     1  UNL1        0.0432
     23 H          -4.1683  -21.4751   20.2722 H       1  UNL1        0.1236
     24 C          -7.9895  -19.2129   20.2031 C.3     1  UNL1        0.0725
     25 C          -8.9584  -20.0795   19.4546 C.3     1  UNL1        0.0188
     26 C         -10.3904  -19.6558   19.3146 C.3     1  UNL1        0.0188
     27 C         -11.2680  -19.5660   20.5279 C.3     1  UNL1        0.0722
     28 N         -11.4594  -18.2487   21.2193 N.3     1  UNL1       -0.2703
     29 C         -10.6900  -17.0442   20.7644 C.3     1  UNL1        0.0894
     30 C         -10.8813  -15.7269   21.4558 C.3     1  UNL1        0.0862
     31 N         -11.8421  -15.6141   22.6022 N.3     1  UNL1       -0.2951
     32 C         -12.6116  -16.8187   23.0571 C.3     1  UNL1        0.0862
     33 C         -12.4202  -18.1360   22.3657 C.3     1  UNL1        0.0894
     34 H         -12.5293  -14.9067   22.3419 H       1  UNL1        0.1233
@<TRIPOS>BOND
     1    13    14   ar
     2    14    15   ar
     3    15    16   ar
     4    16    17   ar
     5    17    18   ar
     6    17    19    1
     7    19    20    1
     8    20    21    1
     9    21    12    1
    10    12     1    1
    11     1    24    1
    12    24    25    1
    13    25    26    1
    14    26    27    1
    15    27    28    1
    16    28    29    1
    17    29    30    1
    18    30    31    1
    19    31    32    1
    20    32    33    1
    21     2     1    1
    22     2     3    1
    23     3     4    1
    24     4     5    1
    25     5     6    1
    26     6     7   ar
    27     7     8   ar
    28     8     9   ar
    29     9    10   ar
    30    10    11   ar
    31    21    22    1
    32    18    13   ar
    33    33    28    1
    34    11     2    1
    35    22    16    1
    36    11     6   ar
    37    20    23    1
    38    31    34    1
@<TRIPOS>MOLECULE
*****
 34 38 0 0 0
SMALL
GASTEIGER

@<TRIPOS>ATOM
      1 N          -7.8214  -18.8646   21.3048 N.3     1  UNL1       -0.2679
      2 C          -9.0187  -19.0912   22.1793 C.3     1  UNL1        0.0978
      3 C          -8.9425  -20.0649   23.3178 C.3     1  UNL1        0.0224
      4 C         -10.1399  -20.2916   24.1923 C.3     1  UNL1        0.0065
      5 C         -11.4136  -19.5446   23.9284 C.3     1  UNL1        0.0277
      6 C         -11.4899  -18.5709   22.7899 C.ar    1  UNL1       -0.0073
      7 C         -12.7635  -17.8239   22.5260 C.ar    1  UNL1       -0.0015
      8 C         -12.8398  -16.8502   21.3875 C.ar    1  UNL1        0.0203
      9 C         -11.6424  -16.6236   20.5130 C.ar    1  UNL1        0.0985
     10 N         -10.3688  -17.3706   20.7769 N.ar    1  UNL1       -0.2471
     11 C         -10.2925  -18.3442   21.9154 C.ar    1  UNL1        0.0695
     12 C          -7.0572  -17.5771   21.3983 C.3     1  UNL1        0.0886
     13 C          -6.9890  -14.8474   27.7066 C.ar    1  UNL1       -0.0003
     14 C          -8.4084  -15.1162   27.3032 C.ar    1  UNL1       -0.0003
     15 C          -8.7060  -15.7159   25.9609 C.ar    1  UNL1       -0.0045
     16 C          -7.5840  -16.0468   25.0219 C.ar    1  UNL1       -0.0234
     17 C          -6.1646  -15.7780   25.4253 C.ar    1  UNL1       -0.0103
     18 C          -5.8670  -15.1783   26.7676 C.ar    1  UNL1       -0.0032
     19 C          -5.0425  -16.1089   24.4863 C.3     1  UNL1        0.0953
     20 N          -5.3401  -16.7086   23.1440 N.3     1  UNL1       -0.2934
     21 C          -6.7597  -16.9774   22.7406 C.3     1  UNL1        0.0748
     22 C          -7.8816  -16.6465   23.6796 C.3     1  UNL1        0.0432
     23 H          -4.8487  -17.6016   23.1050 H       1  UNL1        0.1236
     24 C          -7.3881  -19.9253   20.3367 C.3     1  UNL1        0.0725
     25 C          -6.2493  -20.8376   20.6840 C.3     1  UNL1        0.0188
     26 C          -4.8451  -20.4570   20.3188 C.3     1  UNL1        0.0188
     27 C          -4.0241  -19.6267   21.2605 C.3     1  UNL1        0.0722
     28 N          -2.9949  -18.6780   20.7214 N.3     1  UNL1       -0.2703
     29 C          -2.3993  -17.6306   21.6148 C.3     1  UNL1        0.0894
     30 C          -1.3701  -16.6819   21.0756 C.3     1  UNL1        0.0862
     31 N          -0.9365  -16.7805   19.6431 N.3     1  UNL1       -0.2951
     32 C          -1.5321  -17.8279   18.7496 C.3     1  UNL1        0.0862
     33 C          -2.5613  -18.7767   19.2887 C.3     1  UNL1        0.0894
     34 H           0.0712  -16.9383   19.6507 H       1  UNL1        0.1233
@<TRIPOS>BOND
     1    13    14   ar
     2    14    15   ar
     3    15    16   ar
     4    16    17   ar
     5    17    18   ar
     6    17    19    1
     7    19    20    1
     8    20    21    1
     9    21    12    1
    10    12     1    1
    11     1    24    1
    12    24    25    1
    13    25    26    1
    14    26    27    1
    15    27    28    1
    16    28    29    1
    17    29    30    1
    18    30    31    1
    19    31    32    1
    20    32    33    1
    21     2     1    1
    22     2     3    1
    23     3     4    1
    24     4     5    1
    25     5     6    1
    26     6     7   ar
    27     7     8   ar
    28     8     9   ar
    29     9    10   ar
    30    10    11   ar
    31    21    22    1
    32    18    13   ar
    33    33    28    1
    34    11     2    1
    35    22    16    1
    36    11     6   ar
    37    20    23    1
    38    31    34    1
@<TRIPOS>MOLECULE
*****
 34 38 0 0 0
SMALL
GASTEIGER

@<TRIPOS>ATOM
      1 N          -7.4680  -19.1685   20.7172 N.3     1  UNL1       -0.2679
      2 C          -7.9955  -18.2299   21.7616 C.3     1  UNL1        0.0978
      3 C          -7.7759  -16.7526   21.6222 C.3     1  UNL1        0.0224
      4 C          -8.3035  -15.8141   22.6666 C.3     1  UNL1        0.0065
      5 C          -9.0507  -16.3528   23.8504 C.3     1  UNL1        0.0277
      6 C          -9.2703  -17.8301   23.9898 C.ar    1  UNL1       -0.0073
      7 C         -10.0175  -18.3688   25.1736 C.ar    1  UNL1       -0.0015
      8 C         -10.2372  -19.8461   25.3130 C.ar    1  UNL1        0.0203
      9 C          -9.7096  -20.7846   24.2687 C.ar    1  UNL1        0.0985
     10 N          -8.9624  -20.2459   23.0849 N.ar    1  UNL1       -0.2471
     11 C          -8.7428  -18.7686   22.9455 C.ar    1  UNL1        0.0695
     12 C          -6.3016  -20.0586   21.0291 C.3     1  UNL1        0.0886
     13 C          -0.0307  -17.4362   20.0052 C.ar    1  UNL1       -0.0003
     14 C          -0.6855  -17.6759   18.6772 C.ar    1  UNL1       -0.0003
     15 C          -2.0706  -18.2483   18.6164 C.ar    1  UNL1       -0.0045
     16 C          -2.8010  -18.5811   19.8836 C.ar    1  UNL1       -0.0234
     17 C          -2.1461  -18.3414   21.2116 C.ar    1  UNL1       -0.0103
     18 C          -0.7610  -17.7689   21.2724 C.ar    1  UNL1       -0.0032
     19 C          -2.8765  -18.6741   22.4789 C.3     1  UNL1        0.0953
     20 N          -4.2616  -19.2465   22.4181 N.3     1  UNL1       -0.2934
     21 C          -4.9164  -19.4862   21.0900 C.3     1  UNL1        0.0748
     22 C          -4.1861  -19.1535   19.8227 C.3     1  UNL1        0.0432
     23 H          -4.8671  -18.6079   22.9339 H       1  UNL1        0.1236
     24 C          -8.1067  -19.2169   19.3609 C.3     1  UNL1        0.0725
     25 C          -9.2966  -20.0988   19.1233 C.3     1  UNL1        0.0188
     26 C         -10.6513  -19.6780   19.6108 C.3     1  UNL1        0.0188
     27 C         -10.9900  -18.2207   19.7194 C.3     1  UNL1        0.0722
     28 N         -11.6605  -17.6966   20.9547 N.3     1  UNL1       -0.2703
     29 C         -11.6920  -16.2210   21.2222 C.3     1  UNL1        0.0894
     30 C         -12.3625  -15.6970   22.4575 C.3     1  UNL1        0.0862
     31 N         -13.0014  -16.6484   23.4251 N.3     1  UNL1       -0.2951
     32 C         -12.9698  -18.1241   23.1576 C.3     1  UNL1        0.0862
     33 C         -12.2994  -18.6482   21.9224 C.3     1  UNL1        0.0894
     34 H         -13.9837  -16.3827   23.4943 H       1  UNL1        0.1233
@<TRIPOS>BOND
     1    13    14   ar
     2    14    15   ar
     3    15    16   ar
     4    16    17   ar
     5    17    18   ar
     6    17    19    1
     7    19    20    1
     8    20    21    1
     9    21    12    1
    10    12     1    1
    11     1    24    1
    12    24    25    1
    13    25    26    1
    14    26    27    1
    15    27    28    1
    16    28    29    1
    17    29    30    1
    18    30    31    1
    19    31    32    1
    20    32    33    1
    21     2     1    1
    22     2     3    1
    23     3     4    1
    24     4     5    1
    25     5     6    1
    26     6     7   ar
    27     7     8   ar
    28     8     9   ar
    29     9    10   ar
    30    10    11   ar
    31    21    22    1
    32    18    13   ar
    33    33    28    1
    34    11     2    1
    35    22    16    1
    36    11     6   ar
    37    20    23    1
    38    31    34    1
@<TRIPOS>MOLECULE
*****
 34 38 0 0 0
SMALL
GASTEIGER

@<TRIPOS>ATOM
      1 N          -9.4767  -18.9271   23.9998 N.3     1  UNL1       -0.2679
      2 C         -10.8846  -18.4918   23.7198 C.3     1  UNL1        0.0978
      3 C         -11.9886  -18.8729   24.6610 C.3     1  UNL1        0.0224
      4 C         -13.3966  -18.4376   24.3810 C.3     1  UNL1        0.0065
      5 C         -13.7004  -17.6213   23.1598 C.3     1  UNL1        0.0277
      6 C         -12.5963  -17.2402   22.2186 C.ar    1  UNL1       -0.0073
      7 C         -12.9001  -16.4239   20.9975 C.ar    1  UNL1       -0.0015
      8 C         -11.7961  -16.0428   20.0563 C.ar    1  UNL1        0.0203
      9 C         -10.3882  -16.4780   20.3363 C.ar    1  UNL1        0.0985
     10 N         -10.0844  -17.2944   21.5574 N.ar    1  UNL1       -0.2471
     11 C         -11.1885  -17.6755   22.4986 C.ar    1  UNL1        0.0695
     12 C          -8.8699  -20.0531   23.2162 C.3     1  UNL1        0.0886
     13 C          -2.9701  -19.0510   19.8344 C.ar    1  UNL1       -0.0003
     14 C          -2.6648  -19.4119   21.2579 C.ar    1  UNL1       -0.0003
     15 C          -3.7838  -19.6846   22.2190 C.ar    1  UNL1       -0.0045
     16 C          -5.2079  -19.5962   21.7565 C.ar    1  UNL1       -0.0234
     17 C          -5.5131  -19.2353   20.3330 C.ar    1  UNL1       -0.0103
     18 C          -4.3942  -18.9627   19.3719 C.ar    1  UNL1       -0.0032
     19 C          -6.9374  -19.1470   19.8705 C.3     1  UNL1        0.0953
     20 N          -8.0563  -19.4196   20.8316 N.3     1  UNL1       -0.2934
     21 C          -7.7510  -19.7805   22.2552 C.3     1  UNL1        0.0748
     22 C          -6.3268  -19.8689   22.7176 C.3     1  UNL1        0.0432
     23 H          -8.5978  -20.1911   20.4418 H       1  UNL1        0.1236
     24 C          -8.6756  -18.2363   25.0632 C.3     1  UNL1        0.0725
     25 C          -9.3667  -17.6331   26.2500 C.3     1  UNL1        0.0188
     26 C          -8.5749  -16.8749   27.2738 C.3     1  UNL1        0.0188
     27 C          -8.0084  -15.5274   26.9366 C.3     1  UNL1        0.0722
     28 N          -7.2368  -15.3351   25.6648 N.3     1  UNL1       -0.2703
     29 C          -7.9511  -14.9382   24.4069 C.3     1  UNL1        0.0894
     30 C          -7.1794  -14.7459   23.1351 C.3     1  UNL1        0.0862
     31 N          -5.6936  -14.9506   23.1210 N.3     1  UNL1       -0.2951
     32 C          -4.9792  -15.3476   24.3789 C.3     1  UNL1        0.0862
     33 C          -5.7509  -15.5399   25.6508 C.3     1  UNL1        0.0894
     34 H          -5.2782  -14.0719   22.8113 H       1  UNL1        0.1233
@<TRIPOS>BOND
     1    13    14   ar
     2    14    15   ar
     3    15    16   ar
     4    16    17   ar
     5    17    18   ar
     6    17    19    1
     7    19    20    1
     8    20    21    1
     9    21    12    1
    10    12     1    1
    11     1    24    1
    12    24    25    1
    13    25    26    1
    14    26    27    1
    15    27    28    1
    16    28    29    1
    17    29    30    1
    18    30    31    1
    19    31    32    1
    20    32    33    1
    21     2     1    1
    22     2     3    1
    23     3     4    1
    24     4     5    1
    25     5     6    1
    26     6     7   ar
    27     7     8   ar
    28     8     9   ar
    29     9    10   ar
    30    10    11   ar
    31    21    22    1
    32    18    13   ar
    33    33    28    1
    34    11     2    1
    35    22    16    1
    36    11     6   ar
    37    20    23    1
    38    31    34    1
@<TRIPOS>MOLECULE
*****
 34 38 0 0 0
SMALL
GASTEIGER

@<TRIPOS>ATOM
      1 N          -6.3588  -19.4391   21.6547 N.3     1  UNL1       -0.2679
      2 C          -5.5801  -18.5344   22.5631 C.3     1  UNL1        0.0978
      3 C          -4.1934  -18.9141   22.9910 C.3     1  UNL1        0.0224
      4 C          -3.4147  -18.0093   23.8994 C.3     1  UNL1        0.0065
      5 C          -4.0226  -16.7250   24.3798 C.3     1  UNL1        0.0277
      6 C          -5.4093  -16.3453   23.9519 C.ar    1  UNL1       -0.0073
      7 C          -6.0172  -15.0609   24.4323 C.ar    1  UNL1       -0.0015
      8 C          -7.4038  -14.6813   24.0043 C.ar    1  UNL1        0.0203
      9 C          -8.1825  -15.5859   23.0960 C.ar    1  UNL1        0.0985
     10 N          -7.5746  -16.8703   22.6156 N.ar    1  UNL1       -0.2471
     11 C          -6.1880  -17.2500   23.0435 C.ar    1  UNL1        0.0695
     12 C          -7.5218  -20.2201   22.1910 C.3     1  UNL1        0.0886
     13 C         -13.7950  -17.8056   23.6287 C.ar    1  UNL1       -0.0003
     14 C         -13.2475  -18.5019   24.8393 C.ar    1  UNL1       -0.0003
     15 C         -11.8834  -19.1240   24.7938 C.ar    1  UNL1       -0.0045
     16 C         -11.0667  -19.0499   23.5379 C.ar    1  UNL1       -0.0234
     17 C         -11.6142  -18.3537   22.3273 C.ar    1  UNL1       -0.0103
     18 C         -12.9784  -17.7315   22.3727 C.ar    1  UNL1       -0.0032
     19 C         -10.7975  -18.2795   21.0712 C.3     1  UNL1        0.0953
     20 N          -9.4334  -18.9017   21.0258 N.3     1  UNL1       -0.2934
     21 C          -8.8859  -19.5979   22.2365 C.3     1  UNL1        0.0748
     22 C          -9.7026  -19.6720   23.4924 C.3     1  UNL1        0.0432
     23 H          -8.7773  -18.1561   20.7931 H       1  UNL1        0.1236
     24 C          -5.9745  -19.5628   20.2101 C.3     1  UNL1        0.0725
     25 C          -5.0581  -20.6655   19.7695 C.3     1  UNL1        0.0188
     26 C          -3.5716  -20.4725   19.8250 C.3     1  UNL1        0.0188
     27 C          -2.9219  -19.4081   18.9913 C.3     1  UNL1        0.0722
     28 N          -2.0585  -18.3684   19.6421 N.3     1  UNL1       -0.2703
     29 C          -0.5727  -18.3923   19.4378 C.3     1  UNL1        0.0894
     30 C           0.2907  -17.3526   20.0886 C.3     1  UNL1        0.0862
     31 N          -0.3317  -16.2890   20.9438 N.3     1  UNL1       -0.2951
     32 C          -1.8176  -16.2651   21.1481 C.3     1  UNL1        0.0862
     33 C          -2.6810  -17.3047   20.4973 C.3     1  UNL1        0.0894
     34 H          -0.0769  -15.3921   20.5302 H       1  UNL1        0.1233
@<TRIPOS>BOND
     1    13    14   ar
     2    14    15   ar
     3    15    16   ar
     4    16    17   ar
     5    17    18   ar
     6    17    19    1
     7    19    20    1
     8    20    21    1
     9    21    12    1
    10    12     1    1
    11     1    24    1
    12    24    25    1
    13    25    26    1
    14    26    27    1
    15    27    28    1
    16    28    29    1
    17    29    30    1
    18    30    31    1
    19    31    32    1
    20    32    33    1
    21     2     1    1
    22     2     3    1
    23     3     4    1
    24     4     5    1
    25     5     6    1
    26     6     7   ar
    27     7     8   ar
    28     8     9   ar
    29     9    10   ar
    30    10    11   ar
    31    21    22    1
    32    18    13   ar
    33    33    28    1
    34    11     2    1
    35    22    16    1
    36    11     6   ar
    37    20    23    1
    38    31    34    1
@<TRIPOS>MOLECULE
*****
 34 38 0 0 0
SMALL
GASTEIGER

@<TRIPOS>ATOM
      1 N          -9.4845  -18.9909   23.5417 N.3     1  UNL1       -0.2679
      2 C          -8.8991  -17.6112   23.6023 C.3     1  UNL1        0.0978
      3 C          -8.6114  -16.8623   22.3349 C.3     1  UNL1        0.0224
      4 C          -8.0260  -15.4825   22.3955 C.3     1  UNL1        0.0065
      5 C          -7.7284  -14.8517   23.7235 C.3     1  UNL1        0.0277
      6 C          -8.0161  -15.6007   24.9909 C.ar    1  UNL1       -0.0073
      7 C          -7.7185  -14.9699   26.3188 C.ar    1  UNL1       -0.0015
      8 C          -8.0062  -15.7189   27.5862 C.ar    1  UNL1        0.0203
      9 C          -8.5915  -17.0986   27.5257 C.ar    1  UNL1        0.0985
     10 N          -8.8892  -17.7294   26.1977 N.ar    1  UNL1       -0.2471
     11 C          -8.6014  -16.9804   24.9303 C.ar    1  UNL1        0.0695
     12 C          -8.6920  -20.1164   22.9455 C.3     1  UNL1        0.0886
     13 C          -2.6307  -18.8914   19.9439 C.ar    1  UNL1       -0.0003
     14 C          -2.4120  -19.1470   21.4057 C.ar    1  UNL1       -0.0003
     15 C          -3.5805  -19.4431   22.2983 C.ar    1  UNL1       -0.0045
     16 C          -4.9677  -19.4836   21.7292 C.ar    1  UNL1       -0.0234
     17 C          -5.1864  -19.2280   20.2675 C.ar    1  UNL1       -0.0103
     18 C          -4.0179  -18.9319   19.3748 C.ar    1  UNL1       -0.0032
     19 C          -6.5737  -19.2685   19.6983 C.3     1  UNL1        0.0953
     20 N          -7.7422  -19.5646   20.5910 N.3     1  UNL1       -0.2934
     21 C          -7.5235  -19.8203   22.0528 C.3     1  UNL1        0.0748
     22 C          -6.1362  -19.7797   22.6219 C.3     1  UNL1        0.0432
     23 H          -8.1994  -20.3941   20.2122 H       1  UNL1        0.1236
     24 C         -10.8623  -19.2453   24.0774 C.3     1  UNL1        0.0725
     25 C         -11.7997  -18.0979   24.3113 C.3     1  UNL1        0.0188
     26 C         -13.2431  -18.2170   23.9209 C.3     1  UNL1        0.0188
     27 C         -13.6343  -18.1768   22.4733 C.3     1  UNL1        0.0722
     28 N         -12.6367  -17.7479   21.4385 N.3     1  UNL1       -0.2703
     29 C         -11.7958  -18.7730   20.7371 C.3     1  UNL1        0.0894
     30 C         -10.7982  -18.3441   19.7023 C.3     1  UNL1        0.0862
     31 N         -10.6415  -16.8900   19.3688 N.3     1  UNL1       -0.2951
     32 C         -11.4825  -15.8648   20.0702 C.3     1  UNL1        0.0862
     33 C         -12.4800  -16.2938   21.1051 C.3     1  UNL1        0.0894
     34 H         -10.8319  -16.7945   18.3713 H       1  UNL1        0.1233
@<TRIPOS>BOND
     1    13    14   ar
     2    14    15   ar
     3    15    16   ar
     4    16    17   ar
     5    17    18   ar
     6    17    19    1
     7    19    20    1
     8    20    21    1
     9    21    12    1
    10    12     1    1
    11     1    24    1
    12    24    25    1
    13    25    26    1
    14    26    27    1
    15    27    28    1
    16    28    29    1
    17    29    30    1
    18    30    31    1
    19    31    32    1
    20    32    33    1
    21     2     1    1
    22     2     3    1
    23     3     4    1
    24     4     5    1
    25     5     6    1
    26     6     7   ar
    27     7     8   ar
    28     8     9   ar
    29     9    10   ar
    30    10    11   ar
    31    21    22    1
    32    18    13   ar
    33    33    28    1
    34    11     2    1
    35    22    16    1
    36    11     6   ar
    37    20    23    1
    38    31    34    1
@<TRIPOS>MOLECULE
*****
 34 38 0 0 0
SMALL
GASTEIGER

@<TRIPOS>ATOM
      1 N          -7.0962  -17.3046   22.4913 N.3     1  UNL1       -0.2679
      2 C          -6.4722  -16.4748   23.5738 C.3     1  UNL1        0.0978
      3 C          -5.2021  -15.7235   23.3049 C.3     1  UNL1        0.0224
      4 C          -4.5781  -14.8936   24.3875 C.3     1  UNL1        0.0065
      5 C          -5.2241  -14.8151   25.7390 C.3     1  UNL1        0.0277
      6 C          -6.4943  -15.5665   26.0078 C.ar    1  UNL1       -0.0073
      7 C          -7.1404  -15.4880   27.3592 C.ar    1  UNL1       -0.0015
      8 C          -8.4105  -16.2393   27.6281 C.ar    1  UNL1        0.0203
      9 C          -9.0345  -17.0692   26.5456 C.ar    1  UNL1        0.0985
     10 N          -8.3884  -17.1476   25.1942 N.ar    1  UNL1       -0.2471
     11 C          -7.1183  -16.3963   24.9253 C.ar    1  UNL1        0.0695
     12 C          -8.1629  -16.7164   21.6159 C.3     1  UNL1        0.0886
     13 C         -14.3314  -18.1665   24.2799 C.ar    1  UNL1       -0.0003
     14 C         -13.2793  -18.9187   25.0396 C.ar    1  UNL1       -0.0003
     15 C         -11.8352  -18.7792   24.6588 C.ar    1  UNL1       -0.0045
     16 C         -11.4432  -17.8873   23.5182 C.ar    1  UNL1       -0.0234
     17 C         -12.4953  -17.1351   22.7585 C.ar    1  UNL1       -0.0103
     18 C         -13.9394  -17.2747   23.1394 C.ar    1  UNL1       -0.0032
     19 C         -12.1033  -16.2433   21.6179 C.3     1  UNL1        0.0953
     20 N         -10.6592  -16.1037   21.2370 N.3     1  UNL1       -0.2934
     21 C          -9.6070  -16.8559   21.9968 C.3     1  UNL1        0.0748
     22 C          -9.9991  -17.7478   23.1374 C.3     1  UNL1        0.0432
     23 H         -10.4281  -15.1133   21.3163 H       1  UNL1        0.1236
     24 C          -6.6536  -18.7228   22.2839 C.3     1  UNL1        0.0725
     25 C          -6.5941  -19.2950   20.8987 C.3     1  UNL1        0.0188
     26 C          -5.8815  -20.5918   20.6529 C.3     1  UNL1        0.0188
     27 C          -4.5045  -20.5899   20.0579 C.3     1  UNL1        0.0722
     28 N          -3.5172  -19.5328   20.4554 N.3     1  UNL1       -0.2703
     29 C          -3.0586  -19.4327   21.8800 C.3     1  UNL1        0.0894
     30 C          -2.0713  -18.3757   22.2776 C.3     1  UNL1        0.0862
     31 N          -1.5427  -17.4188   21.2505 N.3     1  UNL1       -0.2951
     32 C          -2.0013  -17.5189   19.8258 C.3     1  UNL1        0.0862
     33 C          -2.9886  -18.5759   19.4283 C.3     1  UNL1        0.0894
     34 H          -0.5285  -17.5271   21.2417 H       1  UNL1        0.1233
@<TRIPOS>BOND
     1    13    14   ar
     2    14    15   ar
     3    15    16   ar
     4    16    17   ar
     5    17    18   ar
     6    17    19    1
     7    19    20    1
     8    20    21    1
     9    21    12    1
    10    12     1    1
    11     1    24    1
    12    24    25    1
    13    25    26    1
    14    26    27    1
    15    27    28    1
    16    28    29    1
    17    29    30    1
    18    30    31    1
    19    31    32    1
    20    32    33    1
    21     2     1    1
    22     2     3    1
    23     3     4    1
    24     4     5    1
    25     5     6    1
    26     6     7   ar
    27     7     8   ar
    28     8     9   ar
    29     9    10   ar
    30    10    11   ar
    31    21    22    1
    32    18    13   ar
    33    33    28    1
    34    11     2    1
    35    22    16    1
    36    11     6   ar
    37    20    23    1
    38    31    34    1
