@<TRIPOS>MOLECULE
*****
 28 31 0 0 0
SMALL
GASTEIGER

@<TRIPOS>ATOM
      1 C           5.8799   -0.8813   33.9442 C.ar    1  UNL1        0.0593
      2 C           4.8910   -1.9326   33.5359 C.ar    1  UNL1        0.0152
      3 C           5.2974   -3.0127   32.5775 C.ar    1  UNL1        0.0035
      4 C           6.6925   -3.0414   32.0275 C.ar    1  UNL1        0.0277
      5 C           7.6815   -1.9901   32.4359 C.ar    1  UNL1        0.1413
      6 F           9.0768   -2.0187   31.8860 F       1  UNL1       -0.2041
      7 C           7.2752   -0.9101   33.3943 C.ar    1  UNL1        0.0446
      8 C           7.0989   -4.1214   31.0691 C.ar    1  UNL1        0.0067
      9 C           8.0696   -5.1805   31.5003 C.ar    1  UNL1        0.0192
     10 C           8.4760   -6.2606   30.5419 C.ar    1  UNL1        0.0815
     11 N           7.9116   -6.2813   29.1523 N.ar    1  UNL1       -0.2874
     12 C           8.1249   -7.2131   27.9963 C.ar    1  UNL1        0.1022
     13 C           7.2860   -6.7297   26.8506 C.ar    1  UNL1        0.1195
     14 N           6.5543   -5.4993   27.2985 N.ar    1  UNL1       -0.2248
     15 C           6.9410   -5.2222   28.7211 C.ar    1  UNL1        0.1479
     16 C           6.5346   -4.1422   29.6795 C.ar    1  UNL1        0.0375
     17 C           4.7968    1.3533   36.9273 C.3     1  UNL1        0.2100
     18 C           5.1514    0.0125   36.3557 C.3     1  UNL1        0.1468
     19 N           5.4736    0.1987   34.9026 N.am    1  UNL1       -0.2212
     20 C           5.3182    1.6545   34.5761 C.2     1  UNL1        0.4088
     21 O           5.5418    2.2858   33.2340 O.2     1  UNL1       -0.2258
     22 O           4.8999    2.3680   35.8274 O.3     1  UNL1       -0.4345
     23 C           4.4075    1.6306   38.3491 C.3     1  UNL1        0.1352
     24 C           0.9923    0.0291   39.5829 C.3     1  UNL1        0.0946
     25 C           1.9619    0.9330   38.8808 C.2     1  UNL1        0.2231
     26 O           1.4556    2.0433   38.0084 O.2     1  UNL1       -0.2751
     27 N           3.4379    0.7267   39.0511 N.am    1  UNL1       -0.3011
     28 H           3.7702   -0.0020   39.6237 H       1  UNL1        0.1495
@<TRIPOS>BOND
     1    24    25    1
     2    25    26    2
     3    25    27   am
     4    27    23    1
     5    17    23    1
     6    17    18    1
     7    18    19    1
     8    19     1    1
     9     1     2   ar
    10     2     3   ar
    11     3     4   ar
    12     4     8    1
    13     8     9   ar
    14     9    10   ar
    15    10    11   ar
    16    11    12   ar
    17    12    13   ar
    18    13    14   ar
    19    14    15   ar
    20    15    16   ar
    21     4     5   ar
    22     5     6    1
    23     5     7   ar
    24    19    20   am
    25    20    21    2
    26    20    22    1
    27    22    17    1
    28     7     1   ar
    29    16     8   ar
    30    15    11   ar
    31    27    28    1
@<TRIPOS>MOLECULE
*****
 28 31 0 0 0
SMALL
GASTEIGER

@<TRIPOS>ATOM
      1 C           6.6029   -2.8600   32.0519 C.ar    1  UNL1        0.0593
      2 C           5.1931   -3.0589   32.5241 C.ar    1  UNL1        0.0152
      3 C           4.6002   -2.1193   33.5320 C.ar    1  UNL1        0.0035
      4 C           5.4170   -0.9810   34.0675 C.ar    1  UNL1        0.0277
      5 C           6.8267   -0.7821   33.5953 C.ar    1  UNL1        0.1413
      6 F           7.6436    0.3564   34.1308 F       1  UNL1       -0.2041
      7 C           7.4197   -1.7216   32.5875 C.ar    1  UNL1        0.0446
      8 C           4.8240   -0.0414   35.0754 C.ar    1  UNL1        0.0067
      9 C           5.2349   -0.1292   36.5153 C.ar    1  UNL1        0.0192
     10 C           4.6420    0.8104   37.5231 C.ar    1  UNL1        0.0815
     11 N           3.6382    1.8378   37.0909 N.ar    1  UNL1       -0.2874
     12 C           2.8884    2.8907   37.8520 C.ar    1  UNL1        0.1022
     13 C           2.0141    3.6292   36.8823 C.ar    1  UNL1        0.1195
     14 N           2.2235    3.0328   35.5220 N.ar    1  UNL1       -0.2248
     15 C           3.2273    1.9256   35.6509 C.ar    1  UNL1        0.1479
     16 C           3.8202    0.9860   34.6432 C.ar    1  UNL1        0.0375
     17 C           8.3371   -4.6608   29.0829 C.3     1  UNL1        0.2100
     18 C           7.9146   -3.4059   29.7878 C.3     1  UNL1        0.1468
     19 N           7.1958   -3.7996   31.0441 N.am    1  UNL1       -0.2212
     20 C           7.1741   -5.2977   31.1157 C.2     1  UNL1        0.4088
     21 O           6.5556   -6.1194   32.2076 O.2     1  UNL1       -0.2258
     22 O           7.8795   -5.8299   29.9036 O.3     1  UNL1       -0.4345
     23 C           9.0859   -4.7336   27.7852 C.3     1  UNL1        0.1352
     24 C           7.9056   -7.6012   25.3085 C.3     1  UNL1        0.0946
     25 C           7.9107   -6.3315   26.1071 C.2     1  UNL1        0.2231
     26 O           6.7458   -5.3898   26.0262 O.2     1  UNL1       -0.2751
     27 N           9.0807   -6.0033   26.9866 N.am    1  UNL1       -0.3011
     28 H           9.8452   -6.6213   27.0397 H       1  UNL1        0.1495
@<TRIPOS>BOND
     1    24    25    1
     2    25    26    2
     3    25    27   am
     4    27    23    1
     5    17    23    1
     6    17    18    1
     7    18    19    1
     8    19     1    1
     9     1     2   ar
    10     2     3   ar
    11     3     4   ar
    12     4     8    1
    13     8     9   ar
    14     9    10   ar
    15    10    11   ar
    16    11    12   ar
    17    12    13   ar
    18    13    14   ar
    19    14    15   ar
    20    15    16   ar
    21     4     5   ar
    22     5     6    1
    23     5     7   ar
    24    19    20   am
    25    20    21    2
    26    20    22    1
    27    22    17    1
    28     7     1   ar
    29    16     8   ar
    30    15    11   ar
    31    27    28    1
@<TRIPOS>MOLECULE
*****
 28 31 0 0 0
SMALL
GASTEIGER

@<TRIPOS>ATOM
      1 C           4.8968   -1.0218   32.6754 C.ar    1  UNL1        0.0593
      2 C           4.9922   -2.4033   33.2518 C.ar    1  UNL1        0.0152
      3 C           5.7276   -3.4776   32.5067 C.ar    1  UNL1        0.0035
      4 C           6.3676   -3.1704   31.1854 C.ar    1  UNL1        0.0277
      5 C           6.2721   -1.7889   30.6090 C.ar    1  UNL1        0.1413
      6 F           6.9121   -1.4815   29.2876 F       1  UNL1       -0.2041
      7 C           5.5367   -0.7146   31.3540 C.ar    1  UNL1        0.0446
      8 C           7.1030   -4.2447   30.4403 C.ar    1  UNL1        0.0067
      9 C           8.3555   -4.8347   31.0173 C.ar    1  UNL1        0.0192
     10 C           9.0909   -5.9090   30.2722 C.ar    1  UNL1        0.0815
     11 N           8.5737   -6.3932   28.9501 N.ar    1  UNL1       -0.2874
     12 C           9.0806   -7.4313   27.9933 C.ar    1  UNL1        0.1022
     13 C           8.1413   -7.4828   26.8250 C.ar    1  UNL1        0.1195
     14 N           7.0539   -6.4766   27.0597 N.ar    1  UNL1       -0.2248
     15 C           7.3212   -5.8032   28.3731 C.ar    1  UNL1        0.1479
     16 C           6.5858   -4.7289   29.1182 C.ar    1  UNL1        0.0375
     17 C           3.4641    1.5871   35.1666 C.3     1  UNL1        0.2100
     18 C           4.4320    0.4921   34.8288 C.3     1  UNL1        0.1468
     19 N           4.1614    0.0525   33.4204 N.am    1  UNL1       -0.2212
     20 C           3.0262    0.8758   32.8879 C.2     1  UNL1        0.4088
     21 O           2.4272    0.7694   31.5168 O.2     1  UNL1       -0.2258
     22 O           2.5953    1.8243   33.9671 O.3     1  UNL1       -0.4345
     23 C           3.3798    2.3169   36.4745 C.3     1  UNL1        0.1352
     24 C           0.8534    1.6367   39.4585 C.3     1  UNL1        0.0946
     25 C           2.1196    1.6804   38.6555 C.2     1  UNL1        0.2231
     26 O           3.3918    1.1315   39.2304 O.2     1  UNL1       -0.2751
     27 N           2.1137    2.2731   37.2775 N.am    1  UNL1       -0.3011
     28 H           1.2788    2.6334   36.9002 H       1  UNL1        0.1495
@<TRIPOS>BOND
     1    24    25    1
     2    25    26    2
     3    25    27   am
     4    27    23    1
     5    17    23    1
     6    17    18    1
     7    18    19    1
     8    19     1    1
     9     1     2   ar
    10     2     3   ar
    11     3     4   ar
    12     4     8    1
    13     8     9   ar
    14     9    10   ar
    15    10    11   ar
    16    11    12   ar
    17    12    13   ar
    18    13    14   ar
    19    14    15   ar
    20    15    16   ar
    21     4     5   ar
    22     5     6    1
    23     5     7   ar
    24    19    20   am
    25    20    21    2
    26    20    22    1
    27    22    17    1
    28     7     1   ar
    29    16     8   ar
    30    15    11   ar
    31    27    28    1
@<TRIPOS>MOLECULE
*****
 28 31 0 0 0
SMALL
GASTEIGER

@<TRIPOS>ATOM
      1 C           5.5991   -1.5039   32.2809 C.ar    1  UNL1        0.0593
      2 C           5.9596   -0.9266   30.9442 C.ar    1  UNL1        0.0152
      3 C           6.5803   -1.7988   29.8934 C.ar    1  UNL1        0.0035
      4 C           6.8404   -3.2481   30.1793 C.ar    1  UNL1        0.0277
      5 C           6.4799   -3.8253   31.5159 C.ar    1  UNL1        0.1413
      6 F           6.7400   -5.2747   31.8019 F       1  UNL1       -0.2041
      7 C           5.8592   -2.9533   32.5668 C.ar    1  UNL1        0.0446
      8 C           7.4611   -4.1202   29.1284 C.ar    1  UNL1        0.0067
      9 C           8.9127   -3.9632   28.7848 C.ar    1  UNL1        0.0192
     10 C           9.5333   -4.8353   27.7340 C.ar    1  UNL1        0.0815
     11 N           8.7023   -5.8646   27.0268 N.ar    1  UNL1       -0.2874
     12 C           9.0354   -6.8600   25.9554 C.ar    1  UNL1        0.1022
     13 C           7.7896   -7.6323   25.6368 C.ar    1  UNL1        0.1195
     14 N           6.6866   -7.1142   26.5114 N.ar    1  UNL1       -0.2248
     15 C           7.2507   -6.0216   27.3705 C.ar    1  UNL1        0.1479
     16 C           6.6301   -5.1494   28.4213 C.ar    1  UNL1        0.0375
     17 C           4.5703    0.5236   35.4267 C.3     1  UNL1        0.2100
     18 C           5.4987   -0.4212   34.7227 C.3     1  UNL1        0.1468
     19 N           4.9784   -0.6318   33.3317 N.am    1  UNL1       -0.2212
     20 C           3.7285    0.1827   33.1761 C.2     1  UNL1        0.4088
     21 O           2.8798    0.2682   31.9422 O.2     1  UNL1       -0.2258
     22 O           3.4763    0.8968   34.4708 O.3     1  UNL1       -0.4345
     23 C           4.7113    1.0097   36.8388 C.3     1  UNL1        0.1352
     24 C           1.5656    0.5906   39.2218 C.3     1  UNL1        0.0946
     25 C           2.4721    1.1223   38.1515 C.2     1  UNL1        0.2231
     26 O           2.0459    2.2985   37.3237 O.2     1  UNL1       -0.2751
     27 N           3.8048    0.4780   37.9091 N.am    1  UNL1       -0.3011
     28 H           4.0845   -0.2939   38.4524 H       1  UNL1        0.1495
@<TRIPOS>BOND
     1    24    25    1
     2    25    26    2
     3    25    27   am
     4    27    23    1
     5    17    23    1
     6    17    18    1
     7    18    19    1
     8    19     1    1
     9     1     2   ar
    10     2     3   ar
    11     3     4   ar
    12     4     8    1
    13     8     9   ar
    14     9    10   ar
    15    10    11   ar
    16    11    12   ar
    17    12    13   ar
    18    13    14   ar
    19    14    15   ar
    20    15    16   ar
    21     4     5   ar
    22     5     6    1
    23     5     7   ar
    24    19    20   am
    25    20    21    2
    26    20    22    1
    27    22    17    1
    28     7     1   ar
    29    16     8   ar
    30    15    11   ar
    31    27    28    1
@<TRIPOS>MOLECULE
*****
 28 31 0 0 0
SMALL
GASTEIGER

@<TRIPOS>ATOM
      1 C           6.6954   -4.2889   27.3071 C.ar    1  UNL1        0.0593
      2 C           6.9993   -5.4119   26.3603 C.ar    1  UNL1        0.0152
      3 C           6.8707   -5.2009   24.8807 C.ar    1  UNL1        0.0035
      4 C           6.4383   -3.8671   24.3481 C.ar    1  UNL1        0.0277
      5 C           6.1344   -2.7441   25.2949 C.ar    1  UNL1        0.1413
      6 F           5.7019   -1.4102   24.7624 F       1  UNL1       -0.2041
      7 C           6.2629   -2.9550   26.7745 C.ar    1  UNL1        0.0446
      8 C           6.3097   -3.6561   22.8685 C.ar    1  UNL1        0.0067
      9 C           7.5265   -3.7168   21.9937 C.ar    1  UNL1        0.0192
     10 C           7.3980   -3.5058   20.5141 C.ar    1  UNL1        0.0815
     11 N           6.0524   -3.2341   19.9095 N.ar    1  UNL1       -0.2874
     12 C           5.6190   -2.9879   18.4948 C.ar    1  UNL1        0.1022
     13 C           4.1342   -2.7749   18.4953 C.ar    1  UNL1        0.1195
     14 N           3.6499   -2.8896   19.9103 N.ar    1  UNL1       -0.2248
     15 C           4.8355   -3.1734   20.7844 C.ar    1  UNL1        0.1479
     16 C           4.9641   -3.3844   22.2639 C.ar    1  UNL1        0.0375
     17 C           6.7223   -4.1478   31.1859 C.3     1  UNL1        0.2100
     18 C           6.4149   -3.5290   29.8544 C.3     1  UNL1        0.1468
     19 N           6.8239   -4.4999   28.7866 N.am    1  UNL1       -0.2212
     20 C           7.3840   -5.7186   29.4581 C.2     1  UNL1        0.4088
     21 O           7.9139   -6.9405   28.7680 O.2     1  UNL1       -0.2258
     22 O           7.3212   -5.5011   30.9409 O.3     1  UNL1       -0.4345
     23 C           6.4743   -3.5230   32.5268 C.3     1  UNL1        0.1352
     24 C           3.9729   -0.5430   33.3096 C.3     1  UNL1        0.0946
     25 C           4.5458   -1.9265   33.2212 C.2     1  UNL1        0.2231
     26 O           3.7632   -3.0969   33.7388 O.2     1  UNL1       -0.2751
     27 N           5.9013   -2.1396   32.6152 N.am    1  UNL1       -0.3011
     28 H           6.4150   -1.3714   32.2755 H       1  UNL1        0.1495
@<TRIPOS>BOND
     1    24    25    1
     2    25    26    2
     3    25    27   am
     4    27    23    1
     5    17    23    1
     6    17    18    1
     7    18    19    1
     8    19     1    1
     9     1     2   ar
    10     2     3   ar
    11     3     4   ar
    12     4     8    1
    13     8     9   ar
    14     9    10   ar
    15    10    11   ar
    16    11    12   ar
    17    12    13   ar
    18    13    14   ar
    19    14    15   ar
    20    15    16   ar
    21     4     5   ar
    22     5     6    1
    23     5     7   ar
    24    19    20   am
    25    20    21    2
    26    20    22    1
    27    22    17    1
    28     7     1   ar
    29    16     8   ar
    30    15    11   ar
    31    27    28    1
@<TRIPOS>MOLECULE
*****
 28 31 0 0 0
SMALL
GASTEIGER

@<TRIPOS>ATOM
      1 C          -6.6153  -18.9475   20.5561 C.ar    1  UNL1        0.0593
      2 C          -6.7991  -18.2956   21.8945 C.ar    1  UNL1        0.0152
      3 C          -8.1766  -18.1288   22.4646 C.ar    1  UNL1        0.0035
      4 C          -9.3700  -18.6138   21.6964 C.ar    1  UNL1        0.0277
      5 C          -9.1862  -19.2657   20.3580 C.ar    1  UNL1        0.1413
      6 F         -10.3797  -19.7508   19.5897 F       1  UNL1       -0.2041
      7 C          -7.8089  -19.4326   19.7879 C.ar    1  UNL1        0.0446
      8 C         -10.7475  -18.4470   22.2665 C.ar    1  UNL1        0.0067
      9 C         -11.8631  -17.9463   21.3979 C.ar    1  UNL1        0.0192
     10 C         -13.2405  -17.7795   21.9680 C.ar    1  UNL1        0.0815
     11 N         -13.5022  -18.1135   23.4068 N.ar    1  UNL1       -0.2874
     12 C         -14.7469  -18.0505   24.2414 C.ar    1  UNL1        0.1022
     13 C         -14.4005  -18.5124   25.6258 C.ar    1  UNL1        0.1195
     14 N         -12.9417  -18.8608   25.6468 N.ar    1  UNL1       -0.2248
     15 C         -12.3865  -18.6142   24.2754 C.ar    1  UNL1        0.1479
     16 C         -11.0091  -18.7810   23.7052 C.ar    1  UNL1        0.0375
     17 C          -3.0848  -18.6339   18.9743 C.3     1  UNL1        0.2100
     18 C          -4.3740  -18.0197   19.4335 C.3     1  UNL1        0.1468
     19 N          -5.2380  -19.1143   19.9860 N.am    1  UNL1       -0.2212
     20 C          -4.4828  -20.4050   19.8682 C.2     1  UNL1        0.4088
     21 O          -4.9725  -21.7555   20.2999 O.2     1  UNL1       -0.2258
     22 O          -3.1521  -20.1081   19.2430 O.3     1  UNL1       -0.4345
     23 C          -1.9309  -17.9024   18.3551 C.3     1  UNL1        0.1352
     24 C           1.2973  -17.5670   20.6390 C.3     1  UNL1        0.0946
     25 C          -0.0910  -17.3639   20.1087 C.2     1  UNL1        0.2231
     26 O          -1.0279  -16.4193   20.8016 O.2     1  UNL1       -0.2751
     27 N          -0.5426  -18.1055   18.8855 N.am    1  UNL1       -0.3011
     28 H           0.0723  -18.7255   18.4307 H       1  UNL1        0.1495
@<TRIPOS>BOND
     1    24    25    1
     2    25    26    2
     3    25    27   am
     4    27    23    1
     5    17    23    1
     6    17    18    1
     7    18    19    1
     8    19     1    1
     9     1     2   ar
    10     2     3   ar
    11     3     4   ar
    12     4     8    1
    13     8     9   ar
    14     9    10   ar
    15    10    11   ar
    16    11    12   ar
    17    12    13   ar
    18    13    14   ar
    19    14    15   ar
    20    15    16   ar
    21     4     5   ar
    22     5     6    1
    23     5     7   ar
    24    19    20   am
    25    20    21    2
    26    20    22    1
    27    22    17    1
    28     7     1   ar
    29    16     8   ar
    30    15    11   ar
    31    27    28    1
@<TRIPOS>MOLECULE
*****
 28 31 0 0 0
SMALL
GASTEIGER

@<TRIPOS>ATOM
      1 C           2.6405   -0.0325   19.0340 C.ar    1  UNL1        0.0593
      2 C           1.3886   -0.3493   19.7970 C.ar    1  UNL1        0.0152
      3 C           0.3304    0.6998   19.9707 C.ar    1  UNL1        0.0035
      4 C           0.5243    2.0654   19.3814 C.ar    1  UNL1        0.0277
      5 C           1.7763    2.3822   18.6184 C.ar    1  UNL1        0.1413
      6 F           1.9702    3.7479   18.0290 F       1  UNL1       -0.2041
      7 C           2.8344    1.3333   18.4447 C.ar    1  UNL1        0.0446
      8 C          -0.5338    3.1144   19.5551 C.ar    1  UNL1        0.0067
      9 C          -0.9369    3.5523   20.9318 C.ar    1  UNL1        0.0192
     10 C          -1.9950    4.6013   21.1055 C.ar    1  UNL1        0.0815
     11 N          -2.6500    5.2123   19.9023 N.ar    1  UNL1       -0.2874
     12 C          -3.7151    6.2591   19.7625 C.ar    1  UNL1        0.1022
     13 C          -3.9703    6.4681   18.2992 C.ar    1  UNL1        0.1195
     14 N          -3.0629    5.5504   17.5347 N.ar    1  UNL1       -0.2248
     15 C          -2.2468    4.7743   18.5255 C.ar    1  UNL1        0.1479
     16 C          -1.1888    3.7253   18.3519 C.ar    1  UNL1        0.0375
     17 C           5.3501   -2.7951   19.3359 C.3     1  UNL1        0.2100
     18 C           4.3581   -1.8591   19.9604 C.3     1  UNL1        0.1468
     19 N           3.6986   -1.0814   18.8602 N.am    1  UNL1       -0.2212
     20 C           4.2830   -1.5367   17.5559 C.2     1  UNL1        0.4088
     21 O           3.9119   -1.0231   16.1964 O.2     1  UNL1       -0.2258
     22 O           5.3037   -2.5959   17.8499 O.3     1  UNL1       -0.4345
     23 C           6.2334   -3.7608   20.0688 C.3     1  UNL1        0.1352
     24 C           6.0932   -3.5423   24.0289 C.3     1  UNL1        0.0946
     25 C           5.6944   -3.8192   22.6097 C.2     1  UNL1        0.2231
     26 O           4.3577   -4.4315   22.3121 O.2     1  UNL1       -0.2751
     27 N           6.6322   -3.4839   21.4880 N.am    1  UNL1       -0.3011
     28 H           7.5095   -3.0820   21.6834 H       1  UNL1        0.1495
@<TRIPOS>BOND
     1    24    25    1
     2    25    26    2
     3    25    27   am
     4    27    23    1
     5    17    23    1
     6    17    18    1
     7    18    19    1
     8    19     1    1
     9     1     2   ar
    10     2     3   ar
    11     3     4   ar
    12     4     8    1
    13     8     9   ar
    14     9    10   ar
    15    10    11   ar
    16    11    12   ar
    17    12    13   ar
    18    13    14   ar
    19    14    15   ar
    20    15    16   ar
    21     4     5   ar
    22     5     6    1
    23     5     7   ar
    24    19    20   am
    25    20    21    2
    26    20    22    1
    27    22    17    1
    28     7     1   ar
    29    16     8   ar
    30    15    11   ar
    31    27    28    1
@<TRIPOS>MOLECULE
*****
 28 31 0 0 0
SMALL
GASTEIGER

@<TRIPOS>ATOM
      1 C           7.2335   -4.7588   24.7541 C.ar    1  UNL1        0.0593
      2 C           6.0643   -3.8213   24.8175 C.ar    1  UNL1        0.0152
      3 C           5.5136   -3.2230   23.5570 C.ar    1  UNL1        0.0035
      4 C           6.1321   -3.5622   22.2333 C.ar    1  UNL1        0.0277
      5 C           7.3013   -4.4997   22.1699 C.ar    1  UNL1        0.1413
      6 F           7.9198   -4.8389   20.8461 F       1  UNL1       -0.2041
      7 C           7.8520   -5.0980   23.4303 C.ar    1  UNL1        0.0446
      8 C           5.5814   -2.9639   20.9728 C.ar    1  UNL1        0.0067
      9 C           4.2961   -3.4797   20.3969 C.ar    1  UNL1        0.0192
     10 C           3.7453   -2.8814   19.1364 C.ar    1  UNL1        0.0815
     11 N           4.4801   -1.7672   18.4518 N.ar    1  UNL1       -0.2874
     12 C           4.1840   -0.9863   17.2059 C.ar    1  UNL1        0.1022
     13 C           5.2864    0.0122   17.0117 C.ar    1  UNL1        0.1195
     14 N           6.2638   -0.1516   18.1377 N.ar    1  UNL1       -0.2248
     15 C           5.7655   -1.2513   19.0277 C.ar    1  UNL1        0.1479
     16 C           6.3161   -1.8497   20.2882 C.ar    1  UNL1        0.0375
     17 C           8.7142   -5.5912   28.2442 C.3     1  UNL1        0.2100
     18 C           8.2413   -4.5977   27.2246 C.3     1  UNL1        0.1468
     19 N           7.7842   -5.3572   26.0146 N.am    1  UNL1       -0.2212
     20 C           7.9745   -6.8201   26.2863 C.2     1  UNL1        0.4088
     21 O           7.6476   -7.9414   25.3452 O.2     1  UNL1       -0.2258
     22 O           8.5493   -6.9647   27.6642 O.3     1  UNL1       -0.4345
     23 C           9.2566   -5.2679   29.6048 C.3     1  UNL1        0.1352
     24 C           6.6497   -3.6849   32.1440 C.3     1  UNL1        0.0946
     25 C           7.3533   -4.6838   31.2740 C.2     1  UNL1        0.2231
     26 O           6.8572   -6.0977   31.2030 O.2     1  UNL1       -0.2751
     27 N           8.5530   -4.2690   30.4748 N.am    1  UNL1       -0.3011
     28 H           8.8786   -3.3410   30.5213 H       1  UNL1        0.1495
@<TRIPOS>BOND
     1    24    25    1
     2    25    26    2
     3    25    27   am
     4    27    23    1
     5    17    23    1
     6    17    18    1
     7    18    19    1
     8    19     1    1
     9     1     2   ar
    10     2     3   ar
    11     3     4   ar
    12     4     8    1
    13     8     9   ar
    14     9    10   ar
    15    10    11   ar
    16    11    12   ar
    17    12    13   ar
    18    13    14   ar
    19    14    15   ar
    20    15    16   ar
    21     4     5   ar
    22     5     6    1
    23     5     7   ar
    24    19    20   am
    25    20    21    2
    26    20    22    1
    27    22    17    1
    28     7     1   ar
    29    16     8   ar
    30    15    11   ar
    31    27    28    1
@<TRIPOS>MOLECULE
*****
 28 31 0 0 0
SMALL
GASTEIGER

@<TRIPOS>ATOM
      1 C           6.3887   -3.3409   20.9347 C.ar    1  UNL1        0.0593
      2 C           5.5529   -3.2459   22.1766 C.ar    1  UNL1        0.0152
      3 C           6.0289   -3.8780   23.4510 C.ar    1  UNL1        0.0035
      4 C           7.3404   -4.6049   23.4834 C.ar    1  UNL1        0.0277
      5 C           8.1763   -4.6999   22.2415 C.ar    1  UNL1        0.1413
      6 F           9.4880   -5.4268   22.2739 F       1  UNL1       -0.2041
      7 C           7.7004   -4.0678   20.9671 C.ar    1  UNL1        0.0446
      8 C           7.8164   -5.2370   24.7578 C.ar    1  UNL1        0.0067
      9 C           8.4067   -4.3856   25.8425 C.ar    1  UNL1        0.0192
     10 C           8.8826   -5.0177   27.1169 C.ar    1  UNL1        0.0815
     11 N           8.7682   -6.5013   27.3065 N.ar    1  UNL1       -0.2874
     12 C           9.1491   -7.3998   28.4456 C.ar    1  UNL1        0.1022
     13 C           8.7941   -8.8066   28.0648 C.ar    1  UNL1        0.1195
     14 N           8.1938   -8.7775   26.6905 N.ar    1  UNL1       -0.2248
     15 C           8.1778   -7.3527   26.2218 C.ar    1  UNL1        0.1479
     16 C           7.7019   -6.7206   24.9475 C.ar    1  UNL1        0.0375
     17 C           5.4726   -1.0801   17.9155 C.3     1  UNL1        0.2100
     18 C           6.1056   -1.2758   19.2613 C.3     1  UNL1        0.1468
     19 N           5.9129   -2.7088   19.6603 N.am    1  UNL1       -0.2212
     20 C           5.1607   -3.3989   18.5611 C.2     1  UNL1        0.4088
     21 O           4.7524   -4.8421   18.5434 O.2     1  UNL1       -0.2258
     22 O           4.8886   -2.3923   17.4828 O.3     1  UNL1       -0.4345
     23 C           5.4309    0.2025   17.1389 C.3     1  UNL1        0.1352
     24 C           3.2842    2.9977   18.9632 C.3     1  UNL1        0.0946
     25 C           3.6514    1.7162   18.2756 C.2     1  UNL1        0.2231
     26 O           2.6064    0.6668   18.0372 O.2     1  UNL1       -0.2751
     27 N           5.0636    1.4840   17.8265 N.am    1  UNL1       -0.3011
     28 H           5.7495    2.1727   17.9830 H       1  UNL1        0.1495
@<TRIPOS>BOND
     1    24    25    1
     2    25    26    2
     3    25    27   am
     4    27    23    1
     5    17    23    1
     6    17    18    1
     7    18    19    1
     8    19     1    1
     9     1     2   ar
    10     2     3   ar
    11     3     4   ar
    12     4     8    1
    13     8     9   ar
    14     9    10   ar
    15    10    11   ar
    16    11    12   ar
    17    12    13   ar
    18    13    14   ar
    19    14    15   ar
    20    15    16   ar
    21     4     5   ar
    22     5     6    1
    23     5     7   ar
    24    19    20   am
    25    20    21    2
    26    20    22    1
    27    22    17    1
    28     7     1   ar
    29    16     8   ar
    30    15    11   ar
    31    27    28    1
