@<TRIPOS>MOLECULE
*****
 38 42 0 0 0
SMALL
GASTEIGER

@<TRIPOS>ATOM
      1 O          -0.5345    3.2831   18.5971 O.2     1  UNL1       -0.2733
      2 C          -1.2768    2.9169   19.8482 C.2     1  UNL1        0.2425
      3 N          -0.7468    1.8387   20.7463 N.am    1  UNL1       -0.3018
      4 H          -1.2339    1.5983   21.5674 H       1  UNL1        0.1495
      5 C           0.5255    1.1266   20.3933 C.3     1  UNL1        0.1035
      6 C           0.8889   -0.2867   20.0467 C.3     1  UNL1        0.0933
      7 N           2.3247    0.1198   19.8942 N.3     1  UNL1       -0.2711
      8 C           1.9612    1.5332   20.2408 C.3     1  UNL1        0.0933
      9 C           3.5969   -0.5921   19.5412 C.3     1  UNL1        0.0578
     10 C           4.0015   -0.7367   18.1041 C.3     1  UNL1        0.0187
     11 C           5.2738   -1.4487   17.7511 C.3     1  UNL1        0.0331
     12 C           6.1413   -2.0160   18.8353 C.3     1  UNL1        0.1140
     13 O           6.9441   -2.4045   17.6292 O.3     1  UNL1       -0.3821
     14 C           5.7366   -1.8714   20.2725 C.3     1  UNL1        0.0331
     15 C           4.4644   -1.1595   20.6254 C.3     1  UNL1        0.0187
     16 H           6.4937   -2.0952   16.8277 H       1  UNL1        0.2107
     17 C           7.2877   -2.7183   19.5006 C.ar    1  UNL1        0.0518
     18 C           7.1789   -3.8156   20.5176 C.ar    1  UNL1        0.1039
     19 N           8.5681   -4.2220   20.9113 N.ar    1  UNL1       -0.2350
     20 C           9.5354   -3.3759   20.1375 C.ar    1  UNL1        0.1343
     21 S           8.7441   -2.4467   19.2657 S.2     1  UNL1       -0.0665
     22 C          -2.5489    3.6289   20.2011 C.3     1  UNL1        0.1736
     23 N          -3.7014    2.8629   20.7801 N.pl3   1  UNL1       -0.3252
     24 H          -3.6376    1.8867   20.8909 H       1  UNL1        0.1473
     25 C          -4.9510    3.5843   21.1902 C.ar    1  UNL1        0.0479
     26 C          -5.9569    3.9903   20.1543 C.ar    1  UNL1        0.0350
     27 C          -7.2064    4.7117   20.5644 C.ar    1  UNL1        0.1001
     28 N          -7.4501    5.0269   22.0105 N.ar    1  UNL1       -0.2438
     29 C          -6.4442    4.6208   23.0465 C.ar    1  UNL1        0.0825
     30 C          -6.6878    4.9361   24.4926 C.ar    1  UNL1        0.0191
     31 C          -5.6820    4.5300   25.5285 C.ar    1  UNL1        0.0054
     32 C          -4.4323    3.8087   25.1184 C.ar    1  UNL1        0.0716
     33 C          -4.1887    3.4934   23.6723 C.ar    1  UNL1        0.0066
     34 C          -5.1946    3.8995   22.6363 C.ar    1  UNL1        0.0308
     35 C          -3.4264    3.4026   26.1544 C.3     1  UNL1        0.4186
     36 F          -2.4205    2.9965   27.1903 F       1  UNL1       -0.1659
     37 F          -4.3286    3.9224   27.2341 F       1  UNL1       -0.1659
     38 F          -2.5243    2.8827   25.0746 F       1  UNL1       -0.1659
@<TRIPOS>BOND
     1     1     2    2
     2     2    22    1
     3    22    23    1
     4    23    25    1
     5    25    26   ar
     6    26    27   ar
     7    27    28   ar
     8    28    29   ar
     9    29    30   ar
    10    30    31   ar
    11    31    32   ar
    12    32    35    1
    13    35    36    1
    14    35    37    1
    15    35    38    1
    16    32    33   ar
    17    33    34   ar
    18     2     3   am
    19     3     5    1
    20     5     6    1
    21     6     7    1
    22     9     7    1
    23     9    10    1
    24    10    11    1
    25    11    12    1
    26    12    13    1
    27    12    17    1
    28    17    18   ar
    29    18    19   ar
    30    19    20   ar
    31    20    21   ar
    32    12    14    1
    33    14    15    1
    34     7     8    1
    35    34    25   ar
    36     8     5    1
    37    34    29   ar
    38    15     9    1
    39    21    17   ar
    40    23    24    1
    41     3     4    1
    42    13    16    1
@<TRIPOS>MOLECULE
*****
 38 42 0 0 0
SMALL
GASTEIGER

@<TRIPOS>ATOM
      1 O           0.5954   -0.1320   20.1089 O.2     1  UNL1       -0.2733
      2 C           1.1779    0.9022   19.1916 C.2     1  UNL1        0.2425
      3 N           0.6393    2.3021   19.2015 N.am    1  UNL1       -0.3018
      4 H           1.0216    2.9809   18.5995 H       1  UNL1        0.1495
      5 C          -0.4818    2.6679   20.1286 C.3     1  UNL1        0.1035
      6 C          -1.8643    3.2228   19.9540 C.3     1  UNL1        0.0933
      7 N          -2.0671    3.1851   21.4398 N.3     1  UNL1       -0.2711
      8 C          -0.6845    2.6301   21.6144 C.3     1  UNL1        0.0933
      9 C          -3.1882    3.5508   22.3669 C.3     1  UNL1        0.0578
     10 C          -4.5993    3.1784   22.0208 C.3     1  UNL1        0.0187
     11 C          -5.7204    3.5441   22.9479 C.3     1  UNL1        0.0331
     12 C          -5.4303    4.2822   24.2211 C.3     1  UNL1        0.1140
     13 O          -6.9204    4.1502   24.3304 O.3     1  UNL1       -0.3821
     14 C          -4.0190    4.6546   24.5672 C.3     1  UNL1        0.0331
     15 C          -2.8980    4.2889   23.6401 C.3     1  UNL1        0.0187
     16 H          -7.2611    3.6790   23.5540 H       1  UNL1        0.2107
     17 C          -5.6576    4.9745   25.5322 C.ar    1  UNL1        0.0518
     18 C          -4.8118    4.8320   26.7628 C.ar    1  UNL1        0.1039
     19 N          -5.4021    5.7002   27.8341 N.ar    1  UNL1       -0.2350
     20 C          -6.6128    6.3794   27.2655 C.ar    1  UNL1        0.1343
     21 S          -6.7706    5.9308   25.8430 S.2     1  UNL1       -0.0665
     22 C           2.2990    0.5364   18.2646 C.3     1  UNL1        0.1736
     23 N           3.6992    0.4210   18.7899 N.pl3   1  UNL1       -0.3252
     24 H           4.2283    1.2328   18.9637 H       1  UNL1        0.1473
     25 C           4.2934   -0.9315   19.0504 C.ar    1  UNL1        0.0479
     26 C           4.9177   -1.7054   17.9273 C.ar    1  UNL1        0.0350
     27 C           5.5119   -3.0578   18.1879 C.ar    1  UNL1        0.1001
     28 N           5.4816   -3.6364   19.5715 N.ar    1  UNL1       -0.2438
     29 C           4.8573   -2.8625   20.6945 C.ar    1  UNL1        0.0825
     30 C           4.8271   -3.4411   22.0781 C.ar    1  UNL1        0.0191
     31 C           4.2027   -2.6673   23.2012 C.ar    1  UNL1        0.0054
     32 C           3.6085   -1.3148   22.9407 C.ar    1  UNL1        0.0716
     33 C           3.6388   -0.7362   21.5571 C.ar    1  UNL1        0.0066
     34 C           4.2632   -1.5101   20.4340 C.ar    1  UNL1        0.0308
     35 C           2.9842   -0.5409   24.0637 C.3     1  UNL1        0.4186
     36 F           2.3598    0.2330   25.1868 F       1  UNL1       -0.1659
     37 F           3.6062   -1.4786   25.0556 F       1  UNL1       -0.1659
     38 F           2.3622    0.3967   23.0719 F       1  UNL1       -0.1659
@<TRIPOS>BOND
     1     1     2    2
     2     2    22    1
     3    22    23    1
     4    23    25    1
     5    25    26   ar
     6    26    27   ar
     7    27    28   ar
     8    28    29   ar
     9    29    30   ar
    10    30    31   ar
    11    31    32   ar
    12    32    35    1
    13    35    36    1
    14    35    37    1
    15    35    38    1
    16    32    33   ar
    17    33    34   ar
    18     2     3   am
    19     3     5    1
    20     5     6    1
    21     6     7    1
    22     9     7    1
    23     9    10    1
    24    10    11    1
    25    11    12    1
    26    12    13    1
    27    12    17    1
    28    17    18   ar
    29    18    19   ar
    30    19    20   ar
    31    20    21   ar
    32    12    14    1
    33    14    15    1
    34     7     8    1
    35    34    25   ar
    36     8     5    1
    37    34    29   ar
    38    15     9    1
    39    21    17   ar
    40    23    24    1
    41     3     4    1
    42    13    16    1
@<TRIPOS>MOLECULE
*****
 38 42 0 0 0
SMALL
GASTEIGER

@<TRIPOS>ATOM
      1 O           3.6999    1.4906   27.0209 O.2     1  UNL1       -0.2733
      2 C           3.0978    0.1991   26.5521 C.2     1  UNL1        0.2425
      3 N           2.7904   -0.8872   27.5398 N.am    1  UNL1       -0.3018
      4 H           2.3952   -1.7348   27.2322 H       1  UNL1        0.1495
      5 C           3.0850   -0.6820   28.9963 C.3     1  UNL1        0.1035
      6 C           4.3327   -0.5349   29.8155 C.3     1  UNL1        0.0933
      7 N           3.5015   -0.3917   31.0559 N.3     1  UNL1       -0.2711
      8 C           2.2537   -0.5388   30.2366 C.3     1  UNL1        0.0933
      9 C           3.7961   -0.1865   32.5123 C.3     1  UNL1        0.0578
     10 C           4.3296   -1.3204   33.3366 C.3     1  UNL1        0.0187
     11 C           4.6242   -1.1152   34.7930 C.3     1  UNL1        0.0331
     12 C           4.3852    0.2239   35.4251 C.3     1  UNL1        0.1140
     13 O           4.8975   -0.5367   36.6121 O.3     1  UNL1       -0.3821
     14 C           3.8516    1.3579   34.6008 C.3     1  UNL1        0.0331
     15 C           3.5571    1.1527   33.1444 C.3     1  UNL1        0.0187
     16 H           5.1009   -1.4479   36.3490 H       1  UNL1        0.2107
     17 C           4.3241    1.2989   36.4694 C.ar    1  UNL1        0.0518
     18 C           5.1106    2.5763   36.4670 C.ar    1  UNL1        0.1039
     19 N           4.7384    3.3521   37.6956 N.ar    1  UNL1       -0.2350
     20 C           3.7219    2.5542   38.4574 C.ar    1  UNL1        0.1343
     21 S           3.4659    1.2854   37.6996 S.2     1  UNL1       -0.0665
     22 C           2.8032   -0.0061   25.0957 C.3     1  UNL1        0.1736
     23 N           3.9235   -0.0179   24.0983 N.pl3   1  UNL1       -0.3252
     24 H           4.3468    0.8274   23.8235 H       1  UNL1        0.1473
     25 C           4.3988   -1.3177   23.5196 C.ar    1  UNL1        0.0479
     26 C           5.2856   -2.2185   24.3271 C.ar    1  UNL1        0.0350
     27 C           5.7608   -3.5182   23.7484 C.ar    1  UNL1        0.1001
     28 N           5.3493   -3.9170   22.3622 N.ar    1  UNL1       -0.2438
     29 C           4.4625   -3.0161   21.5547 C.ar    1  UNL1        0.0825
     30 C           4.0510   -3.4150   20.1685 C.ar    1  UNL1        0.0191
     31 C           3.1642   -2.5141   19.3610 C.ar    1  UNL1        0.0054
     32 C           2.6889   -1.2144   19.9397 C.ar    1  UNL1        0.0716
     33 C           3.1005   -0.8155   21.3259 C.ar    1  UNL1        0.0066
     34 C           3.9873   -1.7165   22.1334 C.ar    1  UNL1        0.0308
     35 C           1.8022   -0.3135   19.1322 C.3     1  UNL1        0.4186
     36 F           0.9153    0.5874   18.3247 F       1  UNL1       -0.1659
     37 F           2.9194   -0.0877   18.1572 F       1  UNL1       -0.1659
     38 F           0.6849   -0.5394   20.1072 F       1  UNL1       -0.1659
@<TRIPOS>BOND
     1     1     2    2
     2     2    22    1
     3    22    23    1
     4    23    25    1
     5    25    26   ar
     6    26    27   ar
     7    27    28   ar
     8    28    29   ar
     9    29    30   ar
    10    30    31   ar
    11    31    32   ar
    12    32    35    1
    13    35    36    1
    14    35    37    1
    15    35    38    1
    16    32    33   ar
    17    33    34   ar
    18     2     3   am
    19     3     5    1
    20     5     6    1
    21     6     7    1
    22     9     7    1
    23     9    10    1
    24    10    11    1
    25    11    12    1
    26    12    13    1
    27    12    17    1
    28    17    18   ar
    29    18    19   ar
    30    19    20   ar
    31    20    21   ar
    32    12    14    1
    33    14    15    1
    34     7     8    1
    35    34    25   ar
    36     8     5    1
    37    34    29   ar
    38    15     9    1
    39    21    17   ar
    40    23    24    1
    41     3     4    1
    42    13    16    1
@<TRIPOS>MOLECULE
*****
 38 42 0 0 0
SMALL
GASTEIGER

@<TRIPOS>ATOM
      1 O           6.6400   -0.5802   24.9239 O.2     1  UNL1       -0.2733
      2 C           5.8380   -1.5908   24.1586 C.2     1  UNL1        0.2425
      3 N           4.4486   -1.9387   24.6040 N.am    1  UNL1       -0.3018
      4 H           3.9222   -2.6020   24.1018 H       1  UNL1        0.1495
      5 C           3.8611   -1.2759   25.8147 C.3     1  UNL1        0.1035
      6 C           3.1800    0.0335   26.0815 C.3     1  UNL1        0.0933
      7 N           3.0303   -0.3388   27.5269 N.3     1  UNL1       -0.2711
      8 C           3.7114   -1.6483   27.2600 C.3     1  UNL1        0.0933
      9 C           2.4428    0.3239   28.7375 C.3     1  UNL1        0.0578
     10 C           0.9606    0.5338   28.8326 C.3     1  UNL1        0.0187
     11 C           0.3731    1.1965   30.0433 C.3     1  UNL1        0.0331
     12 C           1.2678    1.6493   31.1589 C.3     1  UNL1        0.1140
     13 O          -0.0643    2.0668   31.7075 O.3     1  UNL1       -0.3821
     14 C           2.7500    1.4393   31.0638 C.3     1  UNL1        0.0331
     15 C           3.3375    0.7766   29.8531 C.3     1  UNL1        0.0187
     16 H          -0.7622    1.8316   31.0762 H       1  UNL1        0.2107
     17 C           1.6999    2.2470   32.4650 C.ar    1  UNL1        0.0518
     18 C           2.6554    1.6308   33.4435 C.ar    1  UNL1        0.1039
     19 N           2.7983    2.5689   34.6052 N.ar    1  UNL1       -0.2350
     20 C           1.9311    3.7648   34.3447 C.ar    1  UNL1        0.1343
     21 S           1.2523    3.5659   33.0220 S.2     1  UNL1       -0.0665
     22 C           6.4255   -2.2535   22.9480 C.3     1  UNL1        0.1736
     23 N           5.5392   -2.6452   21.8030 N.pl3   1  UNL1       -0.3252
     24 H           4.7023   -3.1349   21.9735 H       1  UNL1        0.1473
     25 C           5.9280   -2.2908   20.3983 C.ar    1  UNL1        0.0479
     26 C           7.2912   -2.6481   19.8845 C.ar    1  UNL1        0.0350
     27 C           7.6799   -2.2937   18.4798 C.ar    1  UNL1        0.1001
     28 N           6.7055   -1.5819   17.5889 N.ar    1  UNL1       -0.2438
     29 C           5.3423   -1.2246   18.1026 C.ar    1  UNL1        0.0825
     30 C           4.3678   -0.5128   17.2117 C.ar    1  UNL1        0.0191
     31 C           3.0046   -0.1554   17.7254 C.ar    1  UNL1        0.0054
     32 C           2.6158   -0.5099   19.1302 C.ar    1  UNL1        0.0716
     33 C           3.5903   -1.2217   20.0211 C.ar    1  UNL1        0.0066
     34 C           4.9535   -1.5790   19.5073 C.ar    1  UNL1        0.0308
     35 C           1.2527   -0.1525   19.6439 C.3     1  UNL1        0.4186
     36 F          -0.1106    0.2048   20.1577 F       1  UNL1       -0.1659
     37 F           0.9703    0.5951   18.3746 F       1  UNL1       -0.1659
     38 F           1.5350   -0.9002   20.9132 F       1  UNL1       -0.1659
@<TRIPOS>BOND
     1     1     2    2
     2     2    22    1
     3    22    23    1
     4    23    25    1
     5    25    26   ar
     6    26    27   ar
     7    27    28   ar
     8    28    29   ar
     9    29    30   ar
    10    30    31   ar
    11    31    32   ar
    12    32    35    1
    13    35    36    1
    14    35    37    1
    15    35    38    1
    16    32    33   ar
    17    33    34   ar
    18     2     3   am
    19     3     5    1
    20     5     6    1
    21     6     7    1
    22     9     7    1
    23     9    10    1
    24    10    11    1
    25    11    12    1
    26    12    13    1
    27    12    17    1
    28    17    18   ar
    29    18    19   ar
    30    19    20   ar
    31    20    21   ar
    32    12    14    1
    33    14    15    1
    34     7     8    1
    35    34    25   ar
    36     8     5    1
    37    34    29   ar
    38    15     9    1
    39    21    17   ar
    40    23    24    1
    41     3     4    1
    42    13    16    1
@<TRIPOS>MOLECULE
*****
 38 42 0 0 0
SMALL
GASTEIGER

@<TRIPOS>ATOM
      1 O           7.8499   -0.1446   21.2075 O.2     1  UNL1       -0.2733
      2 C           8.2825   -0.8530   19.9580 C.2     1  UNL1        0.2425
      3 N           8.5657   -2.3256   19.9907 N.am    1  UNL1       -0.3018
      4 H           8.8496   -2.7906   19.1707 H       1  UNL1        0.1495
      5 C           8.4164   -3.0899   21.2728 C.3     1  UNL1        0.1035
      6 C           9.3581   -3.7963   22.2023 C.3     1  UNL1        0.0933
      7 N           8.2052   -4.1706   23.0859 N.3     1  UNL1       -0.2711
      8 C           7.2635   -3.4641   22.1564 C.3     1  UNL1        0.0933
      9 C           8.0559   -4.9348   24.3679 C.3     1  UNL1        0.0578
     10 C           7.9182   -6.4282   24.3392 C.3     1  UNL1        0.0187
     11 C           7.7688   -7.1924   25.6213 C.3     1  UNL1        0.0331
     12 C           7.7572   -6.4633   26.9321 C.3     1  UNL1        0.1140
     13 O           7.5960   -7.8735   27.4170 O.3     1  UNL1       -0.3821
     14 C           7.8949   -4.9698   26.9608 C.3     1  UNL1        0.0331
     15 C           8.0442   -4.2056   25.6787 C.3     1  UNL1        0.0187
     16 H           7.5858   -8.4773   26.6579 H       1  UNL1        0.2107
     17 C           7.6895   -6.2239   28.4112 C.ar    1  UNL1        0.0518
     18 C           6.6198   -5.4588   29.1326 C.ar    1  UNL1        0.1039
     19 N           6.9489   -5.4696   30.5960 N.ar    1  UNL1       -0.2350
     20 C           8.2221   -6.2414   30.7791 C.ar    1  UNL1        0.1343
     21 S           8.6798   -6.7075   29.4289 S.2     1  UNL1       -0.0665
     22 C           8.4317   -0.0888   18.6760 C.3     1  UNL1        0.1736
     23 N           7.2456    0.1119   17.7800 N.pl3   1  UNL1       -0.3252
     24 H           7.3220   -0.0664   16.8148 H       1  UNL1        0.1473
     25 C           5.9430    0.5843   18.3546 C.ar    1  UNL1        0.0479
     26 C           5.6729    2.0533   18.4927 C.ar    1  UNL1        0.0350
     27 C           4.3703    2.5256   19.0673 C.ar    1  UNL1        0.1001
     28 N           3.3379    1.5289   19.5039 N.ar    1  UNL1       -0.2438
     29 C           3.6080    0.0599   19.3658 C.ar    1  UNL1        0.0825
     30 C           2.5755   -0.9368   19.8024 C.ar    1  UNL1        0.0191
     31 C           2.8456   -2.4058   19.6644 C.ar    1  UNL1        0.0054
     32 C           4.1482   -2.8781   19.0898 C.ar    1  UNL1        0.0716
     33 C           5.1807   -1.8815   18.6532 C.ar    1  UNL1        0.0066
     34 C           4.9105   -0.4124   18.7912 C.ar    1  UNL1        0.0308
     35 C           4.4183   -4.3471   18.9518 C.3     1  UNL1        0.4186
     36 F           4.6884   -5.8162   18.8138 F       1  UNL1       -0.1659
     37 F           5.8772   -4.1022   19.2000 F       1  UNL1       -0.1659
     38 F           2.9594   -4.5920   18.7036 F       1  UNL1       -0.1659
@<TRIPOS>BOND
     1     1     2    2
     2     2    22    1
     3    22    23    1
     4    23    25    1
     5    25    26   ar
     6    26    27   ar
     7    27    28   ar
     8    28    29   ar
     9    29    30   ar
    10    30    31   ar
    11    31    32   ar
    12    32    35    1
    13    35    36    1
    14    35    37    1
    15    35    38    1
    16    32    33   ar
    17    33    34   ar
    18     2     3   am
    19     3     5    1
    20     5     6    1
    21     6     7    1
    22     9     7    1
    23     9    10    1
    24    10    11    1
    25    11    12    1
    26    12    13    1
    27    12    17    1
    28    17    18   ar
    29    18    19   ar
    30    19    20   ar
    31    20    21   ar
    32    12    14    1
    33    14    15    1
    34     7     8    1
    35    34    25   ar
    36     8     5    1
    37    34    29   ar
    38    15     9    1
    39    21    17   ar
    40    23    24    1
    41     3     4    1
    42    13    16    1
@<TRIPOS>MOLECULE
*****
 38 42 0 0 0
SMALL
GASTEIGER

@<TRIPOS>ATOM
      1 O           3.2838    2.0669   25.7697 O.2     1  UNL1       -0.2733
      2 C           2.9067    0.7661   25.1250 C.2     1  UNL1        0.2425
      3 N           1.4627    0.4391   24.8844 N.am    1  UNL1       -0.3018
      4 H           1.2151   -0.4146   24.4613 H       1  UNL1        0.1495
      5 C           0.3958    1.4130   25.2886 C.3     1  UNL1        0.1035
      6 C          -0.4383    1.6230   26.5175 C.3     1  UNL1        0.0933
      7 N          -1.1130    2.7904   25.8602 N.3     1  UNL1       -0.2711
      8 C          -0.2789    2.5804   24.6313 C.3     1  UNL1        0.0933
      9 C          -2.1798    3.7643   26.2643 C.3     1  UNL1        0.0578
     10 C          -1.8348    4.9361   27.1347 C.3     1  UNL1        0.0187
     11 C          -2.9016    5.9101   27.5389 C.3     1  UNL1        0.0331
     12 C          -4.3135    5.7121   27.0726 C.3     1  UNL1        0.1140
     13 O          -4.4787    6.9665   27.8783 O.3     1  UNL1       -0.3821
     14 C          -4.6585    4.5402   26.2022 C.3     1  UNL1        0.0331
     15 C          -3.5917    3.5663   25.7980 C.3     1  UNL1        0.0187
     16 H          -3.6225    7.2246   28.2540 H       1  UNL1        0.2107
     17 C          -5.7827    5.9498   26.8862 C.ar    1  UNL1        0.0518
     18 C          -6.7647    6.2923   27.9671 C.ar    1  UNL1        0.1039
     19 N          -8.1168    6.4409   27.3350 N.ar    1  UNL1       -0.2350
     20 C          -7.9706    6.1901   25.8633 C.ar    1  UNL1        0.1343
     21 S          -6.5281    5.8866   25.5860 S.2     1  UNL1       -0.0665
     22 C           3.9736   -0.2078   24.7208 C.3     1  UNL1        0.1736
     23 N           3.6056   -1.6167   24.3609 N.pl3   1  UNL1       -0.3252
     24 H           2.7948   -2.0260   24.7406 H       1  UNL1        0.1473
     25 C           4.4732   -2.4020   23.4224 C.ar    1  UNL1        0.0479
     26 C           5.5662   -3.2748   23.9643 C.ar    1  UNL1        0.0350
     27 C           6.4337   -4.0600   23.0258 C.ar    1  UNL1        0.1001
     28 N           6.2083   -3.9724   21.5454 N.ar    1  UNL1       -0.2438
     29 C           5.1153   -3.0996   21.0035 C.ar    1  UNL1        0.0825
     30 C           4.8899   -3.0121   19.5231 C.ar    1  UNL1        0.0191
     31 C           3.7970   -2.1393   18.9812 C.ar    1  UNL1        0.0054
     32 C           2.9294   -1.3540   19.9197 C.ar    1  UNL1        0.0716
     33 C           3.1548   -1.4415   21.4001 C.ar    1  UNL1        0.0066
     34 C           4.2478   -2.3144   21.9420 C.ar    1  UNL1        0.0308
     35 C           1.8365   -0.4812   19.3778 C.3     1  UNL1        0.4186
     36 F           0.7435    0.3917   18.8359 F       1  UNL1       -0.1659
     37 F           0.9043   -0.9911   20.4366 F       1  UNL1       -0.1659
     38 F           2.7686    0.0287   18.3191 F       1  UNL1       -0.1659
@<TRIPOS>BOND
     1     1     2    2
     2     2    22    1
     3    22    23    1
     4    23    25    1
     5    25    26   ar
     6    26    27   ar
     7    27    28   ar
     8    28    29   ar
     9    29    30   ar
    10    30    31   ar
    11    31    32   ar
    12    32    35    1
    13    35    36    1
    14    35    37    1
    15    35    38    1
    16    32    33   ar
    17    33    34   ar
    18     2     3   am
    19     3     5    1
    20     5     6    1
    21     6     7    1
    22     9     7    1
    23     9    10    1
    24    10    11    1
    25    11    12    1
    26    12    13    1
    27    12    17    1
    28    17    18   ar
    29    18    19   ar
    30    19    20   ar
    31    20    21   ar
    32    12    14    1
    33    14    15    1
    34     7     8    1
    35    34    25   ar
    36     8     5    1
    37    34    29   ar
    38    15     9    1
    39    21    17   ar
    40    23    24    1
    41     3     4    1
    42    13    16    1
@<TRIPOS>MOLECULE
*****
 38 42 0 0 0
SMALL
GASTEIGER

@<TRIPOS>ATOM
      1 O           7.1472   -1.2151   26.7365 O.2     1  UNL1       -0.2733
      2 C           6.6551   -2.6049   26.4600 C.2     1  UNL1        0.2425
      3 N           6.1051   -3.4418   27.5767 N.am    1  UNL1       -0.3018
      4 H           5.7821   -4.3540   27.3952 H       1  UNL1        0.1495
      5 C           6.0472   -2.8890   28.9700 C.3     1  UNL1        0.1035
      6 C           5.4726   -1.6540   29.5979 C.3     1  UNL1        0.0933
      7 N           5.9653   -2.1072   30.9403 N.3     1  UNL1       -0.2711
      8 C           6.5400   -3.3423   30.3122 C.3     1  UNL1        0.0933
      9 C           5.9075   -1.5544   32.3335 C.3     1  UNL1        0.0578
     10 C           4.6813   -1.7617   33.1722 C.3     1  UNL1        0.0187
     11 C           4.6234   -1.2089   34.5655 C.3     1  UNL1        0.0331
     12 C           5.7916   -0.4488   35.1199 C.3     1  UNL1        0.1140
     13 O           4.8587   -0.3844   36.2927 O.3     1  UNL1       -0.3821
     14 C           7.0178   -0.2415   34.2811 C.3     1  UNL1        0.0331
     15 C           7.0757   -0.7943   32.8879 C.3     1  UNL1        0.0187
     16 H           4.0346   -0.8480   36.0761 H       1  UNL1        0.2107
     17 C           6.6359    0.3337   36.0816 C.ar    1  UNL1        0.0518
     18 C           7.6307   -0.2374   37.0482 C.ar    1  UNL1        0.1039
     19 N           8.2432    0.9006   37.8096 N.ar    1  UNL1       -0.2350
     20 C           7.6268    2.1751   37.3135 C.ar    1  UNL1        0.1343
     21 S           6.6335    1.8247   36.2457 S.2     1  UNL1       -0.0665
     22 C           6.7130   -3.1577   25.0668 C.3     1  UNL1        0.1736
     23 N           5.4442   -3.4781   24.3337 N.pl3   1  UNL1       -0.3252
     24 H           5.2031   -4.4154   24.1535 H       1  UNL1        0.1473
     25 C           4.5429   -2.3702   23.8750 C.ar    1  UNL1        0.0479
     26 C           4.1242   -1.2974   24.8361 C.ar    1  UNL1        0.0350
     27 C           3.2229   -0.1897   24.3774 C.ar    1  UNL1        0.1001
     28 N           2.7403   -0.1547   22.9576 N.ar    1  UNL1       -0.2438
     29 C           3.1589   -1.2275   21.9965 C.ar    1  UNL1        0.0825
     30 C           2.6763   -1.1925   20.5767 C.ar    1  UNL1        0.0191
     31 C           3.0950   -2.2653   19.6156 C.ar    1  UNL1        0.0054
     32 C           3.9963   -3.3732   20.0743 C.ar    1  UNL1        0.0716
     33 C           4.4790   -3.4081   21.4941 C.ar    1  UNL1        0.0066
     34 C           4.0602   -2.3353   22.4552 C.ar    1  UNL1        0.0308
     35 C           4.4150   -4.4460   19.1132 C.3     1  UNL1        0.4186
     36 F           4.8336   -5.5188   18.1520 F       1  UNL1       -0.1659
     37 F           5.6623   -3.6754   18.7964 F       1  UNL1       -0.1659
     38 F           3.1676   -5.2165   19.4299 F       1  UNL1       -0.1659
@<TRIPOS>BOND
     1     1     2    2
     2     2    22    1
     3    22    23    1
     4    23    25    1
     5    25    26   ar
     6    26    27   ar
     7    27    28   ar
     8    28    29   ar
     9    29    30   ar
    10    30    31   ar
    11    31    32   ar
    12    32    35    1
    13    35    36    1
    14    35    37    1
    15    35    38    1
    16    32    33   ar
    17    33    34   ar
    18     2     3   am
    19     3     5    1
    20     5     6    1
    21     6     7    1
    22     9     7    1
    23     9    10    1
    24    10    11    1
    25    11    12    1
    26    12    13    1
    27    12    17    1
    28    17    18   ar
    29    18    19   ar
    30    19    20   ar
    31    20    21   ar
    32    12    14    1
    33    14    15    1
    34     7     8    1
    35    34    25   ar
    36     8     5    1
    37    34    29   ar
    38    15     9    1
    39    21    17   ar
    40    23    24    1
    41     3     4    1
    42    13    16    1
@<TRIPOS>MOLECULE
*****
 38 42 0 0 0
SMALL
GASTEIGER

@<TRIPOS>ATOM
      1 O           7.3286   -0.9709   26.5680 O.2     1  UNL1       -0.2733
      2 C           6.4384   -2.1431   26.2786 C.2     1  UNL1        0.2425
      3 N           5.5021   -2.6524   27.3340 N.am    1  UNL1       -0.3018
      4 H           4.9179   -3.4217   27.1441 H       1  UNL1        0.1495
      5 C           5.4559   -1.9894   28.6788 C.3     1  UNL1        0.1035
      6 C           6.0277   -2.2940   30.0316 C.3     1  UNL1        0.0933
      7 N           5.3906   -1.0519   30.5806 N.3     1  UNL1       -0.2711
      8 C           4.8188   -0.7474   29.2277 C.3     1  UNL1        0.0933
      9 C           5.3444   -0.3890   31.9254 C.3     1  UNL1        0.0578
     10 C           6.5791    0.2489   32.4898 C.3     1  UNL1        0.0187
     11 C           6.5330    0.9118   33.8347 C.3     1  UNL1        0.0331
     12 C           5.2521    0.9369   34.6149 C.3     1  UNL1        0.1140
     13 O           6.1503    1.6722   35.5650 O.3     1  UNL1       -0.3821
     14 C           4.0174    0.2991   34.0503 C.3     1  UNL1        0.0331
     15 C           4.0636   -0.3639   32.7056 C.3     1  UNL1        0.0187
     16 H           7.0403    1.7361   35.1846 H       1  UNL1        0.2107
     17 C           4.2832    1.2174   35.7250 C.ar    1  UNL1        0.0518
     18 C           3.0437    2.0560   35.6227 C.ar    1  UNL1        0.1039
     19 N           2.3781    2.0654   36.9669 N.ar    1  UNL1       -0.2350
     20 C           3.2062    1.2324   37.9000 C.ar    1  UNL1        0.1343
     21 S           4.3835    0.7084   37.1325 S.2     1  UNL1       -0.0665
     22 C           6.4846   -2.8059   24.9338 C.3     1  UNL1        0.1736
     23 N           5.2102   -3.1988   24.2471 N.pl3   1  UNL1       -0.3252
     24 H           4.9563   -4.1481   24.1862 H       1  UNL1        0.1473
     25 C           4.3226   -2.1454   23.6533 C.ar    1  UNL1        0.0479
     26 C           3.8519   -0.9982   24.4973 C.ar    1  UNL1        0.0350
     27 C           2.9644    0.0551   23.9035 C.ar    1  UNL1        0.1001
     28 N           2.5476   -0.0387   22.4656 N.ar    1  UNL1       -0.2438
     29 C           3.0182   -1.1859   21.6216 C.ar    1  UNL1        0.0825
     30 C           2.6014   -1.2797   20.1837 C.ar    1  UNL1        0.0191
     31 C           3.0721   -2.4268   19.3397 C.ar    1  UNL1        0.0054
     32 C           3.9596   -3.4803   19.9335 C.ar    1  UNL1        0.0716
     33 C           4.3765   -3.3865   21.3714 C.ar    1  UNL1        0.0066
     34 C           3.9058   -2.2392   22.2154 C.ar    1  UNL1        0.0308
     35 C           4.4303   -4.6274   19.0895 C.3     1  UNL1        0.4186
     36 F           4.9010   -5.7747   18.2455 F       1  UNL1       -0.1659
     37 F           5.3210   -3.6967   18.3212 F       1  UNL1       -0.1659
     38 F           3.5396   -5.5582   19.8578 F       1  UNL1       -0.1659
@<TRIPOS>BOND
     1     1     2    2
     2     2    22    1
     3    22    23    1
     4    23    25    1
     5    25    26   ar
     6    26    27   ar
     7    27    28   ar
     8    28    29   ar
     9    29    30   ar
    10    30    31   ar
    11    31    32   ar
    12    32    35    1
    13    35    36    1
    14    35    37    1
    15    35    38    1
    16    32    33   ar
    17    33    34   ar
    18     2     3   am
    19     3     5    1
    20     5     6    1
    21     6     7    1
    22     9     7    1
    23     9    10    1
    24    10    11    1
    25    11    12    1
    26    12    13    1
    27    12    17    1
    28    17    18   ar
    29    18    19   ar
    30    19    20   ar
    31    20    21   ar
    32    12    14    1
    33    14    15    1
    34     7     8    1
    35    34    25   ar
    36     8     5    1
    37    34    29   ar
    38    15     9    1
    39    21    17   ar
    40    23    24    1
    41     3     4    1
    42    13    16    1
@<TRIPOS>MOLECULE
*****
 38 42 0 0 0
SMALL
GASTEIGER

@<TRIPOS>ATOM
      1 O           2.2980    1.1692   24.0266 O.2     1  UNL1       -0.2733
      2 C           0.8639    1.4050   23.6551 C.2     1  UNL1        0.2425
      3 N          -0.1611    1.6305   24.7268 N.am    1  UNL1       -0.3018
      4 H          -1.1023    1.7853   24.4831 H       1  UNL1        0.1495
      5 C           0.2480    1.6204   26.1700 C.3     1  UNL1        0.1035
      6 C           1.1677    2.4484   27.0175 C.3     1  UNL1        0.0933
      7 N           0.8266    1.6060   28.2108 N.3     1  UNL1       -0.2711
      8 C          -0.0932    0.7780   27.3632 C.3     1  UNL1        0.0933
      9 C           1.2357    1.5959   29.6539 C.3     1  UNL1        0.0578
     10 C           0.3815    2.2790   30.6804 C.3     1  UNL1        0.0187
     11 C           0.7906    2.2688   32.1235 C.3     1  UNL1        0.0331
     12 C           2.0538    1.5756   32.5401 C.3     1  UNL1        0.1140
     13 O           1.5814    2.0786   33.8720 O.3     1  UNL1       -0.3821
     14 C           2.9080    0.8924   31.5136 C.3     1  UNL1        0.0331
     15 C           2.4989    0.9026   30.0705 C.3     1  UNL1        0.0187
     16 H           0.7483    2.5621   33.7579 H       1  UNL1        0.2107
     17 C           3.1530    1.0570   33.4192 C.ar    1  UNL1        0.0518
     18 C           3.8758   -0.2466   33.2509 C.ar    1  UNL1        0.1039
     19 N           4.8919   -0.3583   34.3487 N.ar    1  UNL1       -0.2350
     20 C           4.7970    0.8763   35.1955 C.ar    1  UNL1        0.1343
     21 S           3.7224    1.7509   34.6210 S.2     1  UNL1       -0.0665
     22 C           0.4548    1.4151   22.2121 C.3     1  UNL1        0.1736
     23 N           0.9981    0.3808   21.2712 N.pl3   1  UNL1       -0.3252
     24 H           0.7091   -0.5569   21.3503 H       1  UNL1        0.1473
     25 C           1.9818    0.7755   20.2097 C.ar    1  UNL1        0.0479
     26 C           2.0872    2.2088   19.7804 C.ar    1  UNL1        0.0350
     27 C           3.0709    2.6034   18.7190 C.ar    1  UNL1        0.1001
     28 N           3.9492    1.5646   18.0869 N.ar    1  UNL1       -0.2438
     29 C           3.8438    0.1312   18.5162 C.ar    1  UNL1        0.0825
     30 C           4.7221   -0.9075   17.8842 C.ar    1  UNL1        0.0191
     31 C           4.6167   -2.3409   18.3135 C.ar    1  UNL1        0.0054
     32 C           3.6330   -2.7355   19.3750 C.ar    1  UNL1        0.0716
     33 C           2.7547   -1.6967   20.0071 C.ar    1  UNL1        0.0066
     34 C           2.8601   -0.2633   19.5777 C.ar    1  UNL1        0.0308
     35 C           3.5276   -4.1688   19.8043 C.3     1  UNL1        0.4186
     36 F           3.4223   -5.6023   20.2337 F       1  UNL1       -0.1659
     37 F           2.5940   -4.4422   18.6626 F       1  UNL1       -0.1659
     38 F           4.4613   -3.8955   20.9460 F       1  UNL1       -0.1659
@<TRIPOS>BOND
     1     1     2    2
     2     2    22    1
     3    22    23    1
     4    23    25    1
     5    25    26   ar
     6    26    27   ar
     7    27    28   ar
     8    28    29   ar
     9    29    30   ar
    10    30    31   ar
    11    31    32   ar
    12    32    35    1
    13    35    36    1
    14    35    37    1
    15    35    38    1
    16    32    33   ar
    17    33    34   ar
    18     2     3   am
    19     3     5    1
    20     5     6    1
    21     6     7    1
    22     9     7    1
    23     9    10    1
    24    10    11    1
    25    11    12    1
    26    12    13    1
    27    12    17    1
    28    17    18   ar
    29    18    19   ar
    30    19    20   ar
    31    20    21   ar
    32    12    14    1
    33    14    15    1
    34     7     8    1
    35    34    25   ar
    36     8     5    1
    37    34    29   ar
    38    15     9    1
    39    21    17   ar
    40    23    24    1
    41     3     4    1
    42    13    16    1
