@<TRIPOS>MOLECULE
*****
 20 22 0 0 0
SMALL
GASTEIGER

@<TRIPOS>ATOM
      1 C          -8.7162  -19.2416   22.0173 C.ar    1  UNL1        0.1926
      2 N          -8.8242  -19.9081   23.3567 N.ar    1  UNL1       -0.1870
      3 C         -10.0682  -19.7431   24.1784 C.ar    1  UNL1        0.2203
      4 O         -10.1763  -20.4096   25.5178 O.3     1  UNL1       -0.4921
      5 C         -11.2042  -18.9115   23.6606 C.ar    1  UNL1        0.0444
      6 C         -11.0962  -18.2450   22.3212 C.ar    1  UNL1        0.0616
      7 N          -9.8522  -18.4100   21.4995 N.ar    1  UNL1       -0.2257
      8 C         -12.3696  -17.4918   22.0741 C.3     1  UNL1        0.0461
      9 C         -13.2647  -17.6929   23.2609 C.3     1  UNL1        0.0112
     10 C         -12.5445  -18.5703   24.2414 C.3     1  UNL1        0.0327
     11 H          -9.4667  -20.9291   25.8412 H       1  UNL1        0.2937
     12 S          -7.4721  -19.4066   21.1956 S.3     1  UNL1       -0.0708
     13 C          -6.2368  -19.9912   21.8141 C.3     1  UNL1        0.0913
     14 C          -0.8186  -18.1883   19.9722 C.3     1  UNL1        0.0310
     15 C          -2.1731  -18.6390   20.4326 C.ar    1  UNL1       -0.0219
     16 C          -2.4294  -18.8742   21.8918 C.ar    1  UNL1       -0.0046
     17 C          -3.7840  -19.3249   22.3523 C.ar    1  UNL1       -0.0037
     18 C          -4.8823  -19.5404   21.3536 C.ar    1  UNL1       -0.0109
     19 C          -4.6260  -19.3053   19.8945 C.ar    1  UNL1       -0.0037
     20 C          -3.2715  -18.8546   19.4340 C.ar    1  UNL1       -0.0046
@<TRIPOS>BOND
     1    14    15    1
     2    15    16   ar
     3    16    17   ar
     4    17    18   ar
     5    18    13    1
     6    13    12    1
     7    12     1    1
     8     1     2   ar
     9     2     3   ar
    10     3     4    1
    11     3     5   ar
    12     5     6   ar
    13     6     7   ar
    14     6     8    1
    15     8     9    1
    16     9    10    1
    17    18    19   ar
    18    19    20   ar
    19    20    15   ar
    20     7     1   ar
    21    10     5    1
    22     4    11    1
@<TRIPOS>MOLECULE
*****
 20 22 0 0 0
SMALL
GASTEIGER

@<TRIPOS>ATOM
      1 C          -7.8218  -18.6887   22.0760 C.ar    1  UNL1        0.1926
      2 N          -7.7119  -17.2429   21.6920 N.ar    1  UNL1       -0.1870
      3 C          -8.9155  -16.3515   21.7742 C.ar    1  UNL1        0.2203
      4 O          -8.8055  -14.9056   21.3902 O.3     1  UNL1       -0.4921
      5 C         -10.2289  -16.9059   22.2404 C.ar    1  UNL1        0.0444
      6 C         -10.3389  -18.3518   22.6244 C.ar    1  UNL1        0.0616
      7 N          -9.1353  -19.2432   22.5422 N.ar    1  UNL1       -0.2257
      8 C         -11.7549  -18.6136   23.0442 C.3     1  UNL1        0.0461
      9 C         -12.5202  -17.3295   22.9196 C.3     1  UNL1        0.0112
     10 C         -11.5771  -16.2741   22.4229 C.3     1  UNL1        0.0327
     11 H          -7.9850  -14.5593   21.0990 H       1  UNL1        0.2937
     12 S          -6.6181  -19.5801   21.9938 S.3     1  UNL1       -0.0708
     13 C          -5.9093  -19.7644   20.6847 C.3     1  UNL1        0.0913
     14 C          -0.2236  -17.9492   20.0700 C.3     1  UNL1        0.0310
     15 C          -1.6450  -18.4030   20.2236 C.ar    1  UNL1       -0.0219
     16 C          -2.0775  -19.1029   21.4779 C.ar    1  UNL1       -0.0046
     17 C          -3.4989  -19.5567   21.6316 C.ar    1  UNL1       -0.0037
     18 C          -4.4879  -19.3106   20.5310 C.ar    1  UNL1       -0.0109
     19 C          -4.0555  -18.6108   19.2768 C.ar    1  UNL1       -0.0037
     20 C          -2.6341  -18.1570   19.1230 C.ar    1  UNL1       -0.0046
@<TRIPOS>BOND
     1    14    15    1
     2    15    16   ar
     3    16    17   ar
     4    17    18   ar
     5    18    13    1
     6    13    12    1
     7    12     1    1
     8     1     2   ar
     9     2     3   ar
    10     3     4    1
    11     3     5   ar
    12     5     6   ar
    13     6     7   ar
    14     6     8    1
    15     8     9    1
    16     9    10    1
    17    18    19   ar
    18    19    20   ar
    19    20    15   ar
    20     7     1   ar
    21    10     5    1
    22     4    11    1
@<TRIPOS>MOLECULE
*****
 20 22 0 0 0
SMALL
GASTEIGER

@<TRIPOS>ATOM
      1 C          -8.4772  -19.1914   21.0582 C.ar    1  UNL1        0.1926
      2 N          -9.4245  -18.5255   20.1049 N.ar    1  UNL1       -0.1870
      3 C         -10.7785  -18.0858   20.5774 C.ar    1  UNL1        0.2203
      4 O         -11.7258  -17.4198   19.6239 O.3     1  UNL1       -0.4921
      5 C         -11.1852  -18.3120   22.0034 C.ar    1  UNL1        0.0444
      6 C         -10.2378  -18.9780   22.9568 C.ar    1  UNL1        0.0616
      7 N          -8.8838  -19.4177   22.4843 N.ar    1  UNL1       -0.2257
      8 C         -10.9118  -19.0666   24.2939 C.3     1  UNL1        0.0461
      9 C         -12.2757  -18.4553   24.1669 C.3     1  UNL1        0.0112
     10 C         -12.4447  -17.9890   22.7512 C.3     1  UNL1        0.0327
     11 H         -11.4718  -17.2785   18.7332 H       1  UNL1        0.2937
     12 S          -7.1231  -19.6312   20.5856 S.3     1  UNL1       -0.0708
     13 C          -5.9855  -19.7317   21.5581 C.3     1  UNL1        0.0913
     14 C          -0.4541  -18.1216   19.8813 C.3     1  UNL1        0.0310
     15 C          -1.8369  -18.5241   20.3006 C.ar    1  UNL1       -0.0219
     16 C          -2.9454  -18.5624   19.2907 C.ar    1  UNL1       -0.0046
     17 C          -4.3284  -18.9650   19.7099 C.ar    1  UNL1       -0.0037
     18 C          -4.6027  -19.3292   21.1389 C.ar    1  UNL1       -0.0109
     19 C          -3.4942  -19.2909   22.1487 C.ar    1  UNL1       -0.0037
     20 C          -2.1113  -18.8884   21.7296 C.ar    1  UNL1       -0.0046
@<TRIPOS>BOND
     1    14    15    1
     2    15    16   ar
     3    16    17   ar
     4    17    18   ar
     5    18    13    1
     6    13    12    1
     7    12     1    1
     8     1     2   ar
     9     2     3   ar
    10     3     4    1
    11     3     5   ar
    12     5     6   ar
    13     6     7   ar
    14     6     8    1
    15     8     9    1
    16     9    10    1
    17    18    19   ar
    18    19    20   ar
    19    20    15   ar
    20     7     1   ar
    21    10     5    1
    22     4    11    1
@<TRIPOS>MOLECULE
*****
 20 22 0 0 0
SMALL
GASTEIGER

@<TRIPOS>ATOM
      1 C          -5.9516  -18.8377   21.1630 C.ar    1  UNL1        0.1926
      2 N          -5.3329  -18.4643   22.4774 N.ar    1  UNL1       -0.1870
      3 C          -3.8621  -18.1817   22.5607 C.ar    1  UNL1        0.2203
      4 O          -3.2434  -17.8083   23.8751 O.3     1  UNL1       -0.4921
      5 C          -3.0101  -18.2725   21.3295 C.ar    1  UNL1        0.0444
      6 C          -3.6288  -18.6459   20.0151 C.ar    1  UNL1        0.0616
      7 N          -5.0995  -18.9286   19.9318 N.ar    1  UNL1       -0.2257
      8 C          -2.5446  -18.6560   18.9786 C.3     1  UNL1        0.0461
      9 C          -1.2557  -18.2888   19.6524 C.3     1  UNL1        0.0112
     10 C          -1.5434  -18.0518   21.1054 C.3     1  UNL1        0.0327
     11 H          -3.7757  -17.7516   24.6442 H       1  UNL1        0.2937
     12 S          -7.4224  -19.1204   21.0797 S.3     1  UNL1       -0.0708
     13 C          -8.1310  -19.7554   22.2394 C.3     1  UNL1        0.0913
     14 C         -13.6321  -17.9117   23.7685 C.3     1  UNL1        0.0310
     15 C         -12.2569  -18.3726   23.3863 C.ar    1  UNL1       -0.0219
     16 C         -11.8593  -18.4284   21.9410 C.ar    1  UNL1       -0.0046
     17 C         -10.4840  -18.8893   21.5586 C.ar    1  UNL1       -0.0037
     18 C          -9.5063  -19.2945   22.6216 C.ar    1  UNL1       -0.0109
     19 C          -9.9038  -19.2387   24.0669 C.ar    1  UNL1       -0.0037
     20 C         -11.2791  -18.7777   24.4492 C.ar    1  UNL1       -0.0046
@<TRIPOS>BOND
     1    14    15    1
     2    15    16   ar
     3    16    17   ar
     4    17    18   ar
     5    18    13    1
     6    13    12    1
     7    12     1    1
     8     1     2   ar
     9     2     3   ar
    10     3     4    1
    11     3     5   ar
    12     5     6   ar
    13     6     7   ar
    14     6     8    1
    15     8     9    1
    16     9    10    1
    17    18    19   ar
    18    19    20   ar
    19    20    15   ar
    20     7     1   ar
    21    10     5    1
    22     4    11    1
@<TRIPOS>MOLECULE
*****
 20 22 0 0 0
SMALL
GASTEIGER

@<TRIPOS>ATOM
      1 C          -7.4565  -18.5948   21.4828 C.ar    1  UNL1        0.1926
      2 N          -8.9283  -18.7470   21.7281 N.ar    1  UNL1       -0.1870
      3 C          -9.6087  -17.8968   22.7598 C.ar    1  UNL1        0.2203
      4 O         -11.0806  -18.0491   23.0051 O.3     1  UNL1       -0.4921
      5 C          -8.8170  -16.8943   23.5460 C.ar    1  UNL1        0.0444
      6 C          -7.3451  -16.7420   23.3007 C.ar    1  UNL1        0.0616
      7 N          -6.6648  -17.5922   22.2691 N.ar    1  UNL1       -0.2257
      8 C          -6.8291  -15.6776   24.2231 C.3     1  UNL1        0.0461
      9 C          -7.9821  -15.1721   25.0385 C.3     1  UNL1        0.0112
     10 C          -9.2107  -15.9240   24.6201 C.3     1  UNL1        0.0327
     11 H         -11.5751  -18.6754   22.5139 H       1  UNL1        0.2937
     12 S          -6.7761  -19.4450   20.4511 S.3     1  UNL1       -0.0708
     13 C          -5.5323  -20.2042   20.8066 C.3     1  UNL1        0.0913
     14 C          -0.1483  -17.6689   20.0414 C.3     1  UNL1        0.0310
     15 C          -1.4943  -18.3027   20.2327 C.ar    1  UNL1       -0.0219
     16 C          -2.5116  -18.2496   19.1317 C.ar    1  UNL1       -0.0046
     17 C          -3.8577  -18.8835   19.3229 C.ar    1  UNL1       -0.0037
     18 C          -4.1863  -19.5704   20.6152 C.ar    1  UNL1       -0.0109
     19 C          -3.1690  -19.6235   21.7163 C.ar    1  UNL1       -0.0037
     20 C          -1.8230  -18.9897   21.5250 C.ar    1  UNL1       -0.0046
@<TRIPOS>BOND
     1    14    15    1
     2    15    16   ar
     3    16    17   ar
     4    17    18   ar
     5    18    13    1
     6    13    12    1
     7    12     1    1
     8     1     2   ar
     9     2     3   ar
    10     3     4    1
    11     3     5   ar
    12     5     6   ar
    13     6     7   ar
    14     6     8    1
    15     8     9    1
    16     9    10    1
    17    18    19   ar
    18    19    20   ar
    19    20    15   ar
    20     7     1   ar
    21    10     5    1
    22     4    11    1
@<TRIPOS>MOLECULE
*****
 20 22 0 0 0
SMALL
GASTEIGER

@<TRIPOS>ATOM
      1 C          -6.8281  -19.1805   21.4046 C.ar    1  UNL1        0.1926
      2 N          -6.0381  -20.0414   20.4641 N.ar    1  UNL1       -0.1870
      3 C          -4.5393  -20.0354   20.5214 C.ar    1  UNL1        0.2203
      4 O          -3.7493  -20.8964   19.5808 O.3     1  UNL1       -0.4921
      5 C          -3.8304  -19.1684   21.5192 C.ar    1  UNL1        0.0444
      6 C          -4.6203  -18.3074   22.4598 C.ar    1  UNL1        0.0616
      7 N          -6.1192  -18.3134   22.4025 N.ar    1  UNL1       -0.2257
      8 C          -3.6522  -17.5620   23.3298 C.3     1  UNL1        0.0461
      9 C          -2.2639  -17.9623   22.9270 C.3     1  UNL1        0.0112
     10 C          -2.3739  -18.9551   21.8080 C.3     1  UNL1        0.0327
     11 H          -4.1922  -21.4380   18.9575 H       1  UNL1        0.2937
     12 S          -8.3271  -19.1865   21.3472 S.3     1  UNL1       -0.0708
     13 C          -9.0940  -17.9322   21.6449 C.3     1  UNL1        0.0913
     14 C         -14.3318  -18.2379   24.5557 C.3     1  UNL1        0.0310
     15 C         -13.0223  -18.1615   23.8280 C.ar    1  UNL1       -0.0219
     16 C         -12.9607  -17.5574   22.4564 C.ar    1  UNL1       -0.0046
     17 C         -11.6512  -17.4809   21.7286 C.ar    1  UNL1       -0.0037
     18 C         -10.4034  -18.0086   22.3725 C.ar    1  UNL1       -0.0109
     19 C         -10.4651  -18.6127   23.7441 C.ar    1  UNL1       -0.0037
     20 C         -11.7745  -18.6891   24.4719 C.ar    1  UNL1       -0.0046
@<TRIPOS>BOND
     1    14    15    1
     2    15    16   ar
     3    16    17   ar
     4    17    18   ar
     5    18    13    1
     6    13    12    1
     7    12     1    1
     8     1     2   ar
     9     2     3   ar
    10     3     4    1
    11     3     5   ar
    12     5     6   ar
    13     6     7   ar
    14     6     8    1
    15     8     9    1
    16     9    10    1
    17    18    19   ar
    18    19    20   ar
    19    20    15   ar
    20     7     1   ar
    21    10     5    1
    22     4    11    1
@<TRIPOS>MOLECULE
*****
 20 22 0 0 0
SMALL
GASTEIGER

@<TRIPOS>ATOM
      1 C          -7.8863  -18.5309   21.8438 C.ar    1  UNL1        0.1926
      2 N          -8.4985  -19.2212   20.6612 N.ar    1  UNL1       -0.1870
      3 C          -9.9197  -18.9330   20.2776 C.ar    1  UNL1        0.2203
      4 O         -10.5319  -19.6233   19.0949 O.3     1  UNL1       -0.4921
      5 C         -10.7286  -17.9547   21.0765 C.ar    1  UNL1        0.0444
      6 C         -10.1164  -17.2644   22.2592 C.ar    1  UNL1        0.0616
      7 N          -8.6952  -17.5525   22.6429 N.ar    1  UNL1       -0.2257
      8 C         -11.1517  -16.3556   22.8527 C.3     1  UNL1        0.0461
      9 C         -12.4038  -16.4843   22.0369 C.3     1  UNL1        0.0112
     10 C         -12.1424  -17.4725   20.9391 C.3     1  UNL1        0.0327
     11 H         -10.0266  -20.2345   18.5958 H       1  UNL1        0.2937
     12 S          -6.4650  -18.8191   22.2275 S.3     1  UNL1       -0.0708
     13 C          -5.6073  -19.6729   21.3413 C.3     1  UNL1        0.0913
     14 C          -0.0797  -17.8622   19.8690 C.3     1  UNL1        0.0310
     15 C          -1.4616  -18.3148   20.2370 C.ar    1  UNL1       -0.0219
     16 C          -1.8043  -18.5873   21.6717 C.ar    1  UNL1       -0.0046
     17 C          -3.1862  -19.0400   22.0399 C.ar    1  UNL1       -0.0037
     18 C          -4.2254  -19.2202   20.9733 C.ar    1  UNL1       -0.0109
     19 C          -3.8827  -18.9477   19.5386 C.ar    1  UNL1       -0.0037
     20 C          -2.5009  -18.4951   19.1704 C.ar    1  UNL1       -0.0046
@<TRIPOS>BOND
     1    14    15    1
     2    15    16   ar
     3    16    17   ar
     4    17    18   ar
     5    18    13    1
     6    13    12    1
     7    12     1    1
     8     1     2   ar
     9     2     3   ar
    10     3     4    1
    11     3     5   ar
    12     5     6   ar
    13     6     7   ar
    14     6     8    1
    15     8     9    1
    16     9    10    1
    17    18    19   ar
    18    19    20   ar
    19    20    15   ar
    20     7     1   ar
    21    10     5    1
    22     4    11    1
@<TRIPOS>MOLECULE
*****
 20 22 0 0 0
SMALL
GASTEIGER

@<TRIPOS>ATOM
      1 C          -5.7625  -16.9570   23.1124 C.ar    1  UNL1        0.1926
      2 N          -4.2885  -16.8923   23.3824 N.ar    1  UNL1       -0.1870
      3 C          -3.3582  -17.8509   22.7001 C.ar    1  UNL1        0.2203
      4 O          -1.8841  -17.7862   22.9701 O.3     1  UNL1       -0.4921
      5 C          -3.9020  -18.8742   21.7477 C.ar    1  UNL1        0.0444
      6 C          -5.3761  -18.9389   21.4776 C.ar    1  UNL1        0.0616
      7 N          -6.3064  -17.9803   22.1600 N.ar    1  UNL1       -0.2257
      8 C          -5.6195  -20.0472   20.4965 C.3     1  UNL1        0.0461
      9 C          -4.2958  -20.6674   20.1602 C.3     1  UNL1        0.0112
     10 C          -3.2343  -19.9425   20.9334 C.3     1  UNL1        0.0327
     11 H          -1.5445  -17.1470   23.5650 H       1  UNL1        0.2937
     12 S          -6.6928  -15.9983   23.7949 S.3     1  UNL1       -0.0708
     13 C          -7.8896  -16.5146   24.5373 C.3     1  UNL1        0.0913
     14 C         -12.9415  -17.7954   21.5644 C.3     1  UNL1        0.0310
     15 C         -11.6786  -17.4753   22.3076 C.ar    1  UNL1       -0.0219
     16 C         -10.6881  -16.5121   21.7233 C.ar    1  UNL1       -0.0046
     17 C          -9.4251  -16.1919   22.4665 C.ar    1  UNL1       -0.0037
     18 C          -9.1525  -16.8348   23.7941 C.ar    1  UNL1       -0.0109
     19 C         -10.1430  -17.7979   24.3784 C.ar    1  UNL1       -0.0037
     20 C         -11.4059  -18.1182   23.6352 C.ar    1  UNL1       -0.0046
@<TRIPOS>BOND
     1    14    15    1
     2    15    16   ar
     3    16    17   ar
     4    17    18   ar
     5    18    13    1
     6    13    12    1
     7    12     1    1
     8     1     2   ar
     9     2     3   ar
    10     3     4    1
    11     3     5   ar
    12     5     6   ar
    13     6     7   ar
    14     6     8    1
    15     8     9    1
    16     9    10    1
    17    18    19   ar
    18    19    20   ar
    19    20    15   ar
    20     7     1   ar
    21    10     5    1
    22     4    11    1
@<TRIPOS>MOLECULE
*****
 20 22 0 0 0
SMALL
GASTEIGER

@<TRIPOS>ATOM
      1 C          -6.9253  -16.6699   23.0868 C.ar    1  UNL1        0.1926
      2 N          -8.2386  -16.0186   23.4041 N.ar    1  UNL1       -0.1870
      3 C          -9.4937  -16.4964   22.7359 C.ar    1  UNL1        0.2203
      4 O         -10.8070  -15.8450   23.0532 O.3     1  UNL1       -0.4921
      5 C          -9.4353  -17.6257   21.7503 C.ar    1  UNL1        0.0444
      6 C          -8.1219  -18.2771   21.4329 C.ar    1  UNL1        0.0616
      7 N          -6.8669  -17.7992   22.1012 N.ar    1  UNL1       -0.2257
      8 C          -8.3731  -19.3608   20.4268 C.3     1  UNL1        0.0461
      9 C          -9.8418  -19.3792   20.1223 C.3     1  UNL1        0.0112
     10 C         -10.4982  -18.3068   20.9402 C.3     1  UNL1        0.0327
     11 H         -10.8435  -15.1396   23.6689 H       1  UNL1        0.2937
     12 S          -5.6702  -16.1921   23.7551 S.3     1  UNL1       -0.0708
     13 C          -4.5375  -17.1461   23.9935 C.3     1  UNL1        0.0913
     14 C          -0.4906  -18.1375   19.6761 C.3     1  UNL1        0.0310
     15 C          -1.5023  -17.8897   20.7555 C.ar    1  UNL1       -0.0219
     16 C          -1.7302  -16.4972   21.2645 C.ar    1  UNL1       -0.0046
     17 C          -2.7419  -16.2493   22.3439 C.ar    1  UNL1       -0.0037
     18 C          -3.5258  -17.3939   22.9142 C.ar    1  UNL1       -0.0109
     19 C          -3.2980  -18.7864   22.4052 C.ar    1  UNL1       -0.0037
     20 C          -2.2863  -19.0343   21.3259 C.ar    1  UNL1       -0.0046
@<TRIPOS>BOND
     1    14    15    1
     2    15    16   ar
     3    16    17   ar
     4    17    18   ar
     5    18    13    1
     6    13    12    1
     7    12     1    1
     8     1     2   ar
     9     2     3   ar
    10     3     4    1
    11     3     5   ar
    12     5     6   ar
    13     6     7   ar
    14     6     8    1
    15     8     9    1
    16     9    10    1
    17    18    19   ar
    18    19    20   ar
    19    20    15   ar
    20     7     1   ar
    21    10     5    1
    22     4    11    1
