@<TRIPOS>MOLECULE
*****
 34 36 0 0 0
SMALL
GASTEIGER

@<TRIPOS>ATOM
      1 O         -10.6951  -19.2884   18.5503 O.2     1  UNL1       -0.2262
      2 C         -10.5674  -19.1363   20.0371 C.2     1  UNL1        0.4054
      3 N          -9.2302  -19.3027   20.6960 N.am    1  UNL1       -0.2432
      4 C          -9.1026  -19.1505   22.1828 C.3     1  UNL1        0.1141
      5 C          -7.7654  -19.3170   22.8417 C.3     1  UNL1        0.0943
      6 N          -6.5558  -19.6356   22.0138 N.3     1  UNL1       -0.2659
      7 C          -6.6834  -19.7877   20.5271 C.3     1  UNL1        0.0943
      8 C          -8.0206  -19.6213   19.8682 C.3     1  UNL1        0.1141
      9 O         -11.7770  -18.8177   20.8649 O.3     1  UNL1       -0.4205
     10 C         -11.9172  -17.4653   21.4985 C.3     1  UNL1        0.3579
     11 C         -11.1973  -16.2856   20.9154 C.3     1  UNL1        0.4429
     12 F         -10.4774  -15.1059   20.3323 F       1  UNL1       -0.1661
     13 F         -10.2792  -16.2597   22.1013 F       1  UNL1       -0.1661
     14 F         -12.1153  -16.3115   19.7295 F       1  UNL1       -0.1661
     15 C         -12.7773  -17.2927   22.7152 C.3     1  UNL1        0.4429
     16 F         -13.6374  -17.1200   23.9319 F       1  UNL1       -0.1661
     17 F         -12.5943  -18.7432   23.0505 F       1  UNL1       -0.1661
     18 F         -12.9604  -15.8421   22.3800 F       1  UNL1       -0.1661
     19 C          -5.2186  -19.8020   22.6727 C.3     1  UNL1        0.1005
     20 C          -4.0024  -19.1597   22.0742 C.ar    1  UNL1        0.0072
     21 C          -3.2121  -19.8830   21.0242 C.ar    1  UNL1       -0.0017
     22 C          -1.9959  -19.2407   20.4257 C.ar    1  UNL1        0.0037
     23 C          -1.5700  -17.8751   20.8771 C.ar    1  UNL1        0.0726
     24 C          -2.3602  -17.1518   21.9270 C.ar    1  UNL1        0.0181
     25 C          -3.5764  -17.7941   22.5256 C.ar    1  UNL1        0.0451
     26 N          -4.3666  -17.0709   23.5755 N.pl3   1  UNL1       -0.3077
     27 C          -4.0801  -17.0667   25.0479 C.3     1  UNL1        0.0908
     28 C          -5.1185  -16.2180   25.7198 C.3     1  UNL1        0.0232
     29 C          -6.0469  -15.6976   24.6626 C.3     1  UNL1        0.0232
     30 C          -5.5821  -16.2247   23.3374 C.3     1  UNL1        0.0908
     31 C          -0.3537  -17.2328   20.2785 C.3     1  UNL1        0.4186
     32 F           0.8625  -16.5906   19.6799 F       1  UNL1       -0.1659
     33 F          -0.7614  -15.9139   20.8652 F       1  UNL1       -0.1659
     34 F           0.0540  -18.5517   19.6918 F       1  UNL1       -0.1659
@<TRIPOS>BOND
     1     1     2    2
     2     2     9    1
     3     9    10    1
     4    10    11    1
     5    11    12    1
     6    11    13    1
     7    11    14    1
     8    10    15    1
     9    15    16    1
    10    15    17    1
    11    15    18    1
    12     2     3   am
    13     3     4    1
    14     4     5    1
    15     5     6    1
    16     6    19    1
    17    19    20    1
    18    20    21   ar
    19    21    22   ar
    20    22    23   ar
    21    23    31    1
    22    31    32    1
    23    31    33    1
    24    31    34    1
    25    23    24   ar
    26    24    25   ar
    27    25    26    1
    28    26    27    1
    29    27    28    1
    30    28    29    1
    31    29    30    1
    32     6     7    1
    33     7     8    1
    34     8     3    1
    35    25    20   ar
    36    30    26    1
@<TRIPOS>MOLECULE
*****
 34 36 0 0 0
SMALL
GASTEIGER

@<TRIPOS>ATOM
      1 O         -10.6821  -19.3123   18.5384 O.2     1  UNL1       -0.2262
      2 C         -10.5558  -19.1438   20.0235 C.2     1  UNL1        0.4054
      3 N          -9.2196  -19.3050   20.6857 N.am    1  UNL1       -0.2432
      4 C          -9.0934  -19.1365   22.1708 C.3     1  UNL1        0.1141
      5 C          -7.7572  -19.2978   22.8331 C.3     1  UNL1        0.0943
      6 N          -6.5472  -19.6276   22.0102 N.3     1  UNL1       -0.2659
      7 C          -6.6735  -19.7961   20.5250 C.3     1  UNL1        0.0943
      8 C          -8.0097  -19.6348   19.8628 C.3     1  UNL1        0.1141
      9 O         -11.7658  -18.8140   20.8464 O.3     1  UNL1       -0.4205
     10 C         -11.9037  -17.4549   21.4660 C.3     1  UNL1        0.3579
     11 C         -12.7524  -17.2710   22.6892 C.3     1  UNL1        0.4429
     12 F         -13.6010  -17.0869   23.9123 F       1  UNL1       -0.1661
     13 F         -12.9454  -15.8255   22.3378 F       1  UNL1       -0.1661
     14 F         -12.5594  -18.7164   23.0405 F       1  UNL1       -0.1661
     15 C         -11.1931  -16.2799   20.8626 C.3     1  UNL1        0.4429
     16 F         -10.4824  -15.1048   20.2592 F       1  UNL1       -0.1661
     17 F         -12.1160  -16.3284   19.6812 F       1  UNL1       -0.1661
     18 F         -10.2702  -16.2313   22.0441 F       1  UNL1       -0.1661
     19 C          -5.2110  -19.7889   22.6724 C.3     1  UNL1        0.1005
     20 C          -3.9948  -19.1469   22.0736 C.ar    1  UNL1        0.0072
     21 C          -3.2102  -19.8665   21.0168 C.ar    1  UNL1       -0.0017
     22 C          -1.9940  -19.2244   20.4180 C.ar    1  UNL1        0.0037
     23 C          -1.5623  -17.8628   20.8759 C.ar    1  UNL1        0.0726
     24 C          -2.3469  -17.1432   21.9325 C.ar    1  UNL1        0.0181
     25 C          -3.5632  -17.7852   22.5314 C.ar    1  UNL1        0.0451
     26 N          -4.3477  -17.0656   23.5881 N.pl3   1  UNL1       -0.3077
     27 C          -5.5481  -16.1965   23.3564 C.3     1  UNL1        0.0908
     28 C          -6.0119  -15.6825   24.6871 C.3     1  UNL1        0.0232
     29 C          -5.0982  -16.2340   25.7412 C.3     1  UNL1        0.0232
     30 C          -4.0697  -17.0888   25.0619 C.3     1  UNL1        0.0908
     31 C          -0.3461  -17.2208   20.2770 C.3     1  UNL1        0.4186
     32 F           0.8701  -16.5788   19.6781 F       1  UNL1       -0.1659
     33 F          -0.7487  -15.9037   20.8712 F       1  UNL1       -0.1659
     34 F           0.0565  -18.5379   19.6828 F       1  UNL1       -0.1659
@<TRIPOS>BOND
     1     1     2    2
     2     2     9    1
     3     9    10    1
     4    10    11    1
     5    11    12    1
     6    11    13    1
     7    11    14    1
     8    10    15    1
     9    15    16    1
    10    15    17    1
    11    15    18    1
    12     2     3   am
    13     3     4    1
    14     4     5    1
    15     5     6    1
    16     6    19    1
    17    19    20    1
    18    20    21   ar
    19    21    22   ar
    20    22    23   ar
    21    23    31    1
    22    31    32    1
    23    31    33    1
    24    31    34    1
    25    23    24   ar
    26    24    25   ar
    27    25    26    1
    28    26    27    1
    29    27    28    1
    30    28    29    1
    31    29    30    1
    32     6     7    1
    33     7     8    1
    34     8     3    1
    35    25    20   ar
    36    30    26    1
@<TRIPOS>MOLECULE
*****
 34 36 0 0 0
SMALL
GASTEIGER

@<TRIPOS>ATOM
      1 O          -2.8359  -18.3684   22.9019 O.2     1  UNL1       -0.2262
      2 C          -3.3068  -18.7839   21.5397 C.2     1  UNL1        0.4054
      3 N          -4.7752  -18.8415   21.2389 N.am    1  UNL1       -0.2432
      4 C          -5.2461  -19.2570   19.8768 C.3     1  UNL1        0.1141
      5 C          -6.7145  -19.3145   19.5760 C.3     1  UNL1        0.0943
      6 N          -7.7120  -18.9566   20.6375 N.3     1  UNL1       -0.2659
      7 C          -7.2412  -18.5410   21.9996 C.3     1  UNL1        0.0943
      8 C          -5.7728  -18.4835   22.3004 C.3     1  UNL1        0.1141
      9 O          -2.3092  -19.1419   20.4783 O.3     1  UNL1       -0.4205
     10 C          -1.5967  -18.0594   19.7229 C.3     1  UNL1        0.3579
     11 C          -0.1824  -17.7050   20.0756 C.3     1  UNL1        0.4429
     12 F           1.2318  -17.3506   20.4283 F       1  UNL1       -0.1661
     13 F           0.2622  -19.0803   19.6747 F       1  UNL1       -0.1661
     14 F          -0.6270  -16.3297   20.4766 F       1  UNL1       -0.1661
     15 C          -2.2983  -17.3314   18.6150 C.3     1  UNL1        0.4429
     16 F          -3.0000  -16.6033   17.5070 F       1  UNL1       -0.1661
     17 F          -1.4273  -18.0232   17.6088 F       1  UNL1       -0.1661
     18 F          -3.1694  -16.6395   19.6212 F       1  UNL1       -0.1661
     19 C          -9.1805  -19.0141   20.3367 C.3     1  UNL1        0.1005
     20 C         -10.1791  -18.9019   21.4503 C.ar    1  UNL1        0.0072
     21 C         -10.4124  -20.0649   22.3685 C.ar    1  UNL1       -0.0017
     22 C         -11.4110  -19.9527   23.4821 C.ar    1  UNL1        0.0037
     23 C         -12.1763  -18.6775   23.6776 C.ar    1  UNL1        0.0726
     24 C         -11.9430  -17.5145   22.7594 C.ar    1  UNL1        0.0181
     25 C         -10.9444  -17.6267   21.6458 C.ar    1  UNL1        0.0451
     26 N         -10.7111  -16.4637   20.7276 N.pl3   1  UNL1       -0.3077
     27 C         -11.4458  -16.1885   19.4492 C.3     1  UNL1        0.0908
     28 C         -10.8909  -14.9265   18.8581 C.3     1  UNL1        0.0232
     29 C          -9.8132  -14.4217   19.7713 C.3     1  UNL1        0.0232
     30 C          -9.7021  -15.3717   20.9267 C.3     1  UNL1        0.0908
     31 C         -13.1750  -18.5653   24.7912 C.3     1  UNL1        0.4186
     32 F         -14.1735  -18.4531   25.9049 F       1  UNL1       -0.1659
     33 F         -14.1920  -18.0331   23.8257 F       1  UNL1       -0.1659
     34 F         -12.1579  -19.0975   25.7568 F       1  UNL1       -0.1659
@<TRIPOS>BOND
     1     1     2    2
     2     2     9    1
     3     9    10    1
     4    10    11    1
     5    11    12    1
     6    11    13    1
     7    11    14    1
     8    10    15    1
     9    15    16    1
    10    15    17    1
    11    15    18    1
    12     2     3   am
    13     3     4    1
    14     4     5    1
    15     5     6    1
    16     6    19    1
    17    19    20    1
    18    20    21   ar
    19    21    22   ar
    20    22    23   ar
    21    23    31    1
    22    31    32    1
    23    31    33    1
    24    31    34    1
    25    23    24   ar
    26    24    25   ar
    27    25    26    1
    28    26    27    1
    29    27    28    1
    30    28    29    1
    31    29    30    1
    32     6     7    1
    33     7     8    1
    34     8     3    1
    35    25    20   ar
    36    30    26    1
@<TRIPOS>MOLECULE
*****
 34 36 0 0 0
SMALL
GASTEIGER

@<TRIPOS>ATOM
      1 O          -1.5294  -19.2614   22.0733 O.2     1  UNL1       -0.2262
      2 C          -2.5406  -19.2850   20.9656 C.2     1  UNL1        0.4054
      3 N          -4.0050  -19.3269   21.2877 N.am    1  UNL1       -0.2432
      4 C          -5.0161  -19.3506   20.1800 C.3     1  UNL1        0.1141
      5 C          -6.4806  -19.3925   20.5020 C.3     1  UNL1        0.0943
      6 N          -6.9338  -19.4108   21.9318 N.3     1  UNL1       -0.2659
      7 C          -5.9227  -19.3872   23.0394 C.3     1  UNL1        0.0943
      8 C          -4.4583  -19.3453   22.7174 C.3     1  UNL1        0.1141
      9 O          -2.0873  -19.2667   19.5359 O.3     1  UNL1       -0.4205
     10 C          -1.3743  -18.0650   18.9905 C.3     1  UNL1        0.3579
     11 C          -0.1106  -17.5838   19.6400 C.3     1  UNL1        0.4429
     12 F           1.1530  -17.1028   20.2894 F       1  UNL1       -0.1661
     13 F           0.5383  -18.9062   19.3570 F       1  UNL1       -0.1661
     14 F          -0.7595  -16.2614   19.9230 F       1  UNL1       -0.1661
     15 C          -1.9248  -17.3444   17.7957 C.3     1  UNL1        0.4429
     16 F          -2.4754  -16.6238   16.6009 F       1  UNL1       -0.1661
     17 F          -3.1316  -16.9456   18.5923 F       1  UNL1       -0.1661
     18 F          -0.7181  -17.7432   16.9991 F       1  UNL1       -0.1661
     19 C          -8.3983  -19.4527   22.2538 C.3     1  UNL1        0.1005
     20 C          -9.3454  -18.5175   21.5622 C.ar    1  UNL1        0.0072
     21 C         -10.1296  -18.9880   20.3732 C.ar    1  UNL1       -0.0017
     22 C         -11.0767  -18.0528   19.6816 C.ar    1  UNL1        0.0037
     23 C         -11.2396  -16.6471   20.1790 C.ar    1  UNL1        0.0726
     24 C         -10.4554  -16.1765   21.3679 C.ar    1  UNL1        0.0181
     25 C          -9.5083  -17.1118   22.0595 C.ar    1  UNL1        0.0451
     26 N          -8.7241  -16.6412   23.2485 N.pl3   1  UNL1       -0.3077
     27 C          -7.3585  -16.0215   23.2148 C.3     1  UNL1        0.0908
     28 C          -6.9582  -15.7051   24.6253 C.3     1  UNL1        0.0232
     29 C          -8.0764  -16.1292   25.5308 C.3     1  UNL1        0.0232
     30 C          -9.1677  -16.7078   24.6798 C.3     1  UNL1        0.0908
     31 C         -12.1868  -15.7118   19.4873 C.3     1  UNL1        0.4186
     32 F         -13.1339  -14.7767   18.7957 F       1  UNL1       -0.1659
     33 F         -11.0764  -15.2505   18.5906 F       1  UNL1       -0.1659
     34 F         -13.2971  -16.1732   20.3841 F       1  UNL1       -0.1659
@<TRIPOS>BOND
     1     1     2    2
     2     2     9    1
     3     9    10    1
     4    10    11    1
     5    11    12    1
     6    11    13    1
     7    11    14    1
     8    10    15    1
     9    15    16    1
    10    15    17    1
    11    15    18    1
    12     2     3   am
    13     3     4    1
    14     4     5    1
    15     5     6    1
    16     6    19    1
    17    19    20    1
    18    20    21   ar
    19    21    22   ar
    20    22    23   ar
    21    23    31    1
    22    31    32    1
    23    31    33    1
    24    31    34    1
    25    23    24   ar
    26    24    25   ar
    27    25    26    1
    28    26    27    1
    29    27    28    1
    30    28    29    1
    31    29    30    1
    32     6     7    1
    33     7     8    1
    34     8     3    1
    35    25    20   ar
    36    30    26    1
@<TRIPOS>MOLECULE
*****
 34 36 0 0 0
SMALL
GASTEIGER

@<TRIPOS>ATOM
      1 O          -1.5305  -19.2928   22.0627 O.2     1  UNL1       -0.2262
      2 C          -2.5430  -19.3052   20.9561 C.2     1  UNL1        0.4054
      3 N          -4.0072  -19.3411   21.2796 N.am    1  UNL1       -0.2432
      4 C          -5.0197  -19.3535   20.1730 C.3     1  UNL1        0.1141
      5 C          -6.4840  -19.3894   20.4966 C.3     1  UNL1        0.0943
      6 N          -6.9357  -19.4129   21.9267 N.3     1  UNL1       -0.2659
      7 C          -5.9232  -19.4005   23.0333 C.3     1  UNL1        0.0943
      8 C          -4.4590  -19.3646   22.7098 C.3     1  UNL1        0.1141
      9 O          -2.0912  -19.2816   19.5260 O.3     1  UNL1       -0.4205
     10 C          -1.3746  -18.0799   18.9855 C.3     1  UNL1        0.3579
     11 C          -1.9167  -17.3597   17.7865 C.3     1  UNL1        0.4429
     12 F          -2.4588  -16.6395   16.5876 F       1  UNL1       -0.1661
     13 F          -0.7100  -17.7689   16.9951 F       1  UNL1       -0.1661
     14 F          -3.1235  -16.9505   18.5779 F       1  UNL1       -0.1661
     15 C          -0.1158  -17.5983   19.6439 C.3     1  UNL1        0.4429
     16 F           1.1430  -17.1167   20.3022 F       1  UNL1       -0.1661
     17 F           0.5409  -18.9148   19.3512 F       1  UNL1       -0.1661
     18 F          -0.7725  -16.2819   19.9365 F       1  UNL1       -0.1661
     19 C          -8.4000  -19.4489   22.2502 C.3     1  UNL1        0.1005
     20 C          -9.3444  -18.5120   21.5572 C.ar    1  UNL1        0.0072
     21 C         -10.1222  -18.9789   20.3625 C.ar    1  UNL1       -0.0017
     22 C         -11.0666  -18.0421   19.6695 C.ar    1  UNL1        0.0037
     23 C         -11.2333  -16.6383   20.1711 C.ar    1  UNL1        0.0726
     24 C         -10.4556  -16.1714   21.3657 C.ar    1  UNL1        0.0181
     25 C          -9.5111  -17.1082   22.0588 C.ar    1  UNL1        0.0451
     26 N          -8.7334  -16.6413   23.2534 N.pl3   1  UNL1       -0.3077
     27 C          -9.1750  -16.7336   24.6839 C.3     1  UNL1        0.0908
     28 C          -8.0921  -16.1494   25.5419 C.3     1  UNL1        0.0232
     29 C          -6.9812  -15.6960   24.6415 C.3     1  UNL1        0.0232
     30 C          -7.3777  -16.0000   23.2272 C.3     1  UNL1        0.0908
     31 C         -12.1778  -15.7014   19.4780 C.3     1  UNL1        0.4186
     32 F         -13.1222  -14.7646   18.7849 F       1  UNL1       -0.1659
     33 F         -13.2843  -16.1423   20.3897 F       1  UNL1       -0.1659
     34 F         -11.0714  -15.2606   18.5662 F       1  UNL1       -0.1659
@<TRIPOS>BOND
     1     1     2    2
     2     2     9    1
     3     9    10    1
     4    10    11    1
     5    11    12    1
     6    11    13    1
     7    11    14    1
     8    10    15    1
     9    15    16    1
    10    15    17    1
    11    15    18    1
    12     2     3   am
    13     3     4    1
    14     4     5    1
    15     5     6    1
    16     6    19    1
    17    19    20    1
    18    20    21   ar
    19    21    22   ar
    20    22    23   ar
    21    23    31    1
    22    31    32    1
    23    31    33    1
    24    31    34    1
    25    23    24   ar
    26    24    25   ar
    27    25    26    1
    28    26    27    1
    29    27    28    1
    30    28    29    1
    31    29    30    1
    32     6     7    1
    33     7     8    1
    34     8     3    1
    35    25    20   ar
    36    30    26    1
@<TRIPOS>MOLECULE
*****
 34 36 0 0 0
SMALL
GASTEIGER

@<TRIPOS>ATOM
      1 O           5.6315    0.0505   18.1339 O.2     1  UNL1       -0.2262
      2 C           4.1505   -0.1869   18.1215 C.2     1  UNL1        0.4054
      3 N           3.2044    0.9694   18.2558 N.am    1  UNL1       -0.2432
      4 C           1.7234    0.7319   18.2435 C.3     1  UNL1        0.1141
      5 C           0.7773    1.8882   18.3778 C.3     1  UNL1        0.0943
      6 N           1.3123    3.2818   18.5245 N.3     1  UNL1       -0.2659
      7 C           2.7933    3.5192   18.5368 C.3     1  UNL1        0.0943
      8 C           3.7394    2.3630   18.4025 C.3     1  UNL1        0.1141
      9 O           3.6156   -1.5805   17.9749 O.3     1  UNL1       -0.4205
     10 C           3.8270   -2.5841   19.0695 C.3     1  UNL1        0.3579
     11 C           4.2724   -3.9768   18.7344 C.3     1  UNL1        0.4429
     12 F           4.7177   -5.3694   18.3994 F       1  UNL1       -0.1661
     13 F           3.0952   -4.5325   19.4797 F       1  UNL1       -0.1661
     14 F           5.4495   -3.4211   17.9891 F       1  UNL1       -0.1661
     15 C           3.5930   -2.1951   20.4991 C.3     1  UNL1        0.4429
     16 F           3.3590   -1.8060   21.9287 F       1  UNL1       -0.1661
     17 F           2.1795   -1.8200   20.1657 F       1  UNL1       -0.1661
     18 F           5.0065   -2.5701   20.8325 F       1  UNL1       -0.1661
     19 C           0.3662    4.4381   18.6588 C.3     1  UNL1        0.1005
     20 C          -1.1147    4.1998   18.6544 C.ar    1  UNL1        0.0072
     21 C          -1.8844    4.2856   17.3697 C.ar    1  UNL1       -0.0017
     22 C          -3.3653    4.0473   17.3653 C.ar    1  UNL1        0.0037
     23 C          -4.0767    3.7233   18.6455 C.ar    1  UNL1        0.0726
     24 C          -3.3071    3.6375   19.9301 C.ar    1  UNL1        0.0181
     25 C          -1.8261    3.8758   19.9346 C.ar    1  UNL1        0.0451
     26 N          -1.0565    3.7900   21.2192 N.pl3   1  UNL1       -0.3077
     27 C          -0.4172    2.5559   21.7833 C.3     1  UNL1        0.0908
     28 C           0.2433    2.9264   23.0781 C.3     1  UNL1        0.0232
     29 C           0.0122    4.3896   23.3142 C.3     1  UNL1        0.0232
     30 C          -0.7911    4.9233   22.1654 C.3     1  UNL1        0.0908
     31 C          -5.5577    3.4850   18.6410 C.3     1  UNL1        0.4186
     32 F          -7.0386    3.2467   18.6366 F       1  UNL1       -0.1659
     33 F          -5.6574    4.1300   17.2905 F       1  UNL1       -0.1659
     34 F          -5.4579    2.8400   19.9916 F       1  UNL1       -0.1659
@<TRIPOS>BOND
     1     1     2    2
     2     2     9    1
     3     9    10    1
     4    10    11    1
     5    11    12    1
     6    11    13    1
     7    11    14    1
     8    10    15    1
     9    15    16    1
    10    15    17    1
    11    15    18    1
    12     2     3   am
    13     3     4    1
    14     4     5    1
    15     5     6    1
    16     6    19    1
    17    19    20    1
    18    20    21   ar
    19    21    22   ar
    20    22    23   ar
    21    23    31    1
    22    31    32    1
    23    31    33    1
    24    31    34    1
    25    23    24   ar
    26    24    25   ar
    27    25    26    1
    28    26    27    1
    29    27    28    1
    30    28    29    1
    31    29    30    1
    32     6     7    1
    33     7     8    1
    34     8     3    1
    35    25    20   ar
    36    30    26    1
@<TRIPOS>MOLECULE
*****
 34 36 0 0 0
SMALL
GASTEIGER

@<TRIPOS>ATOM
      1 O           5.6045   -0.0611   18.1094 O.2     1  UNL1       -0.2262
      2 C           4.1202   -0.2773   18.1187 C.2     1  UNL1        0.4054
      3 N           3.1922    0.8955   18.2355 N.am    1  UNL1       -0.2432
      4 C           1.7079    0.6793   18.2449 C.3     1  UNL1        0.1141
      5 C           0.7800    1.8521   18.3617 C.3     1  UNL1        0.0943
      6 N           1.3363    3.2409   18.4691 N.3     1  UNL1       -0.2659
      7 C           2.8206    3.4570   18.4598 C.3     1  UNL1        0.0943
      8 C           3.7486    2.2843   18.3430 C.3     1  UNL1        0.1141
      9 O           3.5638   -1.6661   18.0113 O.3     1  UNL1       -0.4205
     10 C           3.8251   -2.6650   19.0994 C.3     1  UNL1        0.3579
     11 C           3.6370   -2.2757   20.5358 C.3     1  UNL1        0.4429
     12 F           3.4489   -1.8864   21.9721 F       1  UNL1       -0.1661
     13 F           2.2365   -1.8324   20.2322 F       1  UNL1       -0.1661
     14 F           5.0374   -2.7190   20.8393 F       1  UNL1       -0.1661
     15 C           4.2743   -4.0531   18.7512 C.3     1  UNL1        0.4429
     16 F           4.7235   -5.4412   18.4030 F       1  UNL1       -0.1661
     17 F           3.0891   -4.6185   19.4761 F       1  UNL1       -0.1661
     18 F           5.4595   -3.4876   18.0263 F       1  UNL1       -0.1661
     19 C           0.4084    4.4136   18.5859 C.3     1  UNL1        0.1005
     20 C          -1.0761    4.1982   18.5875 C.ar    1  UNL1        0.0072
     21 C          -1.8445    4.2614   17.3008 C.ar    1  UNL1       -0.0017
     22 C          -3.3289    4.0459   17.3024 C.ar    1  UNL1        0.0037
     23 C          -4.0450    3.7673   18.5906 C.ar    1  UNL1        0.0726
     24 C          -3.2766    3.7041   19.8773 C.ar    1  UNL1        0.0181
     25 C          -1.7921    3.9195   19.8758 C.ar    1  UNL1        0.0451
     26 N          -1.0238    3.8563   21.1625 N.pl3   1  UNL1       -0.3077
     27 C          -0.7335    5.0119   22.0737 C.3     1  UNL1        0.0908
     28 C           0.0589    4.4962   23.2382 C.3     1  UNL1        0.0232
     29 C           0.2584    3.0219   23.0467 C.3     1  UNL1        0.0232
     30 C          -0.4107    2.6264   21.7638 C.3     1  UNL1        0.0908
     31 C          -5.5295    3.5518   18.5922 C.3     1  UNL1        0.4186
     32 F          -7.0139    3.3364   18.5937 F       1  UNL1       -0.1659
     33 F          -5.4269    2.8544   19.9162 F       1  UNL1       -0.1659
     34 F          -5.6320    4.2493   17.2682 F       1  UNL1       -0.1659
@<TRIPOS>BOND
     1     1     2    2
     2     2     9    1
     3     9    10    1
     4    10    11    1
     5    11    12    1
     6    11    13    1
     7    11    14    1
     8    10    15    1
     9    15    16    1
    10    15    17    1
    11    15    18    1
    12     2     3   am
    13     3     4    1
    14     4     5    1
    15     5     6    1
    16     6    19    1
    17    19    20    1
    18    20    21   ar
    19    21    22   ar
    20    22    23   ar
    21    23    31    1
    22    31    32    1
    23    31    33    1
    24    31    34    1
    25    23    24   ar
    26    24    25   ar
    27    25    26    1
    28    26    27    1
    29    27    28    1
    30    28    29    1
    31    29    30    1
    32     6     7    1
    33     7     8    1
    34     8     3    1
    35    25    20   ar
    36    30    26    1
@<TRIPOS>MOLECULE
*****
 34 36 0 0 0
SMALL
GASTEIGER

@<TRIPOS>ATOM
      1 O         -10.5811  -15.4153   20.8443 O.2     1  UNL1       -0.2262
      2 C         -10.4260  -16.4091   21.9571 C.2     1  UNL1        0.4054
      3 N          -9.1586  -17.2013   22.0840 N.am    1  UNL1       -0.2432
      4 C          -9.0036  -18.1950   23.1967 C.3     1  UNL1        0.1141
      5 C          -7.7361  -18.9873   23.3236 C.3     1  UNL1        0.0943
      6 N          -6.6238  -18.7857   22.3377 N.3     1  UNL1       -0.2659
      7 C          -6.7789  -17.7919   21.2249 C.3     1  UNL1        0.0943
      8 C          -8.0463  -16.9997   21.0980 C.3     1  UNL1        0.1141
      9 O         -11.5384  -16.6106   22.9430 O.3     1  UNL1       -0.4205
     10 C         -12.2628  -17.9229   22.9985 C.3     1  UNL1        0.3579
     11 C         -12.2129  -18.8573   21.8260 C.3     1  UNL1        0.4429
     12 F         -12.1630  -19.7916   20.6537 F       1  UNL1       -0.1661
     13 F         -12.9492  -17.8508   20.9926 F       1  UNL1       -0.1661
     14 F         -11.4766  -19.8638   22.6595 F       1  UNL1       -0.1661
     15 C         -13.0372  -18.3008   24.2262 C.3     1  UNL1        0.4429
     16 F         -13.8117  -18.6787   25.4540 F       1  UNL1       -0.1661
     17 F         -11.7554  -18.4335   24.9938 F       1  UNL1       -0.1661
     18 F         -14.3191  -18.1681   23.4586 F       1  UNL1       -0.1661
     19 C          -5.3564  -19.5779   22.4645 C.3     1  UNL1        0.1005
     20 C          -4.0735  -19.0345   21.9090 C.ar    1  UNL1        0.0072
     21 C          -3.4087  -19.7177   20.7508 C.ar    1  UNL1       -0.0017
     22 C          -2.1257  -19.1743   20.1953 C.ar    1  UNL1        0.0037
     23 C          -1.5076  -17.9476   20.7978 C.ar    1  UNL1        0.0726
     24 C          -2.1723  -17.2643   21.9559 C.ar    1  UNL1        0.0181
     25 C          -3.4553  -17.8077   22.5115 C.ar    1  UNL1        0.0451
     26 N          -4.1201  -17.1245   23.6696 N.pl3   1  UNL1       -0.3077
     27 C          -3.9691  -17.4932   25.1157 C.3     1  UNL1        0.0908
     28 C          -4.8083  -16.5491   25.9247 C.3     1  UNL1        0.0232
     29 C          -5.4779  -15.5969   24.9786 C.3     1  UNL1        0.0232
     30 C          -5.0525  -15.9525   23.5849 C.3     1  UNL1        0.0908
     31 C          -0.2245  -17.4041   20.2422 C.3     1  UNL1        0.4186
     32 F           1.0584  -16.8608   19.6865 F       1  UNL1       -0.1659
     33 F          -0.5864  -16.0374   20.7431 F       1  UNL1       -0.1659
     34 F           0.1374  -18.7709   19.7412 F       1  UNL1       -0.1659
@<TRIPOS>BOND
     1     1     2    2
     2     2     9    1
     3     9    10    1
     4    10    11    1
     5    11    12    1
     6    11    13    1
     7    11    14    1
     8    10    15    1
     9    15    16    1
    10    15    17    1
    11    15    18    1
    12     2     3   am
    13     3     4    1
    14     4     5    1
    15     5     6    1
    16     6    19    1
    17    19    20    1
    18    20    21   ar
    19    21    22   ar
    20    22    23   ar
    21    23    31    1
    22    31    32    1
    23    31    33    1
    24    31    34    1
    25    23    24   ar
    26    24    25   ar
    27    25    26    1
    28    26    27    1
    29    27    28    1
    30    28    29    1
    31    29    30    1
    32     6     7    1
    33     7     8    1
    34     8     3    1
    35    25    20   ar
    36    30    26    1
@<TRIPOS>MOLECULE
*****
 34 36 0 0 0
SMALL
GASTEIGER

@<TRIPOS>ATOM
      1 O           5.6452    0.1587   18.3613 O.2     1  UNL1       -0.2262
      2 C           4.1838   -0.1571   18.2419 C.2     1  UNL1        0.4054
      3 N           3.1668    0.9379   18.3709 N.am    1  UNL1       -0.2432
      4 C           1.7053    0.6221   18.2515 C.3     1  UNL1        0.1141
      5 C           0.6884    1.7172   18.3805 C.3     1  UNL1        0.0943
      6 N           1.1329    3.1281   18.6288 N.3     1  UNL1       -0.2659
      7 C           2.5944    3.4439   18.7482 C.3     1  UNL1        0.0943
      8 C           3.6113    2.3488   18.6192 C.3     1  UNL1        0.1141
      9 O           3.7393   -1.5680   17.9935 O.3     1  UNL1       -0.4205
     10 C           3.9010   -2.6050   19.0652 C.3     1  UNL1        0.3579
     11 C           4.3342   -3.9951   18.7045 C.3     1  UNL1        0.4429
     12 F           4.7675   -5.3851   18.3438 F       1  UNL1       -0.1661
     13 F           5.5567   -3.4404   18.0354 F       1  UNL1       -0.1661
     14 F           3.1117   -4.5498   19.3736 F       1  UNL1       -0.1661
     15 C           3.6296   -2.2519   20.4976 C.3     1  UNL1        0.4429
     16 F           3.3581   -1.8989   21.9299 F       1  UNL1       -0.1661
     17 F           5.0393   -2.6189   20.8552 F       1  UNL1       -0.1661
     18 F           2.2198   -1.8849   20.1399 F       1  UNL1       -0.1661
     19 C           0.1159    4.2231   18.7578 C.3     1  UNL1        0.1005
     20 C          -1.1109    4.0126   19.5948 C.ar    1  UNL1        0.0072
     21 C          -2.4668    4.0202   18.9534 C.ar    1  UNL1       -0.0017
     22 C          -3.6936    3.8096   19.7904 C.ar    1  UNL1        0.0037
     23 C          -3.5645    3.5915   21.2688 C.ar    1  UNL1        0.0726
     24 C          -2.2087    3.5840   21.9102 C.ar    1  UNL1        0.0181
     25 C          -0.9818    3.7945   21.0732 C.ar    1  UNL1        0.0451
     26 N           0.3741    3.7869   21.7147 N.pl3   1  UNL1       -0.3077
     27 C           1.1507    2.5695   22.1205 C.3     1  UNL1        0.0908
     28 C           2.4480    3.0255   22.7195 C.3     1  UNL1        0.0232
     29 C           2.4733    4.5250   22.6839 C.3     1  UNL1        0.0232
     30 C           1.1915    4.9955   22.0629 C.3     1  UNL1        0.0908
     31 C          -4.7914    3.3810   22.1058 C.3     1  UNL1        0.4186
     32 F          -6.0182    3.1705   22.9428 F       1  UNL1       -0.1659
     33 F          -5.6524    3.5788   20.8936 F       1  UNL1       -0.1659
     34 F          -3.9304    3.1832   23.3180 F       1  UNL1       -0.1659
@<TRIPOS>BOND
     1     1     2    2
     2     2     9    1
     3     9    10    1
     4    10    11    1
     5    11    12    1
     6    11    13    1
     7    11    14    1
     8    10    15    1
     9    15    16    1
    10    15    17    1
    11    15    18    1
    12     2     3   am
    13     3     4    1
    14     4     5    1
    15     5     6    1
    16     6    19    1
    17    19    20    1
    18    20    21   ar
    19    21    22   ar
    20    22    23   ar
    21    23    31    1
    22    31    32    1
    23    31    33    1
    24    31    34    1
    25    23    24   ar
    26    24    25   ar
    27    25    26    1
    28    26    27    1
    29    27    28    1
    30    28    29    1
    31    29    30    1
    32     6     7    1
    33     7     8    1
    34     8     3    1
    35    25    20   ar
    36    30    26    1
