@<TRIPOS>MOLECULE
*****
 32 35 0 0 0
SMALL
GASTEIGER

@<TRIPOS>ATOM
      1 C          -1.1341    3.6970   20.2395 C.2     1  UNL1        0.2534
      2 O          -0.0083    3.9708   21.1923 O.2     1  UNL1       -0.2695
      3 N          -0.8410    3.1942   18.8570 N.am    1  UNL1       -0.2965
      4 H          -1.5799    3.0145   18.2317 H       1  UNL1        0.1501
      5 C          -8.0371    4.5906   23.8690 C.3     1  UNL1        0.0537
      6 C          -7.0010    4.5335   22.7859 C.ar    1  UNL1        0.0771
      7 N          -7.3861    4.8159   21.3640 N.ar    1  UNL1       -0.1522
      8 N          -6.3500    4.7588   20.2808 N.ar    1  UNL1       -0.1416
      9 C          -4.9287    4.4194   20.6196 C.ar    1  UNL1        0.1333
     10 S          -3.6984    4.2889   19.7715 S.2     1  UNL1       -0.0604
     11 C          -2.5529    3.9259   20.6693 C.ar    1  UNL1        0.0971
     12 C          -3.0752    3.8320   22.0723 C.ar    1  UNL1        0.0538
     13 N          -2.2705    3.4927   23.2918 N.pl3   1  UNL1       -0.3564
     14 C          -4.5436    4.1370   22.0415 C.ar    1  UNL1        0.0363
     15 C          -5.5797    4.1941   23.1247 C.ar    1  UNL1       -0.0033
     16 C          -5.1946    3.9117   24.5466 C.3     1  UNL1        0.0324
     17 H          -1.3071    3.3072   23.2100 H       1  UNL1        0.1424
     18 H          -2.7058    3.4555   24.1741 H       1  UNL1        0.1424
     19 C           0.5777    2.9653   18.4273 C.3     1  UNL1        0.1166
     20 C           1.2895    1.7076   18.8293 C.ar    1  UNL1       -0.0026
     21 C           0.5955    0.6963   19.6928 C.ar    1  UNL1       -0.0026
     22 C           1.3074   -0.5613   20.0947 C.ar    1  UNL1       -0.0003
     23 C           2.7132   -0.8077   19.6332 C.ar    1  UNL1        0.0002
     24 C           3.4072    0.2036   18.7698 C.ar    1  UNL1       -0.0003
     25 C           2.6954    1.4613   18.3678 C.ar    1  UNL1       -0.0026
     26 C           3.4250   -2.0654   20.0352 C.ar    1  UNL1        0.0054
     27 C           3.8480   -2.2650   21.4604 C.ar    1  UNL1        0.0208
     28 C           4.5598   -3.5227   21.8624 C.ar    1  UNL1        0.1013
     29 N           4.8486   -4.5808   20.8392 N.ar    1  UNL1       -0.2165
     30 C           4.4255   -4.3811   19.4139 C.ar    1  UNL1        0.2223
     31 F           4.7143   -5.4392   18.3907 F       1  UNL1       -0.1832
     32 C           3.7138   -3.1235   19.0120 C.ar    1  UNL1        0.0497
@<TRIPOS>BOND
     1     5     6    1
     2     6     7   ar
     3     7     8   ar
     4     8     9   ar
     5     9    10   ar
     6    10    11   ar
     7    11     1    1
     8     1     2    2
     9     1     3   am
    10     3    19    1
    11    19    20    1
    12    20    21   ar
    13    21    22   ar
    14    22    23   ar
    15    23    26    1
    16    26    27   ar
    17    27    28   ar
    18    28    29   ar
    19    29    30   ar
    20    30    31    1
    21    30    32   ar
    22    23    24   ar
    23    24    25   ar
    24    11    12   ar
    25    12    13    1
    26    12    14   ar
    27    14    15   ar
    28    15    16    1
    29    15     6   ar
    30    14     9   ar
    31    25    20   ar
    32    32    26   ar
    33     3     4    1
    34    13    17    1
    35    13    18    1
@<TRIPOS>MOLECULE
*****
 32 35 0 0 0
SMALL
GASTEIGER

@<TRIPOS>ATOM
      1 C          -2.6181    3.2955   21.7287 C.2     1  UNL1        0.2534
      2 O          -3.4569    2.9442   20.5358 O.2     1  UNL1       -0.2695
      3 N          -1.1261    3.1550   21.6640 N.am    1  UNL1       -0.2965
      4 H          -0.5756    3.3856   22.4469 H       1  UNL1        0.1501
      5 C          -7.1389    6.3215   27.3882 C.3     1  UNL1        0.0537
      6 C          -5.9905    5.6455   26.6995 C.ar    1  UNL1        0.0771
      7 N          -4.8250    5.1452   27.5004 N.ar    1  UNL1       -0.1522
      8 N          -3.6767    4.4693   26.8117 N.ar    1  UNL1       -0.1416
      9 C          -3.6937    4.2936   25.3221 C.ar    1  UNL1        0.1333
     10 S          -2.7124    3.6714   24.3735 S.2     1  UNL1       -0.0604
     11 C          -3.2713    3.7872   22.9864 C.ar    1  UNL1        0.0971
     12 C          -4.5981    4.4809   23.0776 C.ar    1  UNL1        0.0538
     13 N          -5.5047    4.8048   21.9274 N.pl3   1  UNL1       -0.3564
     14 C          -4.8591    4.7939   24.5213 C.ar    1  UNL1        0.0363
     15 C          -6.0075    5.4699   25.2100 C.ar    1  UNL1       -0.0033
     16 C          -7.1730    5.9702   24.4090 C.3     1  UNL1        0.0324
     17 H          -5.2444    4.5575   21.0107 H       1  UNL1        0.1424
     18 H          -6.3600    5.2648   22.0891 H       1  UNL1        0.1424
     19 C          -0.4730    2.6634   20.4064 C.3     1  UNL1        0.1166
     20 C           0.4725    1.4999   20.4577 C.ar    1  UNL1       -0.0026
     21 C           0.9246    0.8443   19.1866 C.ar    1  UNL1       -0.0026
     22 C           1.8700   -0.3191   19.2380 C.ar    1  UNL1       -0.0003
     23 C           2.3633   -0.8269   20.5604 C.ar    1  UNL1        0.0002
     24 C           1.9111   -0.1713   21.8315 C.ar    1  UNL1       -0.0003
     25 C           0.9657    0.9921   21.7802 C.ar    1  UNL1       -0.0026
     26 C           3.3087   -1.9903   20.6118 C.ar    1  UNL1        0.0054
     27 C           4.1166   -2.2462   21.8494 C.ar    1  UNL1        0.0208
     28 C           5.0620   -3.4097   21.9007 C.ar    1  UNL1        0.1013
     29 N           5.1996   -4.3172   20.7143 N.ar    1  UNL1       -0.2165
     30 C           4.3917   -4.0612   19.4766 C.ar    1  UNL1        0.2223
     31 F           4.5292   -4.9687   18.2902 F       1  UNL1       -0.1832
     32 C           3.4463   -2.8978   19.4254 C.ar    1  UNL1        0.0497
@<TRIPOS>BOND
     1     5     6    1
     2     6     7   ar
     3     7     8   ar
     4     8     9   ar
     5     9    10   ar
     6    10    11   ar
     7    11     1    1
     8     1     2    2
     9     1     3   am
    10     3    19    1
    11    19    20    1
    12    20    21   ar
    13    21    22   ar
    14    22    23   ar
    15    23    26    1
    16    26    27   ar
    17    27    28   ar
    18    28    29   ar
    19    29    30   ar
    20    30    31    1
    21    30    32   ar
    22    23    24   ar
    23    24    25   ar
    24    11    12   ar
    25    12    13    1
    26    12    14   ar
    27    14    15   ar
    28    15    16    1
    29    15     6   ar
    30    14     9   ar
    31    25    20   ar
    32    32    26   ar
    33     3     4    1
    34    13    17    1
    35    13    18    1
@<TRIPOS>MOLECULE
*****
 32 35 0 0 0
SMALL
GASTEIGER

@<TRIPOS>ATOM
      1 C           0.5428    1.0082   27.4550 C.2     1  UNL1        0.2534
      2 O          -0.9396    1.2321   27.4053 O.2     1  UNL1       -0.2695
      3 N           1.3429    0.9988   26.1863 N.am    1  UNL1       -0.2965
      4 H           2.3158    0.8519   26.2189 H       1  UNL1        0.1501
      5 C           3.7272    1.3178   34.6236 C.3     1  UNL1        0.0537
      6 C           3.2966    0.7980   33.2840 C.ar    1  UNL1        0.0771
      7 N           3.6172   -0.6130   32.8886 N.ar    1  UNL1       -0.1522
      8 N           3.1866   -1.1328   31.5491 N.ar    1  UNL1       -0.1416
      9 C           2.4354   -0.2416   30.6049 C.ar    1  UNL1        0.1333
     10 S           1.8856   -0.4737   29.2288 S.2     1  UNL1       -0.0604
     11 C           1.2251    0.7939   28.7736 C.ar    1  UNL1        0.0971
     12 C           1.3668    1.8093   29.8684 C.ar    1  UNL1        0.0538
     13 N           0.8511    3.2175   29.8370 N.pl3   1  UNL1       -0.3564
     14 C           2.1148    1.1693   31.0003 C.ar    1  UNL1        0.0363
     15 C           2.5454    1.6891   32.3398 C.ar    1  UNL1       -0.0033
     16 C           2.2248    3.1002   32.7352 C.3     1  UNL1        0.0324
     17 H           0.3693    3.5477   29.0445 H       1  UNL1        0.1424
     18 H           0.9943    3.8116   30.6089 H       1  UNL1        0.1424
     19 C           0.6605    1.2132   24.8678 C.3     1  UNL1        0.1166
     20 C           1.2966    0.7141   23.6042 C.ar    1  UNL1       -0.0026
     21 C           0.6987    1.0654   22.2742 C.ar    1  UNL1       -0.0026
     22 C           1.3347    0.5664   21.0107 C.ar    1  UNL1       -0.0003
     23 C           2.5686   -0.2839   21.0773 C.ar    1  UNL1        0.0002
     24 C           3.1665   -0.6352   22.4073 C.ar    1  UNL1       -0.0003
     25 C           2.5305   -0.1362   23.6708 C.ar    1  UNL1       -0.0026
     26 C           3.2046   -0.7829   19.8137 C.ar    1  UNL1        0.0054
     27 C           3.2819    0.1088   18.6101 C.ar    1  UNL1        0.0208
     28 C           3.9180   -0.3902   17.3465 C.ar    1  UNL1        0.1013
     29 N           4.4767   -1.7810   17.2867 N.ar    1  UNL1       -0.2165
     30 C           4.3993   -2.6728   18.4904 C.ar    1  UNL1        0.2223
     31 F           4.9580   -4.0636   18.4306 F       1  UNL1       -0.1832
     32 C           3.7633   -2.1737   19.7539 C.ar    1  UNL1        0.0497
@<TRIPOS>BOND
     1     5     6    1
     2     6     7   ar
     3     7     8   ar
     4     8     9   ar
     5     9    10   ar
     6    10    11   ar
     7    11     1    1
     8     1     2    2
     9     1     3   am
    10     3    19    1
    11    19    20    1
    12    20    21   ar
    13    21    22   ar
    14    22    23   ar
    15    23    26    1
    16    26    27   ar
    17    27    28   ar
    18    28    29   ar
    19    29    30   ar
    20    30    31    1
    21    30    32   ar
    22    23    24   ar
    23    24    25   ar
    24    11    12   ar
    25    12    13    1
    26    12    14   ar
    27    14    15   ar
    28    15    16    1
    29    15     6   ar
    30    14     9   ar
    31    25    20   ar
    32    32    26   ar
    33     3     4    1
    34    13    17    1
    35    13    18    1
@<TRIPOS>MOLECULE
*****
 32 35 0 0 0
SMALL
GASTEIGER

@<TRIPOS>ATOM
      1 C          -2.2748    3.2073   25.1731 C.2     1  UNL1        0.2534
      2 O          -1.8622    2.9832   26.5977 O.2     1  UNL1       -0.2695
      3 N          -1.3185    2.9025   24.0585 N.am    1  UNL1       -0.2965
      4 H          -1.5893    3.0496   23.1235 H       1  UNL1        0.1501
      5 C          -9.3742    6.5494   24.9428 C.3     1  UNL1        0.0537
      6 C          -8.1552    5.7788   24.5303 C.ar    1  UNL1        0.0771
      7 N          -8.0883    5.1537   23.1684 N.ar    1  UNL1       -0.1522
      8 N          -6.8693    4.3831   22.7559 N.ar    1  UNL1       -0.1416
      9 C          -5.7172    4.2376   23.7052 C.ar    1  UNL1        0.1333
     10 S          -4.3945    3.5414   23.5792 S.2     1  UNL1       -0.0604
     11 C          -3.6439    3.7363   24.8632 C.ar    1  UNL1        0.0971
     12 C          -4.5026    4.5529   25.7828 C.ar    1  UNL1        0.0538
     13 N          -4.1432    4.9840   27.1738 N.pl3   1  UNL1       -0.3564
     14 C          -5.7840    4.8627   25.0671 C.ar    1  UNL1        0.0363
     15 C          -7.0030    5.6333   25.4796 C.ar    1  UNL1       -0.0033
     16 C          -7.0698    6.2584   26.8416 C.3     1  UNL1        0.0324
     17 H          -3.2734    4.7297   27.5587 H       1  UNL1        0.1424
     18 H          -4.7770    5.5211   27.7019 H       1  UNL1        0.1424
     19 C           0.0505    2.3736   24.3684 C.3     1  UNL1        0.1166
     20 C           0.7897    1.5611   23.3469 C.ar    1  UNL1       -0.0026
     21 C           2.0517    0.8455   23.7279 C.ar    1  UNL1       -0.0026
     22 C           2.7908    0.0331   22.7064 C.ar    1  UNL1       -0.0003
     23 C           2.2679   -0.0637   21.3038 C.ar    1  UNL1        0.0002
     24 C           1.0059    0.6519   20.9228 C.ar    1  UNL1       -0.0003
     25 C           0.2668    1.4643   21.9443 C.ar    1  UNL1       -0.0026
     26 C           3.0071   -0.8762   20.2822 C.ar    1  UNL1        0.0054
     27 C           3.7017   -2.1416   20.6899 C.ar    1  UNL1        0.0208
     28 C           4.4409   -2.9541   19.6684 C.ar    1  UNL1        0.1013
     29 N           4.4855   -2.5011   18.2391 N.ar    1  UNL1       -0.2165
     30 C           3.7908   -1.2356   17.8314 C.ar    1  UNL1        0.2223
     31 F           3.8354   -0.7827   16.4021 F       1  UNL1       -0.1832
     32 C           3.0517   -0.4232   18.8529 C.ar    1  UNL1        0.0497
@<TRIPOS>BOND
     1     5     6    1
     2     6     7   ar
     3     7     8   ar
     4     8     9   ar
     5     9    10   ar
     6    10    11   ar
     7    11     1    1
     8     1     2    2
     9     1     3   am
    10     3    19    1
    11    19    20    1
    12    20    21   ar
    13    21    22   ar
    14    22    23   ar
    15    23    26    1
    16    26    27   ar
    17    27    28   ar
    18    28    29   ar
    19    29    30   ar
    20    30    31    1
    21    30    32   ar
    22    23    24   ar
    23    24    25   ar
    24    11    12   ar
    25    12    13    1
    26    12    14   ar
    27    14    15   ar
    28    15    16    1
    29    15     6   ar
    30    14     9   ar
    31    25    20   ar
    32    32    26   ar
    33     3     4    1
    34    13    17    1
    35    13    18    1
@<TRIPOS>MOLECULE
*****
 32 35 0 0 0
SMALL
GASTEIGER

@<TRIPOS>ATOM
      1 C           2.8506    0.6443   24.6669 C.2     1  UNL1        0.2534
      2 O           3.2558    2.0612   24.3877 O.2     1  UNL1       -0.2695
      3 N           1.9262    0.3396   25.8082 N.am    1  UNL1       -0.2965
      4 H           1.6602   -0.5904   25.9915 H       1  UNL1        0.1501
      5 C           4.7797   -4.5025   19.0621 C.3     1  UNL1        0.0537
      6 C           4.6990   -3.8228   20.3969 C.ar    1  UNL1        0.0771
      7 N           5.4369   -4.3900   21.5732 N.ar    1  UNL1       -0.1522
      8 N           5.3562   -3.7104   22.9079 N.ar    1  UNL1       -0.1416
      9 C           4.5377   -2.4634   23.0664 C.ar    1  UNL1        0.1333
     10 S           4.2719   -1.5808   24.2497 S.2     1  UNL1       -0.0604
     11 C           3.3697   -0.4681   23.8048 C.ar    1  UNL1        0.0971
     12 C           3.0779   -0.6630   22.3464 C.ar    1  UNL1        0.0538
     13 N           2.2157    0.2202   21.4941 N.pl3   1  UNL1       -0.3564
     14 C           3.7998   -1.8962   21.8901 C.ar    1  UNL1        0.0363
     15 C           3.8804   -2.5759   20.5553 C.ar    1  UNL1       -0.0033
     16 C           3.1425   -2.0086   19.3790 C.3     1  UNL1        0.0324
     17 H           1.7817    1.0117   21.8870 H       1  UNL1        0.1424
     18 H           2.0838    0.0084   20.5417 H       1  UNL1        0.1424
     19 C           1.4071    1.4519   26.6703 C.3     1  UNL1        0.1166
     20 C           0.0678    2.0625   26.3810 C.ar    1  UNL1       -0.0026
     21 C          -0.9121    2.2835   27.4949 C.ar    1  UNL1       -0.0026
     22 C          -2.2513    2.8940   27.2056 C.ar    1  UNL1       -0.0003
     23 C          -2.6106    3.2836   25.8024 C.ar    1  UNL1        0.0002
     24 C          -1.6307    3.0627   24.6884 C.ar    1  UNL1       -0.0003
     25 C          -0.2915    2.4521   24.9777 C.ar    1  UNL1       -0.0026
     26 C          -3.9499    3.8942   25.5131 C.ar    1  UNL1        0.0054
     27 C          -4.5525    4.8720   26.4778 C.ar    1  UNL1        0.0208
     28 C          -5.8918    5.4826   26.1885 C.ar    1  UNL1        0.1013
     29 N          -6.6283    5.1153   24.9345 N.ar    1  UNL1       -0.2165
     30 C          -6.0256    4.1375   23.9697 C.ar    1  UNL1        0.2223
     31 F          -6.7622    3.7702   22.7157 F       1  UNL1       -0.1832
     32 C          -4.6864    3.5270   24.2590 C.ar    1  UNL1        0.0497
@<TRIPOS>BOND
     1     5     6    1
     2     6     7   ar
     3     7     8   ar
     4     8     9   ar
     5     9    10   ar
     6    10    11   ar
     7    11     1    1
     8     1     2    2
     9     1     3   am
    10     3    19    1
    11    19    20    1
    12    20    21   ar
    13    21    22   ar
    14    22    23   ar
    15    23    26    1
    16    26    27   ar
    17    27    28   ar
    18    28    29   ar
    19    29    30   ar
    20    30    31    1
    21    30    32   ar
    22    23    24   ar
    23    24    25   ar
    24    11    12   ar
    25    12    13    1
    26    12    14   ar
    27    14    15   ar
    28    15    16    1
    29    15     6   ar
    30    14     9   ar
    31    25    20   ar
    32    32    26   ar
    33     3     4    1
    34    13    17    1
    35    13    18    1
@<TRIPOS>MOLECULE
*****
 32 35 0 0 0
SMALL
GASTEIGER

@<TRIPOS>ATOM
      1 C           6.7888   -4.7654   30.3358 C.2     1  UNL1        0.2534
      2 O           7.0748   -5.8245   31.3589 O.2     1  UNL1       -0.2695
      3 N           6.2742   -3.4245   30.7682 N.am    1  UNL1       -0.2965
      4 H           6.0865   -2.7294   30.0967 H       1  UNL1        0.1501
      5 C           8.8258   -7.3860   23.2220 C.3     1  UNL1        0.0537
      6 C           8.1965   -6.5557   24.3011 C.ar    1  UNL1        0.0771
      7 N           7.3338   -5.3834   23.9385 N.ar    1  UNL1       -0.1522
      8 N           6.7045   -4.5531   25.0177 N.ar    1  UNL1       -0.1416
      9 C           6.9379   -4.8951   26.4594 C.ar    1  UNL1        0.1333
     10 S           6.4539   -4.2647   27.7315 S.2     1  UNL1       -0.0604
     11 C           7.0174   -5.0474   28.8803 C.ar    1  UNL1        0.0971
     12 C           7.8497   -6.1615   28.3182 C.ar    1  UNL1        0.0538
     13 N           8.5995   -7.1893   29.1128 N.pl3   1  UNL1       -0.3564
     14 C           7.8005   -6.0674   26.8219 C.ar    1  UNL1        0.0363
     15 C           8.4298   -6.8977   25.7428 C.ar    1  UNL1       -0.0033
     16 C           9.2925   -8.0700   26.1055 C.3     1  UNL1        0.0324
     17 H           8.5705   -7.1683   30.0966 H       1  UNL1        0.1424
     18 H           9.1207   -7.8850   28.6505 H       1  UNL1        0.1424
     19 C           6.0456   -3.1426   32.2235 C.3     1  UNL1        0.1166
     20 C           5.2687   -1.9286   32.6394 C.ar    1  UNL1       -0.0026
     21 C           5.5177   -1.3014   33.9790 C.ar    1  UNL1       -0.0026
     22 C           4.7409   -0.0875   34.3948 C.ar    1  UNL1       -0.0003
     23 C           3.7151    0.4993   33.4709 C.ar    1  UNL1        0.0002
     24 C           3.4662   -0.1279   32.1313 C.ar    1  UNL1       -0.0003
     25 C           4.2430   -1.3418   31.7155 C.ar    1  UNL1       -0.0026
     26 C           2.9383    1.7133   33.8867 C.ar    1  UNL1        0.0054
     27 C           2.0711    2.4259   32.8917 C.ar    1  UNL1        0.0208
     28 C           1.2943    3.6399   33.3076 C.ar    1  UNL1        0.1013
     29 N           1.3847    4.1412   34.7184 N.ar    1  UNL1       -0.2165
     30 C           2.2520    3.4285   35.7135 C.ar    1  UNL1        0.2223
     31 F           2.3424    3.9298   37.1243 F       1  UNL1       -0.1832
     32 C           3.0287    2.2146   35.2976 C.ar    1  UNL1        0.0497
@<TRIPOS>BOND
     1     5     6    1
     2     6     7   ar
     3     7     8   ar
     4     8     9   ar
     5     9    10   ar
     6    10    11   ar
     7    11     1    1
     8     1     2    2
     9     1     3   am
    10     3    19    1
    11    19    20    1
    12    20    21   ar
    13    21    22   ar
    14    22    23   ar
    15    23    26    1
    16    26    27   ar
    17    27    28   ar
    18    28    29   ar
    19    29    30   ar
    20    30    31    1
    21    30    32   ar
    22    23    24   ar
    23    24    25   ar
    24    11    12   ar
    25    12    13    1
    26    12    14   ar
    27    14    15   ar
    28    15    16    1
    29    15     6   ar
    30    14     9   ar
    31    25    20   ar
    32    32    26   ar
    33     3     4    1
    34    13    17    1
    35    13    18    1
@<TRIPOS>MOLECULE
*****
 32 35 0 0 0
SMALL
GASTEIGER

@<TRIPOS>ATOM
      1 C           6.4720   -3.9811   24.3083 C.2     1  UNL1        0.2534
      2 O           7.6691   -4.1114   23.4139 O.2     1  UNL1       -0.2695
      3 N           5.1373   -3.6199   23.7270 N.am    1  UNL1       -0.2965
      4 H           4.3516   -3.5344   24.3140 H       1  UNL1        0.1501
      5 C           6.7908   -3.7419   32.1483 C.3     1  UNL1        0.0537
      6 C           6.8659   -4.2546   30.7406 C.ar    1  UNL1        0.0771
      7 N           7.2545   -5.6800   30.4813 N.ar    1  UNL1       -0.1522
      8 N           7.3295   -6.1927   29.0736 N.ar    1  UNL1       -0.1416
      9 C           7.0160   -5.2801   27.9253 C.ar    1  UNL1        0.1333
     10 S           7.0051   -5.5009   26.4417 S.2     1  UNL1       -0.0604
     11 C           6.6097   -4.2120   25.7841 C.ar    1  UNL1        0.0971
     12 C           6.3763   -3.1946   26.8612 C.ar    1  UNL1        0.0538
     13 N           5.9641   -1.7676   26.6519 N.pl3   1  UNL1       -0.3564
     14 C           6.6274   -3.8547   28.1846 C.ar    1  UNL1        0.0363
     15 C           6.5523   -3.3420   29.5923 C.ar    1  UNL1       -0.0033
     16 C           6.1637   -1.9166   29.8516 C.3     1  UNL1        0.0324
     17 H           5.8227   -1.4248   25.7399 H       1  UNL1        0.1424
     18 H           5.8351   -1.1738   27.4265 H       1  UNL1        0.1424
     19 C           4.9996   -3.3890   22.2513 C.3     1  UNL1        0.1166
     20 C           4.0659   -2.3315   21.7415 C.ar    1  UNL1       -0.0026
     21 C           3.6752   -2.3107   20.2935 C.ar    1  UNL1       -0.0026
     22 C           2.7416   -1.2532   19.7837 C.ar    1  UNL1       -0.0003
     23 C           2.1986   -0.2164   20.7220 C.ar    1  UNL1        0.0002
     24 C           2.5893   -0.2372   22.1700 C.ar    1  UNL1       -0.0003
     25 C           3.5230   -1.2947   22.6798 C.ar    1  UNL1       -0.0026
     26 C           1.2649    0.8411   20.2122 C.ar    1  UNL1        0.0054
     27 C           1.3825    1.3270   18.7980 C.ar    1  UNL1        0.0208
     28 C           0.4488    2.3846   18.2881 C.ar    1  UNL1        0.1013
     29 N          -0.6025    2.9562   19.1926 N.ar    1  UNL1       -0.2165
     30 C          -0.7200    2.4702   20.6069 C.ar    1  UNL1        0.2223
     31 F          -1.7713    3.0419   21.5113 F       1  UNL1       -0.1832
     32 C           0.2136    1.4127   21.1166 C.ar    1  UNL1        0.0497
@<TRIPOS>BOND
     1     5     6    1
     2     6     7   ar
     3     7     8   ar
     4     8     9   ar
     5     9    10   ar
     6    10    11   ar
     7    11     1    1
     8     1     2    2
     9     1     3   am
    10     3    19    1
    11    19    20    1
    12    20    21   ar
    13    21    22   ar
    14    22    23   ar
    15    23    26    1
    16    26    27   ar
    17    27    28   ar
    18    28    29   ar
    19    29    30   ar
    20    30    31    1
    21    30    32   ar
    22    23    24   ar
    23    24    25   ar
    24    11    12   ar
    25    12    13    1
    26    12    14   ar
    27    14    15   ar
    28    15    16    1
    29    15     6   ar
    30    14     9   ar
    31    25    20   ar
    32    32    26   ar
    33     3     4    1
    34    13    17    1
    35    13    18    1
@<TRIPOS>MOLECULE
*****
 32 35 0 0 0
SMALL
GASTEIGER

@<TRIPOS>ATOM
      1 C           7.1286   -4.1999   26.0082 C.2     1  UNL1        0.2534
      2 O           8.5299   -3.7657   26.3214 O.2     1  UNL1       -0.2695
      3 N           6.3387   -4.9730   27.0221 N.am    1  UNL1       -0.2965
      4 H           5.4190   -5.2580   26.8166 H       1  UNL1        0.1501
      5 C           3.0519   -1.5017   19.8662 C.3     1  UNL1        0.0537
      6 C           4.0497   -2.2737   20.6776 C.ar    1  UNL1        0.0771
      7 N           4.9866   -3.2304   20.0018 N.ar    1  UNL1       -0.1522
      8 N           5.9844   -4.0024   20.8133 N.ar    1  UNL1       -0.1416
      9 C           6.0453   -3.8176   22.3006 C.ar    1  UNL1        0.1333
     10 S           6.9161   -4.4356   23.3540 S.2     1  UNL1       -0.0604
     11 C           6.5174   -3.8608   24.6809 C.ar    1  UNL1        0.0971
     12 C           5.4001   -2.8876   24.4476 C.ar    1  UNL1        0.0538
     13 N           4.6979   -2.0824   25.5005 N.pl3   1  UNL1       -0.3564
     14 C           5.1084   -2.8609   22.9764 C.ar    1  UNL1        0.0363
     15 C           4.1106   -2.0889   22.1649 C.ar    1  UNL1       -0.0033
     16 C           3.1737   -1.1321   22.8408 C.3     1  UNL1        0.0324
     17 H           4.9625   -2.1694   26.4448 H       1  UNL1        0.1424
     18 H           3.9725   -1.4668   25.2472 H       1  UNL1        0.1424
     19 C           6.9500   -5.3120   28.3493 C.3     1  UNL1        0.1166
     20 C           6.7467   -4.4008   29.5234 C.ar    1  UNL1       -0.0026
     21 C           6.3506   -2.9709   29.3032 C.ar    1  UNL1       -0.0026
     22 C           6.1474   -2.0597   30.4773 C.ar    1  UNL1       -0.0003
     23 C           6.3402   -2.5785   31.8714 C.ar    1  UNL1        0.0002
     24 C           6.7363   -4.0083   32.0916 C.ar    1  UNL1       -0.0003
     25 C           6.9395   -4.9195   30.9175 C.ar    1  UNL1       -0.0026
     26 C           6.1369   -1.6672   33.0455 C.ar    1  UNL1        0.0054
     27 C           4.8284   -1.6693   33.7788 C.ar    1  UNL1        0.0208
     28 C           4.6251   -0.7580   34.9529 C.ar    1  UNL1        0.1013
     29 N           5.7304    0.1553   35.3936 N.ar    1  UNL1       -0.2165
     30 C           7.0390    0.1573   34.6603 C.ar    1  UNL1        0.2223
     31 F           8.1442    1.0706   35.1010 F       1  UNL1       -0.1832
     32 C           7.2422   -0.7539   33.4862 C.ar    1  UNL1        0.0497
@<TRIPOS>BOND
     1     5     6    1
     2     6     7   ar
     3     7     8   ar
     4     8     9   ar
     5     9    10   ar
     6    10    11   ar
     7    11     1    1
     8     1     2    2
     9     1     3   am
    10     3    19    1
    11    19    20    1
    12    20    21   ar
    13    21    22   ar
    14    22    23   ar
    15    23    26    1
    16    26    27   ar
    17    27    28   ar
    18    28    29   ar
    19    29    30   ar
    20    30    31    1
    21    30    32   ar
    22    23    24   ar
    23    24    25   ar
    24    11    12   ar
    25    12    13    1
    26    12    14   ar
    27    14    15   ar
    28    15    16    1
    29    15     6   ar
    30    14     9   ar
    31    25    20   ar
    32    32    26   ar
    33     3     4    1
    34    13    17    1
    35    13    18    1
@<TRIPOS>MOLECULE
*****
 32 35 0 0 0
SMALL
GASTEIGER

@<TRIPOS>ATOM
      1 C           6.5848   -3.1544   21.3877 C.2     1  UNL1        0.2534
      2 O           7.1814   -1.7877   21.2256 O.2     1  UNL1       -0.2695
      3 N           5.6598   -3.6980   20.3395 N.am    1  UNL1       -0.2965
      4 H           5.2683   -4.5950   20.4458 H       1  UNL1        0.1501
      5 C           9.1879   -8.2336   26.7773 C.3     1  UNL1        0.0537
      6 C           8.4454   -7.0951   26.1430 C.ar    1  UNL1        0.0771
      7 N           7.5292   -6.2433   26.9707 N.ar    1  UNL1       -0.1522
      8 N           6.7867   -5.1048   26.3364 N.ar    1  UNL1       -0.1416
      9 C           6.9604   -4.8179   24.8744 C.ar    1  UNL1        0.1333
     10 S           6.3650   -3.7720   23.9791 S.2     1  UNL1       -0.0604
     11 C           6.9132   -3.9774   22.5980 C.ar    1  UNL1        0.0971
     12 C           7.8474   -5.1501   22.6398 C.ar    1  UNL1        0.0538
     13 N           8.6173   -5.7059   21.4786 N.pl3   1  UNL1       -0.3564
     14 C           7.8766   -5.6696   24.0467 C.ar    1  UNL1        0.0363
     15 C           8.6191   -6.8082   24.6810 C.ar    1  UNL1       -0.0033
     16 C           9.5353   -7.6599   23.8533 C.3     1  UNL1        0.0324
     17 H           8.5315   -5.2938   20.5886 H       1  UNL1        0.1424
     18 H           9.2084   -6.4828   21.6064 H       1  UNL1        0.1424
     19 C           5.3315   -2.8750   19.1292 C.3     1  UNL1        0.1166
     20 C           4.2523   -1.8355   19.1993 C.ar    1  UNL1       -0.0026
     21 C           3.9993   -0.9367   18.0254 C.ar    1  UNL1       -0.0026
     22 C           2.9202    0.1027   18.0956 C.ar    1  UNL1       -0.0003
     23 C           2.0941    0.2435   19.3397 C.ar    1  UNL1        0.0002
     24 C           2.3472   -0.6552   20.5136 C.ar    1  UNL1       -0.0003
     25 C           3.4263   -1.6947   20.4435 C.ar    1  UNL1       -0.0026
     26 C           1.0150    1.2831   19.4098 C.ar    1  UNL1        0.0054
     27 C           0.1470    1.3819   20.6291 C.ar    1  UNL1        0.0208
     28 C          -0.9322    2.4215   20.6993 C.ar    1  UNL1        0.1013
     29 N          -1.1432    3.3621   19.5501 N.ar    1  UNL1       -0.2165
     30 C          -0.2752    3.2632   18.3307 C.ar    1  UNL1        0.2223
     31 F          -0.4862    4.2038   17.1815 F       1  UNL1       -0.1832
     32 C           0.8039    2.2237   18.2606 C.ar    1  UNL1        0.0497
@<TRIPOS>BOND
     1     5     6    1
     2     6     7   ar
     3     7     8   ar
     4     8     9   ar
     5     9    10   ar
     6    10    11   ar
     7    11     1    1
     8     1     2    2
     9     1     3   am
    10     3    19    1
    11    19    20    1
    12    20    21   ar
    13    21    22   ar
    14    22    23   ar
    15    23    26    1
    16    26    27   ar
    17    27    28   ar
    18    28    29   ar
    19    29    30   ar
    20    30    31    1
    21    30    32   ar
    22    23    24   ar
    23    24    25   ar
    24    11    12   ar
    25    12    13    1
    26    12    14   ar
    27    14    15   ar
    28    15    16    1
    29    15     6   ar
    30    14     9   ar
    31    25    20   ar
    32    32    26   ar
    33     3     4    1
    34    13    17    1
    35    13    18    1
