@<TRIPOS>MOLECULE
*****
 28 31 0 0 0
SMALL
GASTEIGER

@<TRIPOS>ATOM
      1 C          -9.9312  -16.9354   23.9769 C.2     1  UNL1        0.1514
      2 N          -9.3291  -15.6332   24.4149 N.2     1  UNL1       -0.2531
      3 C          -7.9803  -15.6135   25.0708 C.3     1  UNL1        0.1051
      4 C          -6.7395  -15.5318   24.2318 C.3     1  UNL1        0.0244
      5 C          -5.3906  -15.5120   24.8876 C.3     1  UNL1        0.0020
      6 C          -5.2825  -15.5740   26.3824 C.3     1  UNL1        0.0001
      7 C          -6.5232  -15.6558   27.2214 C.3     1  UNL1        0.0020
      8 C          -7.8721  -15.6755   26.5656 C.3     1  UNL1        0.0244
      9 N         -11.2800  -16.9550   23.3210 N.pl3   1  UNL1       -0.3151
     10 H         -12.0650  -17.2788   23.8193 H       1  UNL1        0.1486
     11 C         -11.4330  -16.4812   21.9060 C.3     1  UNL1        0.0708
     12 C         -10.2676  -15.8634   21.1919 C.3     1  UNL1        0.0195
     13 C         -10.4205  -15.3896   19.7769 C.3     1  UNL1        0.0017
     14 C         -11.7388  -15.5338   19.0761 C.3     1  UNL1        0.0001
     15 C         -12.9042  -16.1517   19.7902 C.3     1  UNL1        0.0017
     16 C         -12.7514  -16.6254   21.2052 C.3     1  UNL1        0.0195
     17 S          -9.1844  -18.2179   24.1948 S.3     1  UNL1       -0.0744
     18 C          -9.3604  -19.3600   23.2384 C.3     1  UNL1        0.1066
     19 C          -3.8836  -18.8624   22.4233 C.3     1  UNL1        0.0262
     20 C          -4.8273  -18.9775   21.2631 C.3     1  UNL1        0.1051
     21 C          -3.5776  -18.8783   20.4395 C.3     1  UNL1        0.0262
     22 C          -5.8798  -19.0526   22.3293 C.3     1  UNL1        0.1194
     23 N          -7.2127  -19.1934   21.6558 N.pl3   1  UNL1       -0.2679
     24 C          -8.6869  -19.3268   21.8985 C.2     1  UNL1        0.0484
     25 C          -9.3693  -19.4212   20.5661 C.2     1  UNL1        0.0494
     26 S          -8.3169  -19.3461   19.5000 S.3     1  UNL1       -0.0516
     27 C          -6.9840  -19.2053   20.1734 C.2     1  UNL1        0.1622
     28 N          -5.5098  -19.0719   19.9307 N.2     1  UNL1       -0.2526
@<TRIPOS>BOND
     1    19    20    1
     2    20    21    1
     3    20    22    1
     4    22    23    1
     5    23    24    1
     6    24    18    1
     7    18    17    1
     8    17     1    1
     9     1     2    2
    10     2     3    1
    11     3     4    1
    12     4     5    1
    13     5     6    1
    14     6     7    1
    15     7     8    1
    16     1     9    1
    17     9    11    1
    18    11    12    1
    19    12    13    1
    20    13    14    1
    21    14    15    1
    22    15    16    1
    23    24    25    2
    24    25    26    1
    25    26    27    1
    26    27    28    2
    27    28    20    1
    28    27    23    1
    29     8     3    1
    30    16    11    1
    31     9    10    1
@<TRIPOS>MOLECULE
*****
 28 31 0 0 0
SMALL
GASTEIGER

@<TRIPOS>ATOM
      1 C          -7.9545  -17.0583   22.5105 C.2     1  UNL1        0.1514
      2 N          -8.4940  -16.1065   23.5367 N.2     1  UNL1       -0.2531
      3 C          -7.7216  -15.8438   24.7954 C.3     1  UNL1        0.1051
      4 C          -6.3340  -15.2793   24.7198 C.3     1  UNL1        0.0244
      5 C          -5.5616  -15.0165   25.9784 C.3     1  UNL1        0.0020
      6 C          -6.1768  -15.3183   27.3128 C.3     1  UNL1        0.0001
      7 C          -7.5644  -15.8829   27.3884 C.3     1  UNL1        0.0020
      8 C          -8.3369  -16.1456   26.1297 C.3     1  UNL1        0.0244
      9 N          -8.7269  -17.3210   21.2518 N.pl3   1  UNL1       -0.3151
     10 H          -8.2502  -17.4605   20.4018 H       1  UNL1        0.1486
     11 C         -10.2257  -17.3711   21.2881 C.3     1  UNL1        0.0708
     12 C         -10.9214  -18.4471   22.0679 C.3     1  UNL1        0.0195
     13 C         -12.4201  -18.4972   22.1042 C.3     1  UNL1        0.0017
     14 C         -13.2230  -17.4714   21.3607 C.3     1  UNL1        0.0001
     15 C         -12.5273  -16.3954   20.5809 C.3     1  UNL1        0.0017
     16 C         -11.0286  -16.3452   20.5446 C.3     1  UNL1        0.0195
     17 S          -6.6426  -17.7474   22.7430 S.3     1  UNL1       -0.0744
     18 C          -6.4567  -19.1718   22.3111 C.3     1  UNL1        0.1066
     19 C          -1.7601  -16.2730   21.6435 C.3     1  UNL1        0.0262
     20 C          -2.0123  -17.5228   20.8533 C.3     1  UNL1        0.1051
     21 C          -0.6675  -17.2292   20.2572 C.3     1  UNL1        0.0262
     22 C          -3.3043  -17.5552   21.6146 C.3     1  UNL1        0.1194
     23 N          -4.0740  -18.7636   21.1703 N.pl3   1  UNL1       -0.2679
     24 C          -5.3482  -19.5304   21.3662 C.2     1  UNL1        0.0484
     25 C          -5.3193  -20.7188   20.4514 C.2     1  UNL1        0.0494
     26 S          -4.0273  -20.6864   19.6901 S.3     1  UNL1       -0.0516
     27 C          -3.2577  -19.4780   20.1344 C.2     1  UNL1        0.1622
     28 N          -1.9835  -18.7112   19.9385 N.2     1  UNL1       -0.2526
@<TRIPOS>BOND
     1    19    20    1
     2    20    21    1
     3    20    22    1
     4    22    23    1
     5    23    24    1
     6    24    18    1
     7    18    17    1
     8    17     1    1
     9     1     2    2
    10     2     3    1
    11     3     4    1
    12     4     5    1
    13     5     6    1
    14     6     7    1
    15     7     8    1
    16     1     9    1
    17     9    11    1
    18    11    12    1
    19    12    13    1
    20    13    14    1
    21    14    15    1
    22    15    16    1
    23    24    25    2
    24    25    26    1
    25    26    27    1
    26    27    28    2
    27    28    20    1
    28    27    23    1
    29     8     3    1
    30    16    11    1
    31     9    10    1
@<TRIPOS>MOLECULE
*****
 28 31 0 0 0
SMALL
GASTEIGER

@<TRIPOS>ATOM
      1 C          -8.1250  -16.8950   22.6231 C.2     1  UNL1        0.1514
      2 N          -9.3818  -16.1143   22.8702 N.2     1  UNL1       -0.2531
      3 C         -10.7024  -16.6517   22.4044 C.3     1  UNL1        0.1051
      4 C         -11.1860  -16.3534   21.0162 C.3     1  UNL1        0.0244
      5 C         -12.5067  -16.8909   20.5504 C.3     1  UNL1        0.0020
      6 C         -13.3438  -17.7266   21.4728 C.3     1  UNL1        0.0001
      7 C         -12.8602  -18.0248   22.8611 C.3     1  UNL1        0.0020
      8 C         -11.5395  -17.4874   23.3269 C.3     1  UNL1        0.0244
      9 N          -6.8044  -16.3575   23.0889 N.pl3   1  UNL1       -0.3151
     10 H          -6.0456  -16.3064   22.4637 H       1  UNL1        0.1486
     11 C          -6.6398  -15.8977   24.5072 C.3     1  UNL1        0.0708
     12 C          -5.3195  -15.3586   24.9723 C.3     1  UNL1        0.0195
     13 C          -5.1548  -14.8988   26.3906 C.3     1  UNL1        0.0017
     14 C          -6.3104  -14.9782   27.3437 C.3     1  UNL1        0.0001
     15 C          -7.6306  -15.5174   26.8786 C.3     1  UNL1        0.0017
     16 C          -7.7953  -15.9771   25.4603 C.3     1  UNL1        0.0195
     17 S          -8.1889  -18.2133   21.9103 S.3     1  UNL1       -0.0744
     18 C          -7.3022  -19.3433   22.3425 C.3     1  UNL1        0.1066
     19 C          -2.3788  -16.7617   22.2928 C.3     1  UNL1        0.0262
     20 C          -2.6305  -17.9565   21.4215 C.3     1  UNL1        0.1051
     21 C          -1.2145  -17.7350   20.9788 C.3     1  UNL1        0.0262
     22 C          -3.9938  -17.9282   22.0463 C.3     1  UNL1        0.1194
     23 N          -4.7921  -19.0591   21.4686 N.pl3   1  UNL1       -0.2679
     24 C          -6.1281  -19.7406   21.4978 C.2     1  UNL1        0.0484
     25 C          -6.0837  -20.8890   20.5339 C.2     1  UNL1        0.0494
     26 S          -4.7204  -20.9174   19.9091 S.3     1  UNL1       -0.0516
     27 C          -3.9221  -19.7864   20.4868 C.2     1  UNL1        0.1622
     28 N          -2.5862  -19.1049   20.4576 N.2     1  UNL1       -0.2526
@<TRIPOS>BOND
     1    19    20    1
     2    20    21    1
     3    20    22    1
     4    22    23    1
     5    23    24    1
     6    24    18    1
     7    18    17    1
     8    17     1    1
     9     1     2    2
    10     2     3    1
    11     3     4    1
    12     4     5    1
    13     5     6    1
    14     6     7    1
    15     7     8    1
    16     1     9    1
    17     9    11    1
    18    11    12    1
    19    12    13    1
    20    13    14    1
    21    14    15    1
    22    15    16    1
    23    24    25    2
    24    25    26    1
    25    26    27    1
    26    27    28    2
    27    28    20    1
    28    27    23    1
    29     8     3    1
    30    16    11    1
    31     9    10    1
@<TRIPOS>MOLECULE
*****
 28 31 0 0 0
SMALL
GASTEIGER

@<TRIPOS>ATOM
      1 C          -5.0124  -18.7963   22.2420 C.2     1  UNL1        0.1514
      2 N          -4.6533  -17.4862   22.8780 N.2     1  UNL1       -0.2531
      3 C          -5.6987  -16.6943   23.6059 C.3     1  UNL1        0.1051
      4 C          -7.0828  -16.5800   23.0391 C.3     1  UNL1        0.0244
      5 C          -8.1283  -15.7881   23.7669 C.3     1  UNL1        0.0020
      6 C          -7.7897  -15.1104   25.0616 C.3     1  UNL1        0.0001
      7 C          -6.4057  -15.2246   25.6283 C.3     1  UNL1        0.0020
      8 C          -5.3601  -16.0166   24.9005 C.3     1  UNL1        0.0244
      9 N          -3.9669  -19.5882   21.5141 N.pl3   1  UNL1       -0.3151
     10 H          -3.9576  -20.5703   21.5816 H       1  UNL1        0.1486
     11 C          -2.9356  -18.8837   20.6833 C.3     1  UNL1        0.0708
     12 C          -3.2668  -18.4497   19.2862 C.3     1  UNL1        0.0195
     13 C          -2.2355  -17.7453   18.4553 C.3     1  UNL1        0.0017
     14 C          -0.8732  -17.4749   19.0216 C.3     1  UNL1        0.0001
     15 C          -0.5420  -17.9089   20.4187 C.3     1  UNL1        0.0017
     16 C          -1.5732  -18.6134   21.2496 C.3     1  UNL1        0.0195
     17 S          -6.4171  -19.3146   22.3338 S.3     1  UNL1       -0.0744
     18 C          -7.0577  -19.9603   21.1411 C.3     1  UNL1        0.1066
     19 C         -11.1440  -18.5585   24.6403 C.3     1  UNL1        0.0262
     20 C         -11.3706  -18.5711   23.1575 C.3     1  UNL1        0.1051
     21 C         -12.7593  -18.1391   23.5247 C.3     1  UNL1        0.0262
     22 C          -9.9346  -19.0006   23.1003 C.3     1  UNL1        0.1194
     23 N          -9.5639  -19.1883   21.6590 N.pl3   1  UNL1       -0.2679
     24 C          -8.4473  -19.5698   20.7329 C.2     1  UNL1        0.0484
     25 C          -8.9642  -19.4921   19.3270 C.2     1  UNL1        0.0494
     26 S         -10.4002  -19.0627   19.3841 S.3     1  UNL1       -0.0516
     27 C         -10.7709  -18.8749   20.8254 C.2     1  UNL1        0.1622
     28 N         -11.8875  -18.4935   21.7515 N.2     1  UNL1       -0.2526
@<TRIPOS>BOND
     1    19    20    1
     2    20    21    1
     3    20    22    1
     4    22    23    1
     5    23    24    1
     6    24    18    1
     7    18    17    1
     8    17     1    1
     9     1     2    2
    10     2     3    1
    11     3     4    1
    12     4     5    1
    13     5     6    1
    14     6     7    1
    15     7     8    1
    16     1     9    1
    17     9    11    1
    18    11    12    1
    19    12    13    1
    20    13    14    1
    21    14    15    1
    22    15    16    1
    23    24    25    2
    24    25    26    1
    25    26    27    1
    26    27    28    2
    27    28    20    1
    28    27    23    1
    29     8     3    1
    30    16    11    1
    31     9    10    1
@<TRIPOS>MOLECULE
*****
 28 31 0 0 0
SMALL
GASTEIGER

@<TRIPOS>ATOM
      1 C          -6.2703  -17.3082   22.7391 C.2     1  UNL1        0.1514
      2 N          -4.8481  -16.8883   22.9652 N.2     1  UNL1       -0.2531
      3 C          -3.7295  -17.6470   22.3148 C.3     1  UNL1        0.1051
      4 C          -2.6109  -16.9058   21.6446 C.3     1  UNL1        0.0244
      5 C          -1.4923  -17.6644   20.9941 C.3     1  UNL1        0.0020
      6 C          -1.4923  -19.1643   21.0139 C.3     1  UNL1        0.0001
      7 C          -2.6110  -19.9055   21.6841 C.3     1  UNL1        0.0020
      8 C          -3.7296  -19.1468   22.3346 C.3     1  UNL1        0.0244
      9 N          -7.3888  -16.5494   23.3896 N.pl3   1  UNL1       -0.3151
     10 H          -8.2148  -16.3633   22.8872 H       1  UNL1        0.1486
     11 C          -7.2489  -16.0741   24.8054 C.3     1  UNL1        0.0708
     12 C          -5.9496  -15.4905   25.2756 C.3     1  UNL1        0.0195
     13 C          -5.8096  -15.0151   26.6914 C.3     1  UNL1        0.0017
     14 C          -6.9689  -15.1235   27.6370 C.3     1  UNL1        0.0001
     15 C          -8.2683  -15.7071   27.1668 C.3     1  UNL1        0.0017
     16 C          -8.4083  -16.1825   25.7510 C.3     1  UNL1        0.0195
     17 S          -6.5739  -18.4870   21.8626 S.3     1  UNL1       -0.0744
     18 C          -7.9953  -18.8167   21.5149 C.3     1  UNL1        0.1066
     19 C         -13.0320  -16.7022   22.5480 C.3     1  UNL1        0.0262
     20 C         -12.4992  -17.8504   23.3528 C.3     1  UNL1        0.1051
     21 C         -13.8127  -17.7522   24.0704 C.3     1  UNL1        0.0262
     22 C         -11.2970  -17.7086   22.4670 C.3     1  UNL1        0.1194
     23 N         -10.2957  -18.7486   22.8743 N.pl3   1  UNL1       -0.2679
     24 C          -8.9340  -19.3038   22.5787 C.2     1  UNL1        0.0484
     25 C          -8.6758  -20.4314   23.5335 C.2     1  UNL1        0.0494
     26 S          -9.8779  -20.5732   24.4193 S.3     1  UNL1       -0.0516
     27 C         -10.8791  -19.5332   24.0119 C.2     1  UNL1        0.1622
     28 N         -12.2409  -18.9781   24.3076 N.2     1  UNL1       -0.2526
@<TRIPOS>BOND
     1    19    20    1
     2    20    21    1
     3    20    22    1
     4    22    23    1
     5    23    24    1
     6    24    18    1
     7    18    17    1
     8    17     1    1
     9     1     2    2
    10     2     3    1
    11     3     4    1
    12     4     5    1
    13     5     6    1
    14     6     7    1
    15     7     8    1
    16     1     9    1
    17     9    11    1
    18    11    12    1
    19    12    13    1
    20    13    14    1
    21    14    15    1
    22    15    16    1
    23    24    25    2
    24    25    26    1
    25    26    27    1
    26    27    28    2
    27    28    20    1
    28    27    23    1
    29     8     3    1
    30    16    11    1
    31     9    10    1
@<TRIPOS>MOLECULE
*****
 28 31 0 0 0
SMALL
GASTEIGER

@<TRIPOS>ATOM
      1 C         -13.3556   -7.5976   18.5641 C.2     1  UNL1        0.1514
      2 N         -11.8802   -7.6894   18.3094 N.2     1  UNL1       -0.2531
      3 C         -11.1057   -6.4603   17.9360 C.3     1  UNL1        0.1051
      4 C         -11.0314   -6.0277   16.5016 C.3     1  UNL1        0.0244
      5 C         -10.2569   -4.7987   16.1281 C.3     1  UNL1        0.0020
      6 C          -9.5566   -4.0023   17.1889 C.3     1  UNL1        0.0001
      7 C          -9.6309   -4.4348   18.6233 C.3     1  UNL1        0.0020
      8 C         -10.4055   -5.6639   18.9968 C.3     1  UNL1        0.0244
      9 N         -14.1301   -8.8267   18.9376 N.pl3   1  UNL1       -0.3151
     10 H         -13.6558   -9.6330   19.2444 H       1  UNL1        0.1486
     11 C         -15.6271   -8.8274   18.8435 C.3     1  UNL1        0.0708
     12 C         -16.4568   -8.7137   20.0880 C.3     1  UNL1        0.0195
     13 C         -17.9539   -8.7144   19.9940 C.3     1  UNL1        0.0017
     14 C         -18.6212   -8.8287   18.6556 C.3     1  UNL1        0.0001
     15 C         -17.7915   -8.9424   17.4111 C.3     1  UNL1        0.0017
     16 C         -16.2945   -8.9417   17.5050 C.3     1  UNL1        0.0195
     17 S         -14.0565   -6.2767   18.4454 S.3     1  UNL1       -0.0744
     18 C         -14.3295   -5.4595   19.6732 C.3     1  UNL1        0.1066
     19 C         -11.4499   -0.9707   18.1030 C.3     1  UNL1        0.0262
     20 C         -12.9083   -0.8709   18.4395 C.3     1  UNL1        0.1051
     21 C         -12.7229    0.5814   18.1135 C.3     1  UNL1        0.0262
     22 C         -12.7888   -2.3441   18.6951 C.3     1  UNL1        0.1194
     23 N         -14.1345   -2.8513   19.1215 N.pl3   1  UNL1       -0.2679
     24 C         -14.8924   -4.0752   19.5430 C.2     1  UNL1        0.0484
     25 C         -16.3120   -3.6719   19.8113 C.2     1  UNL1        0.0494
     26 S         -16.4315   -2.1987   19.5557 S.3     1  UNL1       -0.0516
     27 C         -15.0858   -1.6915   19.1293 C.2     1  UNL1        0.1622
     28 N         -14.3279   -0.4676   18.7078 N.2     1  UNL1       -0.2526
@<TRIPOS>BOND
     1    19    20    1
     2    20    21    1
     3    20    22    1
     4    22    23    1
     5    23    24    1
     6    24    18    1
     7    18    17    1
     8    17     1    1
     9     1     2    2
    10     2     3    1
    11     3     4    1
    12     4     5    1
    13     5     6    1
    14     6     7    1
    15     7     8    1
    16     1     9    1
    17     9    11    1
    18    11    12    1
    19    12    13    1
    20    13    14    1
    21    14    15    1
    22    15    16    1
    23    24    25    2
    24    25    26    1
    25    26    27    1
    26    27    28    2
    27    28    20    1
    28    27    23    1
    29     8     3    1
    30    16    11    1
    31     9    10    1
@<TRIPOS>MOLECULE
*****
 28 31 0 0 0
SMALL
GASTEIGER

@<TRIPOS>ATOM
      1 C         -13.6408   -7.8699   18.2781 C.2     1  UNL1        0.1514
      2 N         -14.4903   -9.0821   18.5210 N.2     1  UNL1       -0.2531
      3 C         -15.9714   -8.9350   18.7071 C.3     1  UNL1        0.1051
      4 C         -16.8830   -8.9601   17.5162 C.3     1  UNL1        0.0244
      5 C         -18.3641   -8.8130   17.7022 C.3     1  UNL1        0.0020
      6 C         -18.9336   -8.6408   19.0791 C.3     1  UNL1        0.0001
      7 C         -18.0219   -8.6157   20.2701 C.3     1  UNL1        0.0020
      8 C         -16.5408   -8.7628   20.0840 C.3     1  UNL1        0.0244
      9 N         -12.1597   -8.0172   18.0920 N.pl3   1  UNL1       -0.3151
     10 H         -11.7451   -8.9093   18.1297 H       1  UNL1        0.1486
     11 C         -11.3101   -6.8051   17.8483 C.3     1  UNL1        0.0708
     12 C         -10.5774   -6.1615   18.9880 C.3     1  UNL1        0.0195
     13 C          -9.7278   -4.9495   18.7445 C.3     1  UNL1        0.0017
     14 C          -9.6111   -4.3811   17.3613 C.3     1  UNL1        0.0001
     15 C         -10.3439   -5.0247   16.2216 C.3     1  UNL1        0.0017
     16 C         -11.1935   -6.2367   16.4651 C.3     1  UNL1        0.0195
     17 S         -14.2724   -6.5106   18.2213 S.3     1  UNL1       -0.0744
     18 C         -14.4501   -5.7130   19.4792 C.3     1  UNL1        0.1066
     19 C         -11.4152   -1.2373   18.1889 C.3     1  UNL1        0.0262
     20 C         -12.8763   -1.1120   18.5043 C.3     1  UNL1        0.1051
     21 C         -12.6437    0.3488   18.2555 C.3     1  UNL1        0.0262
     22 C         -12.8035   -2.5990   18.6872 C.3     1  UNL1        0.1194
     23 N         -14.1709   -3.0873   19.0636 N.pl3   1  UNL1       -0.2679
     24 C         -14.9710   -4.3081   19.4092 C.2     1  UNL1        0.0484
     25 C         -16.3834   -3.8774   19.6725 C.2     1  UNL1        0.0494
     26 S         -16.4564   -2.3904   19.4897 S.3     1  UNL1       -0.0516
     27 C         -15.0889   -1.9021   19.1133 C.2     1  UNL1        0.1622
     28 N         -14.2888   -0.6813   18.7677 N.2     1  UNL1       -0.2526
@<TRIPOS>BOND
     1    19    20    1
     2    20    21    1
     3    20    22    1
     4    22    23    1
     5    23    24    1
     6    24    18    1
     7    18    17    1
     8    17     1    1
     9     1     2    2
    10     2     3    1
    11     3     4    1
    12     4     5    1
    13     5     6    1
    14     6     7    1
    15     7     8    1
    16     1     9    1
    17     9    11    1
    18    11    12    1
    19    12    13    1
    20    13    14    1
    21    14    15    1
    22    15    16    1
    23    24    25    2
    24    25    26    1
    25    26    27    1
    26    27    28    2
    27    28    20    1
    28    27    23    1
    29     8     3    1
    30    16    11    1
    31     9    10    1
@<TRIPOS>MOLECULE
*****
 28 31 0 0 0
SMALL
GASTEIGER

@<TRIPOS>ATOM
      1 C          -5.6383  -18.5032   21.8992 C.2     1  UNL1        0.1514
      2 N          -5.4883  -17.0627   22.2894 N.2     1  UNL1       -0.2531
      3 C          -6.1092  -16.5610   23.5594 C.3     1  UNL1        0.1051
      4 C          -5.2377  -16.1536   24.7103 C.3     1  UNL1        0.0244
      5 C          -5.8586  -15.6519   25.9802 C.3     1  UNL1        0.0020
      6 C          -7.3508  -15.5577   26.0993 C.3     1  UNL1        0.0001
      7 C          -8.2223  -15.9651   24.9484 C.3     1  UNL1        0.0020
      8 C          -7.6015  -16.4668   23.6784 C.3     1  UNL1        0.0244
      9 N          -5.0174  -19.0048   20.6292 N.pl3   1  UNL1       -0.3151
     10 H          -5.5408  -19.5681   20.0144 H       1  UNL1        0.1486
     11 C          -3.5989  -18.6483   20.2960 C.3     1  UNL1        0.0708
     12 C          -3.2659  -18.0762   18.9499 C.3     1  UNL1        0.0195
     13 C          -1.8476  -17.7196   18.6166 C.3     1  UNL1        0.0017
     14 C          -0.7623  -17.9351   19.6294 C.3     1  UNL1        0.0001
     15 C          -1.0953  -18.5072   20.9754 C.3     1  UNL1        0.0017
     16 C          -2.5137  -18.8637   21.3087 C.3     1  UNL1        0.0195
     17 S          -6.4093  -19.4422   22.7789 S.3     1  UNL1       -0.0744
     18 C          -7.6885  -20.0513   22.2864 C.3     1  UNL1        0.1066
     19 C         -11.3458  -16.6338   19.8675 C.3     1  UNL1        0.0262
     20 C         -11.6184  -17.2197   21.2212 C.3     1  UNL1        0.1051
     21 C         -12.8955  -16.4384   21.1285 C.3     1  UNL1        0.0262
     22 C         -10.2843  -17.8785   21.0309 C.3     1  UNL1        0.1194
     23 N          -9.9993  -18.7083   22.2475 N.pl3   1  UNL1       -0.2679
     24 C          -8.9987  -19.6283   22.8819 C.2     1  UNL1        0.0484
     25 C          -9.5382  -20.0508   24.2161 C.2     1  UNL1        0.0494
     26 S         -10.8723  -19.3921   24.4064 S.3     1  UNL1       -0.0516
     27 C         -11.1573  -18.5623   23.1898 C.2     1  UNL1        0.1622
     28 N         -12.1579  -17.6423   22.5554 N.2     1  UNL1       -0.2526
@<TRIPOS>BOND
     1    19    20    1
     2    20    21    1
     3    20    22    1
     4    22    23    1
     5    23    24    1
     6    24    18    1
     7    18    17    1
     8    17     1    1
     9     1     2    2
    10     2     3    1
    11     3     4    1
    12     4     5    1
    13     5     6    1
    14     6     7    1
    15     7     8    1
    16     1     9    1
    17     9    11    1
    18    11    12    1
    19    12    13    1
    20    13    14    1
    21    14    15    1
    22    15    16    1
    23    24    25    2
    24    25    26    1
    25    26    27    1
    26    27    28    2
    27    28    20    1
    28    27    23    1
    29     8     3    1
    30    16    11    1
    31     9    10    1
@<TRIPOS>MOLECULE
*****
 28 31 0 0 0
SMALL
GASTEIGER

@<TRIPOS>ATOM
      1 C         -13.3165   -7.6543   18.6209 C.2     1  UNL1        0.1514
      2 N         -12.0549   -7.7731   17.8183 N.2     1  UNL1       -0.2531
      3 C         -11.2062   -6.5612   17.5712 C.3     1  UNL1        0.1051
      4 C         -10.3303   -6.0236   18.6638 C.3     1  UNL1        0.0244
      5 C          -9.4816   -4.8117   18.4167 C.3     1  UNL1        0.0020
      6 C          -9.5089   -4.1374   17.0771 C.3     1  UNL1        0.0001
      7 C         -10.3848   -4.6750   15.9845 C.3     1  UNL1        0.0020
      8 C         -11.2335   -5.8869   16.2316 C.3     1  UNL1        0.0244
      9 N         -14.1651   -8.8662   18.8680 N.pl3   1  UNL1       -0.3151
     10 H         -13.7414   -9.7272   19.0881 H       1  UNL1        0.1486
     11 C         -15.6592   -8.7665   18.7798 C.3     1  UNL1        0.0708
     12 C         -16.3198   -8.5620   17.4487 C.3     1  UNL1        0.0195
     13 C         -17.8139   -8.4622   17.3604 C.3     1  UNL1        0.0017
     14 C         -18.6472   -8.5669   18.6032 C.3     1  UNL1        0.0001
     15 C         -17.9866   -8.7713   19.9343 C.3     1  UNL1        0.0017
     16 C         -16.4925   -8.8711   20.0226 C.3     1  UNL1        0.0195
     17 S         -13.7295   -6.3236   19.1764 S.3     1  UNL1       -0.0744
     18 C         -14.3737   -5.3052   18.2832 C.3     1  UNL1        0.1066
     19 C         -18.2495   -1.7528   20.0901 C.3     1  UNL1        0.0262
     20 C         -16.8514   -1.2886   19.8078 C.3     1  UNL1        0.1051
     21 C         -17.3778    0.0497   20.2343 C.3     1  UNL1        0.0262
     22 C         -16.6173   -2.7239   19.4403 C.3     1  UNL1        0.1194
     23 N         -15.1845   -2.8670   19.0199 N.pl3   1  UNL1       -0.2679
     24 C         -14.1543   -3.8425   18.5330 C.2     1  UNL1        0.0484
     25 C         -12.8663   -3.0986   18.3399 C.2     1  UNL1        0.0494
     26 S         -13.1003   -1.6633   18.7074 S.3     1  UNL1       -0.0516
     27 C         -14.5331   -1.5202   19.1277 C.2     1  UNL1        0.1622
     28 N         -15.5633   -0.5447   19.6146 N.2     1  UNL1       -0.2526
@<TRIPOS>BOND
     1    19    20    1
     2    20    21    1
     3    20    22    1
     4    22    23    1
     5    23    24    1
     6    24    18    1
     7    18    17    1
     8    17     1    1
     9     1     2    2
    10     2     3    1
    11     3     4    1
    12     4     5    1
    13     5     6    1
    14     6     7    1
    15     7     8    1
    16     1     9    1
    17     9    11    1
    18    11    12    1
    19    12    13    1
    20    13    14    1
    21    14    15    1
    22    15    16    1
    23    24    25    2
    24    25    26    1
    25    26    27    1
    26    27    28    2
    27    28    20    1
    28    27    23    1
    29     8     3    1
    30    16    11    1
    31     9    10    1
