@<TRIPOS>MOLECULE
*****
 40 42 0 0 0
SMALL
GASTEIGER

@<TRIPOS>ATOM
      1 C           0.8967    0.5061   19.8369 C.3     1  UNL1        0.2120
      2 O          -0.2466   -0.0358   20.6426 O.3     1  UNL1       -0.3763
      3 H          -0.8673    0.6813   20.8461 H       1  UNL1        0.2107
      4 C           2.0401    1.0480   19.0312 C.3     1  UNL1        0.4226
      5 F           3.1833    1.5899   18.2255 F       1  UNL1       -0.1675
      6 F           1.6717    0.1384   17.8968 F       1  UNL1       -0.1675
      7 F           2.4084    1.9577   20.1656 F       1  UNL1       -0.1675
      8 C           1.5106   -0.8616   19.7880 C.3     1  UNL1        0.1308
      9 C           2.7689   -0.7978   22.0602 C.3     1  UNL1        0.1153
     10 N           2.7302   -1.1659   20.6066 N.am    1  UNL1       -0.2714
     11 C           3.9111   -1.8384   19.9715 C.2     1  UNL1        0.2535
     12 O           3.8724   -2.2064   18.5178 O.2     1  UNL1       -0.2697
     13 C           5.1307   -2.1427   20.7900 C.ar    1  UNL1        0.1083
     14 C           6.2622   -1.1595   20.8439 C.ar    1  UNL1        0.1467
     15 F           6.1742    0.1280   20.0793 F       1  UNL1       -0.2039
     16 C           7.4818   -1.4638   21.6624 C.ar    1  UNL1        0.0299
     17 C           7.5699   -2.7513   22.4271 C.ar    1  UNL1        0.0046
     18 C           6.4383   -3.7345   22.3732 C.ar    1  UNL1        0.0299
     19 C           5.2187   -3.4302   21.5546 C.ar    1  UNL1        0.1467
     20 F           4.0871   -4.4134   21.5007 F       1  UNL1       -0.2039
     21 C           0.2829    1.8739   19.8858 C.3     1  UNL1        0.1269
     22 N          -0.9106    2.1296   20.7576 N.am    1  UNL1       -0.2982
     23 C          -1.9270    3.1569   20.3553 C.2     1  UNL1        0.2502
     24 O          -1.7498    3.9284   19.0812 O.2     1  UNL1       -0.2700
     25 H          -1.0270    1.6232   21.5938 H       1  UNL1        0.1498
     26 C          -3.1205    3.4126   21.2271 C.ar    1  UNL1        0.1053
     27 C          -4.5418    3.0598   20.9018 C.ar    1  UNL1        0.1278
     28 N          -5.4020    3.4952   22.0509 N.ar    1  UNL1       -0.1622
     29 N          -4.5125    4.1170   23.0863 N.ar    1  UNL1       -0.2163
     30 C          -3.1025    4.0659   22.5772 C.ar    1  UNL1        0.1327
     31 N          -1.8877    4.5783   23.2925 N.pl3   1  UNL1       -0.3424
     32 H          -1.9780    4.9939   24.1804 H       1  UNL1        0.1437
     33 H          -1.0000    4.4990   22.8741 H       1  UNL1        0.1437
     34 C          -4.9553    4.6894   24.4003 C.ar    1  UNL1        0.0843
     35 C          -5.9865    5.7781   24.4348 C.ar    1  UNL1        0.0215
     36 C          -6.4292    6.3504   25.7487 C.ar    1  UNL1        0.0312
     37 C          -5.8406    5.8340   27.0281 C.ar    1  UNL1        0.1402
     38 F          -6.2834    6.4064   28.3421 F       1  UNL1       -0.2042
     39 C          -4.8094    4.7453   26.9937 C.ar    1  UNL1        0.0312
     40 C          -4.3667    4.1730   25.6798 C.ar    1  UNL1        0.0215
@<TRIPOS>BOND
     1     9    10    1
     2    10     8    1
     3     8     1    1
     4     1     2    1
     5     1    21    1
     6    21    22    1
     7    22    23   am
     8    23    24    2
     9    23    26    1
    10    26    27   ar
    11    27    28   ar
    12    28    29   ar
    13    29    34    1
    14    34    35   ar
    15    35    36   ar
    16    36    37   ar
    17    37    38    1
    18    37    39   ar
    19    39    40   ar
    20    29    30   ar
    21    30    31    1
    22     1     4    1
    23     4     5    1
    24     4     6    1
    25     4     7    1
    26    10    11   am
    27    11    12    2
    28    11    13    1
    29    13    14   ar
    30    14    15    1
    31    14    16   ar
    32    16    17   ar
    33    17    18   ar
    34    18    19   ar
    35    19    20    1
    36    30    26   ar
    37    19    13   ar
    38    40    34   ar
    39     2     3    1
    40    22    25    1
    41    31    32    1
    42    31    33    1
@<TRIPOS>MOLECULE
*****
 40 42 0 0 0
SMALL
GASTEIGER

@<TRIPOS>ATOM
      1 C           6.5960   -3.8445   23.8709 C.3     1  UNL1        0.2120
      2 O           5.1260   -3.5509   23.8168 O.3     1  UNL1       -0.3763
      3 H           4.8022   -3.3553   24.7100 H       1  UNL1        0.2107
      4 C           8.0660   -4.1380   23.9250 C.3     1  UNL1        0.4226
      5 F           9.5359   -4.4316   23.9791 F       1  UNL1       -0.1675
      6 F           8.3392   -2.7052   24.2748 F       1  UNL1       -0.1675
      7 F           7.7927   -5.5709   23.5753 F       1  UNL1       -0.1675
      8 C           6.6073   -4.0614   22.3868 C.3     1  UNL1        0.1308
      9 C           6.6915   -1.6832   21.3441 C.3     1  UNL1        0.1153
     10 N           6.0284   -3.0225   21.4725 N.am    1  UNL1       -0.2714
     11 C           4.7866   -3.3231   20.6867 C.2     1  UNL1        0.2535
     12 O           4.1236   -4.6624   20.8151 O.2     1  UNL1       -0.2697
     13 C           4.2078   -2.2842   19.7725 C.ar    1  UNL1        0.1083
     14 C           4.6706   -2.1967   18.3484 C.ar    1  UNL1        0.1467
     15 F           5.7122   -3.1481   17.8385 F       1  UNL1       -0.2039
     16 C           4.0918   -1.1579   17.4342 C.ar    1  UNL1        0.0299
     17 C           3.0503   -0.2065   17.9440 C.ar    1  UNL1        0.0046
     18 C           2.5875   -0.2940   19.3682 C.ar    1  UNL1        0.0299
     19 C           3.1662   -1.3328   20.2824 C.ar    1  UNL1        0.1467
     20 F           2.7034   -1.4203   21.7066 F       1  UNL1       -0.2039
     21 C           6.5847   -3.6275   25.3551 C.3     1  UNL1        0.1269
     22 N           5.4788   -2.8370   25.9891 N.am    1  UNL1       -0.2982
     23 C           5.7276   -2.0895   27.2656 C.2     1  UNL1        0.2502
     24 O           7.0824   -2.1325   27.9080 O.2     1  UNL1       -0.2700
     25 H           4.5896   -2.8088   25.5675 H       1  UNL1        0.1498
     26 C           4.6217   -1.2989   27.8996 C.ar    1  UNL1        0.1053
     27 C           4.5016   -0.9624   29.3565 C.ar    1  UNL1        0.1278
     28 N           3.2473   -0.1616   29.5453 N.ar    1  UNL1       -0.1622
     29 N           2.5923   -0.0032   28.2052 N.ar    1  UNL1       -0.2163
     30 C           3.4417   -0.7061   27.1881 C.ar    1  UNL1        0.1327
     31 N           3.1605   -0.7998   25.7177 N.pl3   1  UNL1       -0.3424
     32 H           2.3553   -0.3753   25.3425 H       1  UNL1        0.1437
     33 H           3.7811   -1.2857   25.1278 H       1  UNL1        0.1437
     34 C           1.3125    0.7295   27.9305 C.ar    1  UNL1        0.0843
     35 C           1.3247    1.9699   27.0872 C.ar    1  UNL1        0.0215
     36 C           0.0450    2.7025   26.8125 C.ar    1  UNL1        0.0312
     37 C          -1.2469    2.1947   27.3810 C.ar    1  UNL1        0.1402
     38 F          -2.5267    2.9274   27.1062 F       1  UNL1       -0.2042
     39 C          -1.2590    0.9542   28.2242 C.ar    1  UNL1        0.0312
     40 C           0.0207    0.2216   28.4990 C.ar    1  UNL1        0.0215
@<TRIPOS>BOND
     1     9    10    1
     2    10     8    1
     3     8     1    1
     4     1     2    1
     5     1    21    1
     6    21    22    1
     7    22    23   am
     8    23    24    2
     9    23    26    1
    10    26    27   ar
    11    27    28   ar
    12    28    29   ar
    13    29    34    1
    14    34    35   ar
    15    35    36   ar
    16    36    37   ar
    17    37    38    1
    18    37    39   ar
    19    39    40   ar
    20    29    30   ar
    21    30    31    1
    22     1     4    1
    23     4     5    1
    24     4     6    1
    25     4     7    1
    26    10    11   am
    27    11    12    2
    28    11    13    1
    29    13    14   ar
    30    14    15    1
    31    14    16   ar
    32    16    17   ar
    33    17    18   ar
    34    18    19   ar
    35    19    20    1
    36    30    26   ar
    37    19    13   ar
    38    40    34   ar
    39     2     3    1
    40    22    25    1
    41    31    32    1
    42    31    33    1
@<TRIPOS>MOLECULE
*****
 40 42 0 0 0
SMALL
GASTEIGER

@<TRIPOS>ATOM
      1 C           7.4691   -3.9554   24.5957 C.3     1  UNL1        0.2120
      2 O           8.6482   -4.8261   24.2768 O.3     1  UNL1       -0.3763
      3 H           8.5278   -5.6966   24.6874 H       1  UNL1        0.2107
      4 C           6.2900   -3.0847   24.9146 C.3     1  UNL1        0.4226
      5 F           5.1110   -2.2141   25.2334 F       1  UNL1       -0.1675
      6 F           7.1690   -2.1997   25.7478 F       1  UNL1       -0.1675
      7 F           5.4112   -3.9698   24.0813 F       1  UNL1       -0.1675
      8 C           8.0835   -2.8355   23.8096 C.3     1  UNL1        0.1308
      9 C           7.0659   -0.8582   22.4660 C.3     1  UNL1        0.1153
     10 N           7.3968   -2.3167   22.5809 N.am    1  UNL1       -0.2714
     11 C           7.0410   -3.2565   21.4673 C.2     1  UNL1        0.2535
     12 O           7.3719   -4.7150   21.5822 O.2     1  UNL1       -0.2697
     13 C           6.3544   -2.7377   20.2387 C.ar    1  UNL1        0.1083
     14 C           4.8592   -2.6220   20.2077 C.ar    1  UNL1        0.1467
     15 F           4.0507   -3.0250   21.4051 F       1  UNL1       -0.2039
     16 C           4.1725   -2.1032   18.9791 C.ar    1  UNL1        0.0299
     17 C           4.9809   -1.7002   17.7816 C.ar    1  UNL1        0.0046
     18 C           6.4762   -1.8159   17.8127 C.ar    1  UNL1        0.0299
     19 C           7.1629   -2.3347   19.0413 C.ar    1  UNL1        0.1467
     20 F           8.6581   -2.4505   19.0723 F       1  UNL1       -0.2039
     21 C           6.8547   -5.0754   25.3819 C.3     1  UNL1        0.1269
     22 N           6.5148   -4.8773   26.8294 N.am    1  UNL1       -0.2982
     23 C           7.5969   -4.9238   27.8671 C.2     1  UNL1        0.2502
     24 O           9.0190   -5.1684   27.4574 O.2     1  UNL1       -0.2700
     25 H           5.5814   -4.7168   27.0983 H       1  UNL1        0.1498
     26 C           7.2570   -4.7257   29.3146 C.ar    1  UNL1        0.1053
     27 C           7.2711   -5.7850   30.3766 C.ar    1  UNL1        0.1278
     28 N           6.8661   -5.1476   31.6725 N.ar    1  UNL1       -0.1622
     29 N           6.6017   -3.6943   31.4116 N.ar    1  UNL1       -0.2163
     30 C           6.8433   -3.4336   29.9543 C.ar    1  UNL1        0.1327
     31 N           6.6969   -2.1127   29.2588 N.pl3   1  UNL1       -0.3424
     32 H           6.4186   -1.3169   29.7672 H       1  UNL1        0.1437
     33 H           6.8790   -2.0416   28.2939 H       1  UNL1        0.1437
     34 C           6.1712   -2.6798   32.4292 C.ar    1  UNL1        0.0843
     35 C           7.1376   -1.6341   32.9010 C.ar    1  UNL1        0.0215
     36 C           6.7071   -0.6197   33.9186 C.ar    1  UNL1        0.0312
     37 C           5.3103   -0.6509   34.4644 C.ar    1  UNL1        0.1402
     38 F           4.8799    0.3636   35.4821 F       1  UNL1       -0.2042
     39 C           4.3439   -1.6966   33.9926 C.ar    1  UNL1        0.0312
     40 C           4.7744   -2.7110   32.9750 C.ar    1  UNL1        0.0215
@<TRIPOS>BOND
     1     9    10    1
     2    10     8    1
     3     8     1    1
     4     1     2    1
     5     1    21    1
     6    21    22    1
     7    22    23   am
     8    23    24    2
     9    23    26    1
    10    26    27   ar
    11    27    28   ar
    12    28    29   ar
    13    29    34    1
    14    34    35   ar
    15    35    36   ar
    16    36    37   ar
    17    37    38    1
    18    37    39   ar
    19    39    40   ar
    20    29    30   ar
    21    30    31    1
    22     1     4    1
    23     4     5    1
    24     4     6    1
    25     4     7    1
    26    10    11   am
    27    11    12    2
    28    11    13    1
    29    13    14   ar
    30    14    15    1
    31    14    16   ar
    32    16    17   ar
    33    17    18   ar
    34    18    19   ar
    35    19    20    1
    36    30    26   ar
    37    19    13   ar
    38    40    34   ar
    39     2     3    1
    40    22    25    1
    41    31    32    1
    42    31    33    1
@<TRIPOS>MOLECULE
*****
 40 42 0 0 0
SMALL
GASTEIGER

@<TRIPOS>ATOM
      1 C           5.0170   -2.7375   19.7827 C.3     1  UNL1        0.2120
      2 O           5.2021   -1.4656   20.5561 O.3     1  UNL1       -0.3763
      3 H           6.1200   -1.4050   20.8636 H       1  UNL1        0.2107
      4 C           4.8318   -4.0094   19.0093 C.3     1  UNL1        0.4226
      5 F           4.6467   -5.2812   18.2360 F       1  UNL1       -0.1675
      6 F           3.9186   -4.5277   20.0805 F       1  UNL1       -0.1675
      7 F           5.7450   -3.4910   17.9382 F       1  UNL1       -0.1675
      8 C           3.5769   -2.3874   19.5516 C.3     1  UNL1        0.1308
      9 C           3.3830   -0.7840   17.5164 C.3     1  UNL1        0.1153
     10 N           3.2126   -1.0478   18.9832 N.am    1  UNL1       -0.2714
     11 C           2.6781    0.0279   19.8815 C.2     1  UNL1        0.2535
     12 O           2.5077   -0.2359   21.3483 O.2     1  UNL1       -0.2697
     13 C           2.3138    1.3674   19.3131 C.ar    1  UNL1        0.1083
     14 C           0.8752    1.7859   19.2421 C.ar    1  UNL1        0.1467
     15 F          -0.1993    0.8649   19.7395 F       1  UNL1       -0.2039
     16 C           0.5109    3.1253   18.6736 C.ar    1  UNL1        0.0299
     17 C           1.5853    4.0464   18.1762 C.ar    1  UNL1        0.0046
     18 C           3.0240    3.6278   18.2472 C.ar    1  UNL1        0.0299
     19 C           3.3883    2.2884   18.8157 C.ar    1  UNL1        0.1467
     20 F           4.8269    1.8699   18.8867 F       1  UNL1       -0.2039
     21 C           6.4571   -3.0877   20.0138 C.3     1  UNL1        0.1269
     22 N           6.8303   -4.0436   21.1078 N.am    1  UNL1       -0.2982
     23 C           7.0596   -3.5367   22.5008 C.2     1  UNL1        0.2502
     24 O           6.9157   -2.0738   22.7998 O.2     1  UNL1       -0.2700
     25 H           6.9248   -5.0037   20.9116 H       1  UNL1        0.1498
     26 C           7.4328   -4.4926   23.5948 C.ar    1  UNL1        0.1053
     27 C           8.0568   -5.8441   23.4100 C.ar    1  UNL1        0.1278
     28 N           8.2572   -6.4516   24.7667 N.ar    1  UNL1       -0.1622
     29 N           7.7571   -5.4757   25.7901 N.ar    1  UNL1       -0.2163
     30 C           7.2476   -4.2649   25.0658 C.ar    1  UNL1        0.1327
     31 N           6.6566   -3.0413   25.7010 N.pl3   1  UNL1       -0.3424
     32 H           6.5765   -2.9851   26.6807 H       1  UNL1        0.1437
     33 H           6.3487   -2.2944   25.1383 H       1  UNL1        0.1437
     34 C           7.7650   -5.6753   27.2768 C.ar    1  UNL1        0.0843
     35 C           6.6105   -5.1936   28.1044 C.ar    1  UNL1        0.0215
     36 C           6.6185   -5.3933   29.5910 C.ar    1  UNL1        0.0312
     37 C           7.7810   -6.0747   30.2500 C.ar    1  UNL1        0.1402
     38 F           7.7889   -6.2744   31.7366 F       1  UNL1       -0.2042
     39 C           8.9355   -6.5564   29.4224 C.ar    1  UNL1        0.0312
     40 C           8.9275   -6.3568   27.9358 C.ar    1  UNL1        0.0215
@<TRIPOS>BOND
     1     9    10    1
     2    10     8    1
     3     8     1    1
     4     1     2    1
     5     1    21    1
     6    21    22    1
     7    22    23   am
     8    23    24    2
     9    23    26    1
    10    26    27   ar
    11    27    28   ar
    12    28    29   ar
    13    29    34    1
    14    34    35   ar
    15    35    36   ar
    16    36    37   ar
    17    37    38    1
    18    37    39   ar
    19    39    40   ar
    20    29    30   ar
    21    30    31    1
    22     1     4    1
    23     4     5    1
    24     4     6    1
    25     4     7    1
    26    10    11   am
    27    11    12    2
    28    11    13    1
    29    13    14   ar
    30    14    15    1
    31    14    16   ar
    32    16    17   ar
    33    17    18   ar
    34    18    19   ar
    35    19    20    1
    36    30    26   ar
    37    19    13   ar
    38    40    34   ar
    39     2     3    1
    40    22    25    1
    41    31    32    1
    42    31    33    1
@<TRIPOS>MOLECULE
*****
 40 42 0 0 0
SMALL
GASTEIGER

@<TRIPOS>ATOM
      1 C           0.9464    0.4719   19.7540 C.3     1  UNL1        0.2120
      2 O          -0.2141   -0.1273   20.4917 O.3     1  UNL1       -0.3763
      3 H          -0.8503    0.5701   20.7150 H       1  UNL1        0.2107
      4 C           2.1068    1.0712   19.0163 C.3     1  UNL1        0.4226
      5 F           3.2672    1.6704   18.2786 F       1  UNL1       -0.1675
      6 F           2.3981    1.9550   20.1927 F       1  UNL1       -0.1675
      7 F           1.8155    0.1873   17.8399 F       1  UNL1       -0.1675
      8 C           1.5794   -0.8838   19.6486 C.3     1  UNL1        0.1308
      9 C           2.7862   -0.8368   21.9490 C.3     1  UNL1        0.1153
     10 N           2.7659   -1.2257   20.5005 N.am    1  UNL1       -0.2714
     11 C           3.9319   -1.9566   19.9037 C.2     1  UNL1        0.2535
     12 O           3.9117   -2.3455   18.4552 O.2     1  UNL1       -0.2697
     13 C           5.1183   -2.2985   20.7556 C.ar    1  UNL1        0.1083
     14 C           5.1303   -3.5718   21.5484 C.ar    1  UNL1        0.1467
     15 F           3.9559   -4.5031   21.4894 F       1  UNL1       -0.2039
     16 C           6.3166   -3.9137   22.4003 C.ar    1  UNL1        0.0299
     17 C           7.4910   -2.9824   22.4594 C.ar    1  UNL1        0.0046
     18 C           7.4790   -1.7091   21.6665 C.ar    1  UNL1        0.0299
     19 C           6.2927   -1.3672   20.8146 C.ar    1  UNL1        0.1467
     20 F           6.2807   -0.0939   20.0218 F       1  UNL1       -0.2039
     21 C           0.3132    1.8277   19.8594 C.3     1  UNL1        0.1269
     22 N          -0.7636    2.0758   20.8736 N.am    1  UNL1       -0.2982
     23 C          -0.6053    3.1748   21.8822 C.2     1  UNL1        0.2502
     24 O           0.6300    4.0257   21.8765 O.2     1  UNL1       -0.2700
     25 H          -1.5744    1.5173   20.8774 H       1  UNL1        0.1498
     26 C          -1.6821    3.4228   22.8964 C.ar    1  UNL1        0.1053
     27 C          -1.5635    3.2149   24.3773 C.ar    1  UNL1        0.1278
     28 N          -2.8748    3.5860   25.0040 N.ar    1  UNL1       -0.1622
     29 N          -3.8039    4.0232   23.9106 N.ar    1  UNL1       -0.2163
     30 C          -3.0668    3.9224   22.6081 C.ar    1  UNL1        0.1327
     31 N          -3.6176    4.2616   21.2547 N.pl3   1  UNL1       -0.3424
     32 H          -4.5437    4.5838   21.1668 H       1  UNL1        0.1437
     33 H          -3.0530    4.1620   20.4544 H       1  UNL1        0.1437
     34 C          -5.2213    4.4810   24.0884 C.ar    1  UNL1        0.0843
     35 C          -5.5631    5.4587   25.1734 C.ar    1  UNL1        0.0215
     36 C          -6.9805    5.9163   25.3512 C.ar    1  UNL1        0.0312
     37 C          -8.0559    5.3964   24.4440 C.ar    1  UNL1        0.1402
     38 F          -9.4733    5.8541   24.6218 F       1  UNL1       -0.2042
     39 C          -7.7141    4.4187   23.3590 C.ar    1  UNL1        0.0312
     40 C          -6.2967    3.9610   23.1812 C.ar    1  UNL1        0.0215
@<TRIPOS>BOND
     1     9    10    1
     2    10     8    1
     3     8     1    1
     4     1     2    1
     5     1    21    1
     6    21    22    1
     7    22    23   am
     8    23    24    2
     9    23    26    1
    10    26    27   ar
    11    27    28   ar
    12    28    29   ar
    13    29    34    1
    14    34    35   ar
    15    35    36   ar
    16    36    37   ar
    17    37    38    1
    18    37    39   ar
    19    39    40   ar
    20    29    30   ar
    21    30    31    1
    22     1     4    1
    23     4     5    1
    24     4     6    1
    25     4     7    1
    26    10    11   am
    27    11    12    2
    28    11    13    1
    29    13    14   ar
    30    14    15    1
    31    14    16   ar
    32    16    17   ar
    33    17    18   ar
    34    18    19   ar
    35    19    20    1
    36    30    26   ar
    37    19    13   ar
    38    40    34   ar
    39     2     3    1
    40    22    25    1
    41    31    32    1
    42    31    33    1
@<TRIPOS>MOLECULE
*****
 40 42 0 0 0
SMALL
GASTEIGER

@<TRIPOS>ATOM
      1 C           4.7405   -3.1094   19.4571 C.3     1  UNL1        0.2120
      2 O           5.3232   -1.7368   19.2947 O.3     1  UNL1       -0.3763
      3 H           6.2913   -1.7913   19.3203 H       1  UNL1        0.2107
      4 C           4.1579   -4.4821   19.6195 C.3     1  UNL1        0.4226
      5 F           3.5753   -5.8547   19.7819 F       1  UNL1       -0.1675
      6 F           3.5984   -4.0866   20.9539 F       1  UNL1       -0.1675
      7 F           4.7174   -4.8775   18.2851 F       1  UNL1       -0.1675
      8 C           3.3587   -2.5347   19.3577 C.3     1  UNL1        0.1308
      9 C           2.8405   -0.4211   20.7771 C.3     1  UNL1        0.1153
     10 N           3.1546   -1.0516   19.4527 N.am    1  UNL1       -0.2714
     11 C           3.2647   -0.1990   18.2235 C.2     1  UNL1        0.2535
     12 O           3.5789   -0.8295   16.8992 O.2     1  UNL1       -0.2697
     13 C           3.0607    1.2840   18.3186 C.ar    1  UNL1        0.1083
     14 C           4.2420    2.2075   18.2803 C.ar    1  UNL1        0.1467
     15 F           5.6274    1.6481   18.1469 F       1  UNL1       -0.2039
     16 C           4.0379    3.6905   18.3754 C.ar    1  UNL1        0.0299
     17 C           2.6526    4.2501   18.5089 C.ar    1  UNL1        0.0046
     18 C           1.4712    3.3264   18.5472 C.ar    1  UNL1        0.0299
     19 C           1.6753    1.8434   18.4521 C.ar    1  UNL1        0.1467
     20 F           0.4940    0.9199   18.4904 F       1  UNL1       -0.2039
     21 C           6.1225   -3.6842   19.5565 C.3     1  UNL1        0.1269
     22 N           6.6214   -4.2151   20.8677 N.am    1  UNL1       -0.2982
     23 C           6.6543   -3.3241   22.0739 C.2     1  UNL1        0.2502
     24 O           6.1882   -1.9022   21.9690 O.2     1  UNL1       -0.2700
     25 H           6.9273   -5.1483   20.9366 H       1  UNL1        0.1498
     26 C           7.1532   -3.8549   23.3851 C.ar    1  UNL1        0.1053
     27 C           8.3171   -4.7818   23.5756 C.ar    1  UNL1        0.1278
     28 N           8.4591   -5.0519   25.0443 N.ar    1  UNL1       -0.1622
     29 N           7.3830   -4.2919   25.7615 N.ar    1  UNL1       -0.2163
     30 C           6.5759   -3.5521   24.7361 C.ar    1  UNL1        0.1327
     31 N           5.3983   -2.6653   25.0129 N.pl3   1  UNL1       -0.3424
     32 H           5.0925   -2.5278   25.9386 H       1  UNL1        0.1437
     33 H           4.9311   -2.2208   24.2690 H       1  UNL1        0.1437
     34 C           7.1541   -4.2746   27.2439 C.ar    1  UNL1        0.0843
     35 C           6.9584   -5.5625   27.9876 C.ar    1  UNL1        0.0215
     36 C           6.7295   -5.5452   29.4699 C.ar    1  UNL1        0.0312
     37 C           6.6963   -4.2400   30.2085 C.ar    1  UNL1        0.1402
     38 F           6.4674   -4.2228   31.6908 F       1  UNL1       -0.2042
     39 C           6.8920   -2.9522   29.4647 C.ar    1  UNL1        0.0312
     40 C           7.1208   -2.9695   27.9824 C.ar    1  UNL1        0.0215
@<TRIPOS>BOND
     1     9    10    1
     2    10     8    1
     3     8     1    1
     4     1     2    1
     5     1    21    1
     6    21    22    1
     7    22    23   am
     8    23    24    2
     9    23    26    1
    10    26    27   ar
    11    27    28   ar
    12    28    29   ar
    13    29    34    1
    14    34    35   ar
    15    35    36   ar
    16    36    37   ar
    17    37    38    1
    18    37    39   ar
    19    39    40   ar
    20    29    30   ar
    21    30    31    1
    22     1     4    1
    23     4     5    1
    24     4     6    1
    25     4     7    1
    26    10    11   am
    27    11    12    2
    28    11    13    1
    29    13    14   ar
    30    14    15    1
    31    14    16   ar
    32    16    17   ar
    33    17    18   ar
    34    18    19   ar
    35    19    20    1
    36    30    26   ar
    37    19    13   ar
    38    40    34   ar
    39     2     3    1
    40    22    25    1
    41    31    32    1
    42    31    33    1
@<TRIPOS>MOLECULE
*****
 40 42 0 0 0
SMALL
GASTEIGER

@<TRIPOS>ATOM
      1 C           5.9330   -2.6109   19.8581 C.3     1  UNL1        0.2120
      2 O           7.1369   -2.0393   20.5466 O.3     1  UNL1       -0.3763
      3 H           7.5259   -2.7109   21.1285 H       1  UNL1        0.2107
      4 C           4.7292   -3.1825   19.1696 C.3     1  UNL1        0.4226
      5 F           3.5254   -3.7541   18.4811 F       1  UNL1       -0.1675
      6 F           5.4672   -3.1636   17.8638 F       1  UNL1       -0.1675
      7 F           3.9913   -3.2014   20.4754 F       1  UNL1       -0.1675
      8 C           5.7207   -1.3073   19.1472 C.3     1  UNL1        0.1308
      9 C           4.5123    0.1462   20.9297 C.3     1  UNL1        0.1153
     10 N           4.5803   -0.4156   19.5405 N.am    1  UNL1       -0.2714
     11 C           3.5081   -0.0858   18.5448 C.2     1  UNL1        0.2535
     12 O           3.5762   -0.6477   17.1556 O.2     1  UNL1       -0.2697
     13 C           2.3679    0.8058   18.9381 C.ar    1  UNL1        0.1083
     14 C           2.4068    2.2666   18.5996 C.ar    1  UNL1        0.1467
     15 F           3.5861    2.8357   17.8678 F       1  UNL1       -0.2039
     16 C           1.2666    3.1582   18.9930 C.ar    1  UNL1        0.0299
     17 C           0.0873    2.5892   19.7249 C.ar    1  UNL1        0.0046
     18 C           0.0484    1.1284   20.0634 C.ar    1  UNL1        0.0299
     19 C           1.1887    0.2367   19.6700 C.ar    1  UNL1        0.1467
     20 F           1.1497   -1.2241   20.0085 F       1  UNL1       -0.2039
     21 C           6.1454   -3.9146   20.5690 C.3     1  UNL1        0.1269
     22 N           6.8456   -3.9402   21.8953 N.am    1  UNL1       -0.2982
     23 C           6.0579   -3.7852   23.1624 C.2     1  UNL1        0.2502
     24 O           4.5700   -3.6046   23.1032 O.2     1  UNL1       -0.2700
     25 H           7.8222   -4.0587   21.9342 H       1  UNL1        0.1498
     26 C           6.7581   -3.8108   24.4887 C.ar    1  UNL1        0.1053
     27 C           8.0753   -4.4678   24.7778 C.ar    1  UNL1        0.1278
     28 N           8.3953   -4.2470   26.2266 N.ar    1  UNL1       -0.1622
     29 N           7.2760   -3.4535   26.8328 N.ar    1  UNL1       -0.2163
     30 C           6.2641   -3.1840   25.7588 C.ar    1  UNL1        0.1327
     31 N           4.9832   -2.4215   25.9255 N.pl3   1  UNL1       -0.3424
     32 H           4.7448   -2.0457   26.8037 H       1  UNL1        0.1437
     33 H           4.3809   -2.2968   25.1567 H       1  UNL1        0.1437
     34 C           7.1845   -3.0079   28.2622 C.ar    1  UNL1        0.0843
     35 C           7.5246   -1.5941   28.6303 C.ar    1  UNL1        0.0215
     36 C           7.4331   -1.1485   30.0596 C.ar    1  UNL1        0.0312
     37 C           7.0015   -2.1167   31.1209 C.ar    1  UNL1        0.1402
     38 F           6.9100   -1.6710   32.5503 F       1  UNL1       -0.2042
     39 C           6.6614   -3.5305   30.7528 C.ar    1  UNL1        0.0312
     40 C           6.7529   -3.9761   29.3235 C.ar    1  UNL1        0.0215
@<TRIPOS>BOND
     1     9    10    1
     2    10     8    1
     3     8     1    1
     4     1     2    1
     5     1    21    1
     6    21    22    1
     7    22    23   am
     8    23    24    2
     9    23    26    1
    10    26    27   ar
    11    27    28   ar
    12    28    29   ar
    13    29    34    1
    14    34    35   ar
    15    35    36   ar
    16    36    37   ar
    17    37    38    1
    18    37    39   ar
    19    39    40   ar
    20    29    30   ar
    21    30    31    1
    22     1     4    1
    23     4     5    1
    24     4     6    1
    25     4     7    1
    26    10    11   am
    27    11    12    2
    28    11    13    1
    29    13    14   ar
    30    14    15    1
    31    14    16   ar
    32    16    17   ar
    33    17    18   ar
    34    18    19   ar
    35    19    20    1
    36    30    26   ar
    37    19    13   ar
    38    40    34   ar
    39     2     3    1
    40    22    25    1
    41    31    32    1
    42    31    33    1
@<TRIPOS>MOLECULE
*****
 40 42 0 0 0
SMALL
GASTEIGER

@<TRIPOS>ATOM
      1 C           7.1938   -2.1852   20.0205 C.3     1  UNL1        0.2120
      2 O           8.0709   -1.6257   21.1011 O.3     1  UNL1       -0.3763
      3 H           8.5411   -2.3499   21.5432 H       1  UNL1        0.2107
      4 C           6.3166   -2.7447   18.9399 C.3     1  UNL1        0.4226
      5 F           5.4396   -3.3041   17.8593 F       1  UNL1       -0.1675
      6 F           5.3990   -3.3152   19.9803 F       1  UNL1       -0.1675
      7 F           7.2344   -2.1741   17.8996 F       1  UNL1       -0.1675
      8 C           6.7327   -0.7997   19.6775 C.3     1  UNL1        0.1308
      9 C           4.9494   -0.2957   21.4985 C.3     1  UNL1        0.1153
     10 N           5.3507   -0.3544   20.0543 N.am    1  UNL1       -0.2714
     11 C           4.3702    0.0322   18.9871 C.2     1  UNL1        0.2535
     12 O           4.7715   -0.0265   17.5430 O.2     1  UNL1       -0.2697
     13 C           2.9883    0.4776   19.3640 C.ar    1  UNL1        0.1083
     14 C           1.9867   -0.5233   19.8590 C.ar    1  UNL1        0.1467
     15 F           2.3669   -1.9695   19.9770 F       1  UNL1       -0.2039
     16 C           0.6048   -0.0780   20.2359 C.ar    1  UNL1        0.0299
     17 C           0.2244    1.3682   20.1179 C.ar    1  UNL1        0.0046
     18 C           1.2261    2.3691   19.6229 C.ar    1  UNL1        0.0299
     19 C           2.6080    1.9238   19.2460 C.ar    1  UNL1        0.1467
     20 F           3.6096    2.9247   18.7511 F       1  UNL1       -0.2039
     21 C           7.6549   -3.5708   20.3636 C.3     1  UNL1        0.1269
     22 N           8.1471   -3.8763   21.7471 N.am    1  UNL1       -0.2982
     23 C           7.1726   -4.2509   22.8242 C.2     1  UNL1        0.2502
     24 O           5.7059   -4.3200   22.5177 O.2     1  UNL1       -0.2700
     25 H           9.1098   -3.8310   21.9483 H       1  UNL1        0.1498
     26 C           7.6649   -4.5565   24.2078 C.ar    1  UNL1        0.1053
     27 C           8.9060   -5.3253   24.5523 C.ar    1  UNL1        0.1278
     28 N           9.0106   -5.3909   26.0472 N.ar    1  UNL1       -0.1622
     29 N           7.8342   -4.6627   26.6266 N.ar    1  UNL1       -0.2163
     30 C           7.0025   -4.1470   25.4898 C.ar    1  UNL1        0.1327
     31 N           5.7315   -3.3600   25.6132 N.pl3   1  UNL1       -0.3424
     32 H           5.3739   -3.1390   26.5035 H       1  UNL1        0.1437
     33 H           5.2550   -3.0645   24.8041 H       1  UNL1        0.1437
     34 C           7.5409   -4.4819   28.0866 C.ar    1  UNL1        0.0843
     35 C           7.2222   -5.6730   28.9407 C.ar    1  UNL1        0.0215
     36 C           6.9289   -5.4921   30.4005 C.ar    1  UNL1        0.0312
     37 C           6.9544   -4.1201   31.0063 C.ar    1  UNL1        0.1402
     38 F           6.6611   -3.9393   32.4662 F       1  UNL1       -0.2042
     39 C           7.2731   -2.9290   30.1522 C.ar    1  UNL1        0.0312
     40 C           7.5664   -3.1098   28.6923 C.ar    1  UNL1        0.0215
@<TRIPOS>BOND
     1     9    10    1
     2    10     8    1
     3     8     1    1
     4     1     2    1
     5     1    21    1
     6    21    22    1
     7    22    23   am
     8    23    24    2
     9    23    26    1
    10    26    27   ar
    11    27    28   ar
    12    28    29   ar
    13    29    34    1
    14    34    35   ar
    15    35    36   ar
    16    36    37   ar
    17    37    38    1
    18    37    39   ar
    19    39    40   ar
    20    29    30   ar
    21    30    31    1
    22     1     4    1
    23     4     5    1
    24     4     6    1
    25     4     7    1
    26    10    11   am
    27    11    12    2
    28    11    13    1
    29    13    14   ar
    30    14    15    1
    31    14    16   ar
    32    16    17   ar
    33    17    18   ar
    34    18    19   ar
    35    19    20    1
    36    30    26   ar
    37    19    13   ar
    38    40    34   ar
    39     2     3    1
    40    22    25    1
    41    31    32    1
    42    31    33    1
@<TRIPOS>MOLECULE
*****
 40 42 0 0 0
SMALL
GASTEIGER

@<TRIPOS>ATOM
      1 C           5.3790   -3.5633   20.3104 C.3     1  UNL1        0.2120
      2 O           4.8487   -4.1142   21.6009 O.3     1  UNL1       -0.3763
      3 H           5.5862   -4.4372   22.1419 H       1  UNL1        0.2107
      4 C           5.9092   -3.0124   19.0199 C.3     1  UNL1        0.4226
      5 F           6.4394   -2.4615   17.7295 F       1  UNL1       -0.1675
      6 F           5.1691   -4.0747   18.2624 F       1  UNL1       -0.1675
      7 F           6.6492   -1.9501   19.7774 F       1  UNL1       -0.1675
      8 C           3.9819   -3.2283   19.8794 C.3     1  UNL1        0.1308
      9 C           3.3758   -1.0862   18.5398 C.3     1  UNL1        0.1153
     10 N           3.5282   -1.7988   19.8509 N.am    1  UNL1       -0.2714
     11 C           3.2270   -1.0818   21.1336 C.2     1  UNL1        0.2535
     12 O           3.3795   -1.7943   22.4447 O.2     1  UNL1       -0.2697
     13 C           2.7734    0.3477   21.1051 C.ar    1  UNL1        0.1083
     14 C           3.7608    1.4526   21.3374 C.ar    1  UNL1        0.1467
     15 F           5.2019    1.1281   21.5983 F       1  UNL1       -0.2039
     16 C           3.3072    2.8821   21.3089 C.ar    1  UNL1        0.0299
     17 C           1.8662    3.2067   21.0481 C.ar    1  UNL1        0.0046
     18 C           0.8787    2.1016   20.8157 C.ar    1  UNL1        0.0299
     19 C           1.3323    0.6722   20.8442 C.ar    1  UNL1        0.1467
     20 F           0.3449   -0.4328   20.6118 F       1  UNL1       -0.2039
     21 C           6.7761   -3.8983   20.7414 C.3     1  UNL1        0.1269
     22 N           7.1046   -4.0087   22.2008 N.am    1  UNL1       -0.2982
     23 C           7.9728   -5.1292   22.6915 C.2     1  UNL1        0.2502
     24 O           8.5125   -6.1393   21.7228 O.2     1  UNL1       -0.2700
     25 H           6.7504   -3.3458   22.8367 H       1  UNL1        0.1498
     26 C           8.3013   -5.2397   24.1509 C.ar    1  UNL1        0.1053
     27 C           9.5342   -5.8658   24.7322 C.ar    1  UNL1        0.1278
     28 N           9.4495   -5.7565   26.2258 N.ar    1  UNL1       -0.1622
     29 N           8.1642   -5.0627   26.5676 N.ar    1  UNL1       -0.2163
     30 C           7.4546   -4.7433   25.2852 C.ar    1  UNL1        0.1327
     31 N           6.1308   -4.0494   25.1593 N.pl3   1  UNL1       -0.3424
     32 H           5.6481   -3.7596   25.9670 H       1  UNL1        0.1437
     33 H           5.7445   -3.8839   24.2690 H       1  UNL1        0.1437
     34 C           7.6745   -4.7443   27.9493 C.ar    1  UNL1        0.0843
     35 C           7.5403   -3.3158   28.3867 C.ar    1  UNL1        0.0215
     36 C           7.0506   -2.9974   29.7683 C.ar    1  UNL1        0.0312
     37 C           6.6950   -4.1075   30.7124 C.ar    1  UNL1        0.1402
     38 F           6.2053   -3.7891   32.0940 F       1  UNL1       -0.2042
     39 C           6.8292   -5.5360   30.2749 C.ar    1  UNL1        0.0312
     40 C           7.3190   -5.8544   28.8934 C.ar    1  UNL1        0.0215
@<TRIPOS>BOND
     1     9    10    1
     2    10     8    1
     3     8     1    1
     4     1     2    1
     5     1    21    1
     6    21    22    1
     7    22    23   am
     8    23    24    2
     9    23    26    1
    10    26    27   ar
    11    27    28   ar
    12    28    29   ar
    13    29    34    1
    14    34    35   ar
    15    35    36   ar
    16    36    37   ar
    17    37    38    1
    18    37    39   ar
    19    39    40   ar
    20    29    30   ar
    21    30    31    1
    22     1     4    1
    23     4     5    1
    24     4     6    1
    25     4     7    1
    26    10    11   am
    27    11    12    2
    28    11    13    1
    29    13    14   ar
    30    14    15    1
    31    14    16   ar
    32    16    17   ar
    33    17    18   ar
    34    18    19   ar
    35    19    20    1
    36    30    26   ar
    37    19    13   ar
    38    40    34   ar
    39     2     3    1
    40    22    25    1
    41    31    32    1
    42    31    33    1
