@<TRIPOS>MOLECULE
*****
 21 23 0 0 0
SMALL
GASTEIGER

@<TRIPOS>ATOM
      1 C          -7.7199  -18.8007   21.0651 C.2     1  UNL1        0.1818
      2 O          -8.6005  -19.0765   19.8826 O.2     1  UNL1       -0.2903
      3 C          -6.2714  -19.1886   21.0282 C.2     1  UNL1        0.0183
      4 C          -5.8264  -20.3471   20.1859 C.2     1  UNL1        0.0005
      5 C          -4.3778  -20.7350   20.1490 C.2     1  UNL1        0.0204
      6 C          -3.3743  -19.9643   20.9546 C.2     1  UNL1        0.1007
      7 N          -1.8904  -20.1121   21.1164 N.2     1  UNL1       -0.1482
      8 N          -1.4184  -19.0449   22.0588 N.2     1  UNL1       -0.1467
      9 C          -2.6105  -18.2375   22.4795 C.2     1  UNL1        0.1197
     10 C          -3.8194  -18.8057   21.7970 C.2     1  UNL1        0.0226
     11 C          -5.2679  -18.4179   21.8338 C.3     1  UNL1        0.0588
     12 C          -8.2877  -18.1370   22.2845 C.3     1  UNL1        0.0977
     13 C          -8.8871  -17.7670   23.6089 C.3     1  UNL1        0.0233
     14 C          -8.9878  -16.2717   23.6706 C.3     1  UNL1        0.0189
     15 C          -8.4507  -15.7175   22.3844 C.3     1  UNL1        0.0689
     16 N          -8.0180  -16.8702   21.5277 N.3     1  UNL1       -0.2938
     17 H          -7.0216  -16.7947   21.3232 H       1  UNL1        0.1235
     18 C          -8.4388  -19.5424   22.7864 C.3     1  UNL1        0.0219
     19 C         -10.0076  -20.5428   24.5997 C.3     1  UNL1        0.0001
     20 C          -9.7882  -20.0502   23.1999 C.3     1  UNL1        0.0017
     21 C         -10.9184  -20.0654   22.2137 C.3     1  UNL1        0.0001
@<TRIPOS>BOND
     1    19    20    1
     2    20    21    1
     3    20    18    1
     4    18    12    1
     5    12     1    1
     6     1     2    2
     7     1     3    1
     8     3     4    2
     9     4     5    1
    10     5     6    2
    11     6     7    1
    12     7     8    2
    13     8     9    1
    14     9    10    2
    15    10    11    1
    16    12    13    1
    17    13    14    1
    18    14    15    1
    19    15    16    1
    20    16    12    1
    21    11     3    1
    22    10     6    1
    23    16    17    1
@<TRIPOS>MOLECULE
*****
 21 23 0 0 0
SMALL
GASTEIGER

@<TRIPOS>ATOM
      1 C          -8.1266  -17.8681   22.0964 C.2     1  UNL1        0.1818
      2 O          -8.0218  -16.5325   22.7709 O.2     1  UNL1       -0.2903
      3 C          -6.8851  -18.5840   21.6532 C.2     1  UNL1        0.0183
      4 C          -6.9432  -19.5432   20.5015 C.2     1  UNL1        0.0005
      5 C          -5.7017  -20.2590   20.0583 C.2     1  UNL1        0.0204
      6 C          -4.4022  -20.0156   20.7669 C.2     1  UNL1        0.1007
      7 N          -3.0250  -20.5714   20.5567 N.2     1  UNL1       -0.1482
      8 N          -2.1157  -19.9557   21.5785 N.2     1  UNL1       -0.1467
      9 C          -2.9310  -19.0193   22.4202 C.2     1  UNL1        0.1197
     10 C          -4.3442  -19.0563   21.9186 C.2     1  UNL1        0.0226
     11 C          -5.5856  -18.3405   22.3617 C.3     1  UNL1        0.0588
     12 C          -9.4728  -18.4879   21.8650 C.3     1  UNL1        0.0977
     13 C         -10.7169  -19.3255   21.8348 C.3     1  UNL1        0.0233
     14 C         -11.6929  -18.6722   20.9019 C.3     1  UNL1        0.0189
     15 C         -11.0521  -17.4310   20.3554 C.3     1  UNL1        0.0689
     16 N          -9.6800  -17.3170   20.9506 N.3     1  UNL1       -0.2938
     17 H          -9.6028  -16.4477   21.4785 H       1  UNL1        0.1235
     18 C          -8.9841  -19.5293   22.8277 C.3     1  UNL1        0.0219
     19 C          -9.8436  -20.9749   24.8080 C.3     1  UNL1        0.0001
     20 C          -9.5903  -19.6290   24.1961 C.3     1  UNL1        0.0017
     21 C          -9.9432  -18.3828   24.9527 C.3     1  UNL1        0.0001
@<TRIPOS>BOND
     1    19    20    1
     2    20    21    1
     3    20    18    1
     4    18    12    1
     5    12     1    1
     6     1     2    2
     7     1     3    1
     8     3     4    2
     9     4     5    1
    10     5     6    2
    11     6     7    1
    12     7     8    2
    13     8     9    1
    14     9    10    2
    15    10    11    1
    16    12    13    1
    17    13    14    1
    18    14    15    1
    19    15    16    1
    20    16    12    1
    21    11     3    1
    22    10     6    1
    23    16    17    1
@<TRIPOS>MOLECULE
*****
 21 23 0 0 0
SMALL
GASTEIGER

@<TRIPOS>ATOM
      1 C          -9.2749  -18.1318   21.9064 C.2     1  UNL1        0.1818
      2 O          -8.5292  -19.3053   21.3437 O.2     1  UNL1       -0.2903
      3 C          -8.6159  -17.2378   22.9147 C.2     1  UNL1        0.0183
      4 C          -9.4435  -16.5410   23.9535 C.2     1  UNL1        0.0005
      5 C          -8.7845  -15.6469   24.9618 C.2     1  UNL1        0.0204
      6 C          -7.2978  -15.4498   24.9310 C.2     1  UNL1        0.1007
      7 N          -6.3754  -14.6354   25.7888 N.2     1  UNL1       -0.1482
      8 N          -4.9777  -14.8289   25.2800 N.2     1  UNL1       -0.1467
      9 C          -5.0363  -15.7629   24.1078 C.2     1  UNL1        0.1197
     10 C          -6.4702  -16.1467   23.8921 C.2     1  UNL1        0.0226
     11 C          -7.1292  -17.0407   22.8839 C.3     1  UNL1        0.0588
     12 C         -10.6796  -17.8522   21.4609 C.3     1  UNL1        0.0977
     13 C         -12.1452  -17.8535   21.1409 C.3     1  UNL1        0.0233
     14 C         -12.4667  -16.5692   20.4359 C.3     1  UNL1        0.0189
     15 C         -11.2000  -15.7742   20.3201 C.3     1  UNL1        0.0689
     16 N         -10.0955  -16.5672   20.9536 N.3     1  UNL1       -0.2938
     17 H          -9.6919  -16.0407   21.7283 H       1  UNL1        0.1235
     18 C         -10.9701  -19.1958   22.0614 C.3     1  UNL1        0.0219
     19 C         -12.3526  -18.5392   24.1608 C.3     1  UNL1        0.0001
     20 C         -11.2352  -19.3182   23.5327 C.3     1  UNL1        0.0017
     21 C         -10.3829  -20.2197   24.3758 C.3     1  UNL1        0.0001
@<TRIPOS>BOND
     1    19    20    1
     2    20    21    1
     3    20    18    1
     4    18    12    1
     5    12     1    1
     6     1     2    2
     7     1     3    1
     8     3     4    2
     9     4     5    1
    10     5     6    2
    11     6     7    1
    12     7     8    2
    13     8     9    1
    14     9    10    2
    15    10    11    1
    16    12    13    1
    17    13    14    1
    18    14    15    1
    19    15    16    1
    20    16    12    1
    21    11     3    1
    22    10     6    1
    23    16    17    1
@<TRIPOS>MOLECULE
*****
 21 23 0 0 0
SMALL
GASTEIGER

@<TRIPOS>ATOM
      1 C          -9.9716  -16.4074   21.7084 C.2     1  UNL1        0.1818
      2 O         -10.2982  -15.3190   20.7294 O.2     1  UNL1       -0.2903
      3 C          -9.0891  -16.1169   22.8861 C.2     1  UNL1        0.0183
      4 C          -9.6774  -16.0425   24.2639 C.2     1  UNL1        0.0005
      5 C          -8.7949  -15.7520   25.4416 C.2     1  UNL1        0.0204
      6 C          -7.3241  -15.5360   25.2414 C.2     1  UNL1        0.1007
      7 N          -6.2138  -15.2349   26.2039 N.2     1  UNL1       -0.1482
      8 N          -4.9392  -15.1233   25.4209 N.2     1  UNL1       -0.1467
      9 C          -5.2618  -15.3554   23.9745 C.2     1  UNL1        0.1197
     10 C          -6.7358  -15.6105   23.8636 C.2     1  UNL1        0.0226
     11 C          -7.6183  -15.9010   22.6859 C.3     1  UNL1        0.0588
     12 C         -10.5274  -17.7864   21.5099 C.3     1  UNL1        0.0977
     13 C         -11.3288  -19.0539   21.4712 C.3     1  UNL1        0.0233
     14 C         -10.5331  -20.0827   20.7239 C.3     1  UNL1        0.0189
     15 C          -9.2401  -19.4511   20.3008 C.3     1  UNL1        0.0689
     16 N          -9.2365  -18.0320   20.7865 N.3     1  UNL1       -0.2938
     17 H          -9.1573  -17.3950   19.9938 H       1  UNL1        0.1235
     18 C         -11.7022  -17.2526   22.2747 C.3     1  UNL1        0.0219
     19 C         -13.7188  -17.9481   23.7579 C.3     1  UNL1        0.0001
     20 C         -12.2561  -18.0259   23.4345 C.3     1  UNL1        0.0017
     21 C         -11.3474  -18.8771   24.2710 C.3     1  UNL1        0.0001
@<TRIPOS>BOND
     1    19    20    1
     2    20    21    1
     3    20    18    1
     4    18    12    1
     5    12     1    1
     6     1     2    2
     7     1     3    1
     8     3     4    2
     9     4     5    1
    10     5     6    2
    11     6     7    1
    12     7     8    2
    13     8     9    1
    14     9    10    2
    15    10    11    1
    16    12    13    1
    17    13    14    1
    18    14    15    1
    19    15    16    1
    20    16    12    1
    21    11     3    1
    22    10     6    1
    23    16    17    1
@<TRIPOS>MOLECULE
*****
 21 23 0 0 0
SMALL
GASTEIGER

@<TRIPOS>ATOM
      1 C          -8.1414  -17.6729   22.0368 C.2     1  UNL1        0.1818
      2 O          -8.0612  -16.1755   22.0011 O.2     1  UNL1       -0.2903
      3 C          -6.9739  -18.4976   21.5820 C.2     1  UNL1        0.0183
      4 C          -7.1563  -19.5267   20.5061 C.2     1  UNL1        0.0005
      5 C          -5.9888  -20.3514   20.0513 C.2     1  UNL1        0.0204
      6 C          -4.6389  -20.1470   20.6726 C.2     1  UNL1        0.1007
      7 N          -3.3130  -20.8057   20.4315 N.2     1  UNL1       -0.1482
      8 N          -2.3111  -20.1837   21.3586 N.2     1  UNL1       -0.1467
      9 C          -3.0178  -19.1406   22.1725 C.2     1  UNL1        0.1197
     10 C          -4.4565  -19.1180   21.7486 C.2     1  UNL1        0.0226
     11 C          -5.6240  -18.2933   22.2033 C.3     1  UNL1        0.0588
     12 C          -9.3892  -18.3456   22.5272 C.3     1  UNL1        0.0977
     13 C         -10.7822  -18.7803   22.8746 C.3     1  UNL1        0.0233
     14 C         -10.6873  -20.0477   23.6711 C.3     1  UNL1        0.0189
     15 C          -9.2356  -20.3964   23.8160 C.3     1  UNL1        0.0689
     16 N          -8.4333  -19.3446   23.1091 N.3     1  UNL1       -0.2938
     17 H          -7.8828  -19.7715   22.3641 H       1  UNL1        0.1235
     18 C         -10.0842  -17.2061   21.8428 C.3     1  UNL1        0.0219
     19 C         -12.2494  -16.6778   20.5076 C.3     1  UNL1        0.0001
     20 C         -10.9874  -17.4711   20.6749 C.3     1  UNL1        0.0017
     21 C         -10.6285  -18.5294   19.6743 C.3     1  UNL1        0.0001
@<TRIPOS>BOND
     1    19    20    1
     2    20    21    1
     3    20    18    1
     4    18    12    1
     5    12     1    1
     6     1     2    2
     7     1     3    1
     8     3     4    2
     9     4     5    1
    10     5     6    2
    11     6     7    1
    12     7     8    2
    13     8     9    1
    14     9    10    2
    15    10    11    1
    16    12    13    1
    17    13    14    1
    18    14    15    1
    19    15    16    1
    20    16    12    1
    21    11     3    1
    22    10     6    1
    23    16    17    1
@<TRIPOS>MOLECULE
*****
 21 23 0 0 0
SMALL
GASTEIGER

@<TRIPOS>ATOM
      1 C          -9.5536  -19.0913   20.6716 C.2     1  UNL1        0.1818
      2 O         -10.0096  -19.9484   19.5283 O.2     1  UNL1       -0.2903
      3 C          -8.1005  -19.0452   21.0414 C.2     1  UNL1        0.0183
      4 C          -7.6407  -18.1674   22.1673 C.2     1  UNL1        0.0005
      5 C          -6.1877  -18.1213   22.5372 C.2     1  UNL1        0.0204
      6 C          -5.1946  -18.9532   21.7810 C.2     1  UNL1        0.1007
      7 N          -3.7094  -19.1134   21.9169 N.2     1  UNL1       -0.1482
      8 N          -3.2514  -20.0903   20.8748 N.2     1  UNL1       -0.1467
      9 C          -4.4535  -20.5339   20.0950 C.2     1  UNL1        0.1197
     10 C          -5.6545  -19.8311   20.6551 C.2     1  UNL1        0.0226
     11 C          -7.1075  -19.8771   20.2853 C.3     1  UNL1        0.0588
     12 C         -10.5504  -18.2802   21.4452 C.3     1  UNL1        0.0977
     13 C         -11.6112  -17.7421   22.3592 C.3     1  UNL1        0.0233
     14 C         -11.7526  -16.2732   22.0908 C.3     1  UNL1        0.0189
     15 C         -10.7793  -15.9034   21.0110 C.3     1  UNL1        0.0689
     16 N         -10.0363  -17.1438   20.6120 N.3     1  UNL1       -0.2938
     17 H          -9.0377  -17.0174   20.7773 H       1  UNL1        0.1235
     18 C         -10.8561  -19.5862   22.1167 C.3     1  UNL1        0.0219
     19 C          -9.3743  -20.6302   23.9780 C.3     1  UNL1        0.0001
     20 C         -10.5372  -19.7750   23.5702 C.3     1  UNL1        0.0017
     21 C         -11.3812  -19.1085   24.6158 C.3     1  UNL1        0.0001
@<TRIPOS>BOND
     1    19    20    1
     2    20    21    1
     3    20    18    1
     4    18    12    1
     5    12     1    1
     6     1     2    2
     7     1     3    1
     8     3     4    2
     9     4     5    1
    10     5     6    2
    11     6     7    1
    12     7     8    2
    13     8     9    1
    14     9    10    2
    15    10    11    1
    16    12    13    1
    17    13    14    1
    18    14    15    1
    19    15    16    1
    20    16    12    1
    21    11     3    1
    22    10     6    1
    23    16    17    1
@<TRIPOS>MOLECULE
*****
 21 23 0 0 0
SMALL
GASTEIGER

@<TRIPOS>ATOM
      1 C          -8.8936  -17.4449   22.0927 C.2     1  UNL1        0.1818
      2 O          -8.2060  -18.1798   20.9805 O.2     1  UNL1       -0.2903
      3 C          -8.0876  -16.8480   23.2082 C.2     1  UNL1        0.0183
      4 C          -6.6103  -16.6484   23.0425 C.2     1  UNL1        0.0005
      5 C          -5.8043  -16.0516   24.1580 C.2     1  UNL1        0.0204
      6 C          -6.4758  -15.6543   25.4391 C.2     1  UNL1        0.1007
      7 N          -5.9454  -15.0468   26.7039 N.2     1  UNL1       -0.1482
      8 N          -7.0950  -14.8710   27.6512 N.2     1  UNL1       -0.1467
      9 C          -8.3359  -15.3698   26.9719 C.2     1  UNL1        0.1197
     10 C          -7.9532  -15.8540   25.6048 C.2     1  UNL1        0.0226
     11 C          -8.7591  -16.4508   24.4893 C.3     1  UNL1        0.0588
     12 C         -10.3872  -17.3068   22.0896 C.3     1  UNL1        0.0977
     13 C         -11.8659  -17.3565   22.3370 C.3     1  UNL1        0.0233
     14 C         -12.5392  -16.5174   21.2918 C.3     1  UNL1        0.0189
     15 C         -11.4767  -15.9490   20.3985 C.3     1  UNL1        0.0689
     16 N         -10.1467  -16.4369   20.8914 N.3     1  UNL1       -0.2938
     17 H          -9.5617  -15.6430   21.1519 H       1  UNL1        0.1235
     18 C         -10.3155  -18.2055   23.2883 C.3     1  UNL1        0.0219
     19 C          -9.5684  -20.5531   24.1136 C.3     1  UNL1        0.0001
     20 C         -10.2768  -19.6942   23.1084 C.3     1  UNL1        0.0017
     21 C         -10.9466  -20.3240   21.9232 C.3     1  UNL1        0.0001
@<TRIPOS>BOND
     1    19    20    1
     2    20    21    1
     3    20    18    1
     4    18    12    1
     5    12     1    1
     6     1     2    2
     7     1     3    1
     8     3     4    2
     9     4     5    1
    10     5     6    2
    11     6     7    1
    12     7     8    2
    13     8     9    1
    14     9    10    2
    15    10    11    1
    16    12    13    1
    17    13    14    1
    18    14    15    1
    19    15    16    1
    20    16    12    1
    21    11     3    1
    22    10     6    1
    23    16    17    1
@<TRIPOS>MOLECULE
*****
 21 23 0 0 0
SMALL
GASTEIGER

@<TRIPOS>ATOM
      1 C          -8.8938  -17.0081   23.3603 C.2     1  UNL1        0.1818
      2 O          -9.5083  -15.8899   24.1489 O.2     1  UNL1       -0.2903
      3 C          -7.4015  -17.1384   23.2812 C.2     1  UNL1        0.0183
      4 C          -6.5235  -16.1276   23.9574 C.2     1  UNL1        0.0005
      5 C          -5.0312  -16.2579   23.8784 C.2     1  UNL1        0.0204
      6 C          -4.4171  -17.3991   23.1231 C.2     1  UNL1        0.1007
      7 N          -2.9891  -17.7849   22.8739 N.2     1  UNL1       -0.1482
      8 N          -2.9847  -19.0342   22.0436 N.2     1  UNL1       -0.1467
      9 C          -4.4098  -19.4205   21.7797 C.2     1  UNL1        0.1197
     10 C          -5.2951  -18.4099   22.4468 C.2     1  UNL1        0.0226
     11 C          -6.7874  -18.2796   22.5259 C.3     1  UNL1        0.0588
     12 C          -9.7715  -17.9960   22.6506 C.3     1  UNL1        0.0977
     13 C         -10.6652  -18.7616   21.7204 C.3     1  UNL1        0.0233
     14 C         -10.9575  -20.0919   22.3488 C.3     1  UNL1        0.0189
     15 C         -10.2446  -20.1484   23.6673 C.3     1  UNL1        0.0689
     16 N          -9.5116  -18.8531   23.8539 N.3     1  UNL1       -0.2938
     17 H          -8.5111  -19.0312   23.9424 H       1  UNL1        0.1235
     18 C          -9.8480  -16.9323   21.5957 C.3     1  UNL1        0.0219
     19 C         -11.4660  -16.0031   19.7878 C.3     1  UNL1        0.0001
     20 C         -11.1751  -16.3431   21.2195 C.3     1  UNL1        0.0017
     21 C         -12.2114  -16.0940   22.2750 C.3     1  UNL1        0.0001
@<TRIPOS>BOND
     1    19    20    1
     2    20    21    1
     3    20    18    1
     4    18    12    1
     5    12     1    1
     6     1     2    2
     7     1     3    1
     8     3     4    2
     9     4     5    1
    10     5     6    2
    11     6     7    1
    12     7     8    2
    13     8     9    1
    14     9    10    2
    15    10    11    1
    16    12    13    1
    17    13    14    1
    18    14    15    1
    19    15    16    1
    20    16    12    1
    21    11     3    1
    22    10     6    1
    23    16    17    1
@<TRIPOS>MOLECULE
*****
 21 23 0 0 0
SMALL
GASTEIGER

@<TRIPOS>ATOM
      1 C          -9.0044  -19.4063   20.9158 C.2     1  UNL1        0.1818
      2 O          -9.4629  -19.6331   19.5058 O.2     1  UNL1       -0.2903
      3 C          -7.5402  -19.2834   21.2178 C.2     1  UNL1        0.0183
      4 C          -7.0690  -18.3202   22.2667 C.2     1  UNL1        0.0005
      5 C          -5.6048  -18.1973   22.5686 C.2     1  UNL1        0.0204
      6 C          -4.6119  -19.0376   21.8217 C.2     1  UNL1        0.1007
      7 N          -3.1171  -19.1339   21.9015 N.2     1  UNL1       -0.1482
      8 N          -2.6646  -20.1566   20.9019 N.2     1  UNL1       -0.1467
      9 C          -3.8796  -20.6924   20.2043 C.2     1  UNL1        0.1197
     10 C          -5.0832  -20.0008   20.7728 C.2     1  UNL1        0.0226
     11 C          -6.5473  -20.1237   20.4708 C.3     1  UNL1        0.0588
     12 C         -10.0100  -19.3023   22.0240 C.3     1  UNL1        0.0977
     13 C         -11.1804  -19.0332   22.9228 C.3     1  UNL1        0.0233
     14 C         -10.9049  -19.6787   24.2483 C.3     1  UNL1        0.0189
     15 C          -9.5643  -20.3468   24.1689 C.3     1  UNL1        0.0689
     16 N          -9.0111  -20.1142   22.7942 N.3     1  UNL1       -0.2938
     17 H          -8.8575  -21.0079   22.3271 H       1  UNL1        0.1235
     18 C         -10.7986  -18.5122   21.0221 C.3     1  UNL1        0.0219
     19 C          -9.9134  -16.1815   21.7530 C.3     1  UNL1        0.0001
     20 C         -11.0253  -17.0448   21.2349 C.3     1  UNL1        0.0017
     21 C         -12.3639  -16.4407   20.9297 C.3     1  UNL1        0.0001
@<TRIPOS>BOND
     1    19    20    1
     2    20    21    1
     3    20    18    1
     4    18    12    1
     5    12     1    1
     6     1     2    2
     7     1     3    1
     8     3     4    2
     9     4     5    1
    10     5     6    2
    11     6     7    1
    12     7     8    2
    13     8     9    1
    14     9    10    2
    15    10    11    1
    16    12    13    1
    17    13    14    1
    18    14    15    1
    19    15    16    1
    20    16    12    1
    21    11     3    1
    22    10     6    1
    23    16    17    1
