@<TRIPOS>MOLECULE
*****
 25 27 0 0 0
SMALL
GASTEIGER

@<TRIPOS>ATOM
      1 C          -3.8489  -20.7481   20.3053 C.3     1  UNL1        0.0356
      2 C          -3.9523  -19.6204   21.2890 C.ar    1  UNL1        0.0307
      3 C          -2.7263  -18.8469   21.6746 C.ar    1  UNL1        0.1378
      4 C          -2.8297  -17.7192   22.6583 C.ar    1  UNL1        0.0572
      5 C          -4.1589  -17.3651   23.2564 C.ar    1  UNL1        0.1017
      6 N          -5.3849  -18.1387   22.8708 N.ar    1  UNL1       -0.2431
      7 C          -5.2815  -19.2664   21.8871 C.ar    1  UNL1        0.1175
      8 O          -1.3971  -19.2009   21.0765 O.3     1  UNL1       -0.4668
      9 C          -0.8682  -18.4211   19.9094 C.3     1  UNL1        0.3081
     10 C          -1.8038  -17.6073   19.0653 C.3     1  UNL1        0.4380
     11 F          -2.7393  -16.7934   18.2212 F       1  UNL1       -0.1663
     12 F          -1.4179  -16.3740   19.8268 F       1  UNL1       -0.1663
     13 F          -2.1897  -18.8406   18.3037 F       1  UNL1       -0.1663
     14 C          -6.5074  -20.0400   21.5014 C.3     1  UNL1        0.3094
     15 S          -7.6321  -19.3543   20.7839 S.O     1  UNL1        0.0985
     16 O          -7.4747  -18.9614   19.3449 O.co2   1  UNL1       -0.6751
     17 C          -8.9141  -19.0615   21.5054 C.2     1  UNL1        0.3556
     18 N          -9.2140  -19.3884   22.9383 N.2     1  UNL1       -0.1811
     19 C         -10.6067  -18.9193   23.2392 C.2     1  UNL1        0.1012
     20 C         -11.4365  -18.9741   24.4875 C.2     1  UNL1        0.0202
     21 C         -12.8272  -18.4121   24.4888 C.2     1  UNL1       -0.0026
     22 C         -13.3881  -17.7953   23.2418 C.2     1  UNL1       -0.0197
     23 C         -12.5582  -17.7405   21.9935 C.3     1  UNL1        0.0735
     24 C         -11.1675  -18.3024   21.9922 C.2     1  UNL1        0.0869
     25 N         -10.1215  -18.3903   20.9207 N.2     1  UNL1       -0.1848
@<TRIPOS>UNITY_ATOM_ATTR
15 1
charge 1
16 1
charge -1
@<TRIPOS>BOND
     1     1     2    1
     2     2     3   ar
     3     3     8    1
     4     8     9    1
     5     9    10    1
     6    10    11    1
     7    10    12    1
     8    10    13    1
     9     3     4   ar
    10     4     5   ar
    11     5     6   ar
    12     6     7   ar
    13     7    14    1
    14    14    15    1
    15    15    16    2
    16    15    17    1
    17    17    18    2
    18    18    19    1
    19    19    20    2
    20    20    21    1
    21    21    22    2
    22    22    23    1
    23    23    24    1
    24    24    25    2
    25     7     2   ar
    26    25    17    1
    27    24    19    1
@<TRIPOS>MOLECULE
*****
 25 27 0 0 0
SMALL
GASTEIGER

@<TRIPOS>ATOM
      1 C          -9.7462  -17.0512   24.1342 C.3     1  UNL1        0.0356
      2 C          -9.9945  -17.5501   22.7416 C.ar    1  UNL1        0.0307
      3 C         -11.3931  -17.6038   22.2023 C.ar    1  UNL1        0.1378
      4 C         -11.6413  -18.1027   20.8097 C.ar    1  UNL1        0.0572
      5 C         -10.4908  -18.5479   19.9562 C.ar    1  UNL1        0.1017
      6 N          -9.0922  -18.4942   20.4955 N.ar    1  UNL1       -0.2431
      7 C          -8.8440  -17.9953   21.8883 C.ar    1  UNL1        0.1175
      8 O         -12.5436  -17.1586   23.0556 O.3     1  UNL1       -0.4668
      9 C         -13.6882  -18.0920   23.3177 C.3     1  UNL1        0.3081
     10 C         -14.0469  -18.4618   24.7266 C.3     1  UNL1        0.4380
     11 F         -14.4055  -18.8315   26.1353 F       1  UNL1       -0.1663
     12 F         -12.5968  -18.4173   25.1074 F       1  UNL1       -0.1663
     13 F         -15.4970  -18.5063   24.3457 F       1  UNL1       -0.1663
     14 C          -7.4453  -17.9415   22.4276 C.3     1  UNL1        0.3094
     15 S          -6.4594  -19.0116   22.0632 S.O     1  UNL1        0.0985
     16 O          -6.8168  -20.4562   22.2513 O.co2   1  UNL1       -0.6751
     17 C          -5.1160  -18.6371   21.5108 C.2     1  UNL1        0.3556
     18 N          -4.5616  -19.0555   20.1813 N.2     1  UNL1       -0.1811
     19 C          -3.1942  -18.4554   20.0397 C.2     1  UNL1        0.1012
     20 C          -2.1762  -18.5257   18.9403 C.2     1  UNL1        0.0202
     21 C          -0.8675  -17.8068   19.0829 C.2     1  UNL1       -0.0026
     22 C          -0.5767  -17.0177   20.3249 C.2     1  UNL1       -0.0197
     23 C          -1.5947  -16.9474   21.4243 C.3     1  UNL1        0.0735
     24 C          -2.9034  -17.6663   21.2817 C.2     1  UNL1        0.0869
     25 N          -4.0912  -17.7786   22.1909 N.2     1  UNL1       -0.1848
@<TRIPOS>UNITY_ATOM_ATTR
15 1
charge 1
16 1
charge -1
@<TRIPOS>BOND
     1     1     2    1
     2     2     3   ar
     3     3     8    1
     4     8     9    1
     5     9    10    1
     6    10    11    1
     7    10    12    1
     8    10    13    1
     9     3     4   ar
    10     4     5   ar
    11     5     6   ar
    12     6     7   ar
    13     7    14    1
    14    14    15    1
    15    15    16    2
    16    15    17    1
    17    17    18    2
    18    18    19    1
    19    19    20    2
    20    20    21    1
    21    21    22    2
    22    22    23    1
    23    23    24    1
    24    24    25    2
    25     7     2   ar
    26    25    17    1
    27    24    19    1
@<TRIPOS>MOLECULE
*****
 25 27 0 0 0
SMALL
GASTEIGER

@<TRIPOS>ATOM
      1 C         -10.4291  -20.1625   22.6106 C.3     1  UNL1        0.0356
      2 C          -9.7598  -18.8768   22.9968 C.ar    1  UNL1        0.0307
      3 C         -10.5231  -17.8325   23.7562 C.ar    1  UNL1        0.1378
      4 C          -9.8538  -16.5469   24.1423 C.ar    1  UNL1        0.0572
      5 C          -8.4211  -16.3055   23.7690 C.ar    1  UNL1        0.1017
      6 N          -7.6578  -17.3499   23.0096 N.ar    1  UNL1       -0.2431
      7 C          -8.3272  -18.6356   22.6235 C.ar    1  UNL1        0.1175
      8 O         -11.9557  -18.0738   24.1295 O.3     1  UNL1       -0.4668
      9 C         -13.0496  -17.7466   23.1567 C.3     1  UNL1        0.3081
     10 C         -12.7478  -16.9286   21.9360 C.3     1  UNL1        0.4380
     11 F         -12.4460  -16.1108   20.7154 F       1  UNL1       -0.1663
     12 F         -12.6784  -18.1813   21.1139 F       1  UNL1       -0.1663
     13 F         -12.8171  -15.6760   22.7582 F       1  UNL1       -0.1663
     14 C          -7.5639  -19.6799   21.8640 C.3     1  UNL1        0.3094
     15 S          -6.9525  -19.3446   20.5360 S.O     1  UNL1        0.0985
     16 O          -7.8049  -19.3229   19.3020 O.co2   1  UNL1       -0.6751
     17 C          -5.4887  -19.0309   20.4420 C.2     1  UNL1        0.3556
     18 N          -4.7553  -18.6083   19.2037 N.2     1  UNL1       -0.1811
     19 C          -3.3146  -18.4010   19.5661 C.2     1  UNL1        0.1012
     20 C          -2.1254  -17.9821   18.7535 C.2     1  UNL1        0.0202
     21 C          -0.7792  -17.8577   19.4033 C.2     1  UNL1       -0.0026
     22 C          -0.6222  -18.1523   20.8657 C.2     1  UNL1       -0.0197
     23 C          -1.8114  -18.5712   21.6783 C.3     1  UNL1        0.0735
     24 C          -3.1575  -18.6955   21.0285 C.2     1  UNL1        0.0869
     25 N          -4.5012  -19.0848   21.5698 N.2     1  UNL1       -0.1848
@<TRIPOS>UNITY_ATOM_ATTR
15 1
charge 1
16 1
charge -1
@<TRIPOS>BOND
     1     1     2    1
     2     2     3   ar
     3     3     8    1
     4     8     9    1
     5     9    10    1
     6    10    11    1
     7    10    12    1
     8    10    13    1
     9     3     4   ar
    10     4     5   ar
    11     5     6   ar
    12     6     7   ar
    13     7    14    1
    14    14    15    1
    15    15    16    2
    16    15    17    1
    17    17    18    2
    18    18    19    1
    19    19    20    2
    20    20    21    1
    21    21    22    2
    22    22    23    1
    23    23    24    1
    24    24    25    2
    25     7     2   ar
    26    25    17    1
    27    24    19    1
@<TRIPOS>MOLECULE
*****
 25 27 0 0 0
SMALL
GASTEIGER

@<TRIPOS>ATOM
      1 C          -2.6723  -17.7322   23.0231 C.3     1  UNL1        0.0356
      2 C          -3.6193  -18.5763   22.2227 C.ar    1  UNL1        0.0307
      3 C          -3.0939  -19.4735   21.1415 C.ar    1  UNL1        0.1378
      4 C          -4.0409  -20.3176   20.3412 C.ar    1  UNL1        0.0572
      5 C          -5.5135  -20.2645   20.6220 C.ar    1  UNL1        0.1017
      6 N          -6.0389  -19.3673   21.7032 N.ar    1  UNL1       -0.2431
      7 C          -5.0918  -18.5232   22.5036 C.ar    1  UNL1        0.1175
      8 O          -1.6214  -19.5266   20.8607 O.3     1  UNL1       -0.4668
      9 C          -0.9961  -18.5185   19.9426 C.3     1  UNL1        0.3081
     10 C          -1.8643  -17.6190   19.1136 C.3     1  UNL1        0.4380
     11 F          -2.7325  -16.7196   18.2846 F       1  UNL1       -0.1663
     12 F          -2.0487  -18.7202   18.1119 F       1  UNL1       -0.1663
     13 F          -1.6800  -16.5178   20.1153 F       1  UNL1       -0.1663
     14 C          -5.6173  -17.6260   23.5847 C.3     1  UNL1        0.3094
     15 S          -6.4974  -16.4635   23.2329 S.O     1  UNL1        0.0985
     16 O          -5.9255  -15.0777   23.1839 O.co2   1  UNL1       -0.6751
     17 C          -7.9494  -16.6867   22.9300 C.2     1  UNL1        0.3556
     18 N          -8.9416  -17.3700   23.8236 N.2     1  UNL1       -0.1811
     19 C         -10.2696  -17.3715   23.1262 C.2     1  UNL1        0.1012
     20 C         -11.6128  -17.9061   23.5263 C.2     1  UNL1        0.0202
     21 C         -12.7845  -17.7582   22.6016 C.2     1  UNL1       -0.0026
     22 C         -12.6131  -17.0758   21.2769 C.2     1  UNL1       -0.0197
     23 C         -11.2700  -16.5413   20.8768 C.3     1  UNL1        0.0735
     24 C         -10.0982  -16.6891   21.8015 C.2     1  UNL1        0.0869
     25 N          -8.6643  -16.2659   21.6802 N.2     1  UNL1       -0.1848
@<TRIPOS>UNITY_ATOM_ATTR
15 1
charge 1
16 1
charge -1
@<TRIPOS>BOND
     1     1     2    1
     2     2     3   ar
     3     3     8    1
     4     8     9    1
     5     9    10    1
     6    10    11    1
     7    10    12    1
     8    10    13    1
     9     3     4   ar
    10     4     5   ar
    11     5     6   ar
    12     6     7   ar
    13     7    14    1
    14    14    15    1
    15    15    16    2
    16    15    17    1
    17    17    18    2
    18    18    19    1
    19    19    20    2
    20    20    21    1
    21    21    22    2
    22    22    23    1
    23    23    24    1
    24    24    25    2
    25     7     2   ar
    26    25    17    1
    27    24    19    1
@<TRIPOS>MOLECULE
*****
 25 27 0 0 0
SMALL
GASTEIGER

@<TRIPOS>ATOM
      1 C          -9.3645  -16.1785   24.8816 C.3     1  UNL1        0.0356
      2 C          -8.9803  -16.9254   23.6389 C.ar    1  UNL1        0.0307
      3 C          -9.8961  -17.9742   23.0809 C.ar    1  UNL1        0.1378
      4 C          -9.5119  -18.7211   21.8382 C.ar    1  UNL1        0.0572
      5 C          -8.2120  -18.4192   21.1533 C.ar    1  UNL1        0.1017
      6 N          -7.2962  -17.3703   21.7112 N.ar    1  UNL1       -0.2431
      7 C          -7.6804  -16.6234   22.9540 C.ar    1  UNL1        0.1175
      8 O         -11.1960  -18.2762   23.7657 O.3     1  UNL1       -0.4668
      9 C         -12.4496  -17.5712   23.3398 C.3     1  UNL1        0.3081
     10 C         -12.4866  -16.8284   22.0371 C.3     1  UNL1        0.4380
     11 F         -12.5236  -16.0855   20.7345 F       1  UNL1       -0.1663
     12 F         -12.1945  -15.5468   22.7597 F       1  UNL1       -0.1663
     13 F         -12.7788  -18.1099   21.3145 F       1  UNL1       -0.1663
     14 C          -6.7647  -15.5745   23.5120 C.3     1  UNL1        0.3094
     15 S          -5.4379  -15.9681   24.0905 S.O     1  UNL1        0.0985
     16 O          -5.1839  -15.8096   25.5603 O.co2   1  UNL1       -0.6751
     17 C          -4.3651  -16.5202   23.1993 C.2     1  UNL1        0.3556
     18 N          -4.1344  -17.9699   22.8911 N.2     1  UNL1       -0.1811
     19 C          -2.9614  -18.0652   21.9611 C.2     1  UNL1        0.1012
     20 C          -2.2795  -19.2387   21.3225 C.2     1  UNL1        0.0202
     21 C          -1.1033  -19.0214   20.4174 C.2     1  UNL1       -0.0026
     22 C          -0.6090  -17.6305   20.1509 C.2     1  UNL1       -0.0197
     23 C          -1.2909  -16.4570   20.7894 C.3     1  UNL1        0.0735
     24 C          -2.4671  -16.6743   21.6945 C.2     1  UNL1        0.0869
     25 N          -3.3346  -15.7194   22.4598 N.2     1  UNL1       -0.1848
@<TRIPOS>UNITY_ATOM_ATTR
15 1
charge 1
16 1
charge -1
@<TRIPOS>BOND
     1     1     2    1
     2     2     3   ar
     3     3     8    1
     4     8     9    1
     5     9    10    1
     6    10    11    1
     7    10    12    1
     8    10    13    1
     9     3     4   ar
    10     4     5   ar
    11     5     6   ar
    12     6     7   ar
    13     7    14    1
    14    14    15    1
    15    15    16    2
    16    15    17    1
    17    17    18    2
    18    18    19    1
    19    19    20    2
    20    20    21    1
    21    21    22    2
    22    22    23    1
    23    23    24    1
    24    24    25    2
    25     7     2   ar
    26    25    17    1
    27    24    19    1
@<TRIPOS>MOLECULE
*****
 25 27 0 0 0
SMALL
GASTEIGER

@<TRIPOS>ATOM
      1 C         -10.6684  -20.0534   20.8166 C.3     1  UNL1        0.0356
      2 C         -10.1098  -18.7259   21.2358 C.ar    1  UNL1        0.0307
      3 C         -11.0208  -17.6686   21.7853 C.ar    1  UNL1        0.1378
      4 C         -10.4621  -16.3411   22.2044 C.ar    1  UNL1        0.0572
      5 C          -8.9924  -16.0710   22.0740 C.ar    1  UNL1        0.1017
      6 N          -8.0813  -17.1284   21.5245 N.ar    1  UNL1       -0.2431
      7 C          -8.6401  -18.4559   21.1054 C.ar    1  UNL1        0.1175
      8 O         -12.4905  -17.9386   21.9157 O.3     1  UNL1       -0.4668
      9 C         -13.2609  -17.3572   23.0638 C.3     1  UNL1        0.3081
     10 C         -13.4568  -18.1573   24.3174 C.3     1  UNL1        0.4380
     11 F         -13.6526  -18.9574   25.5710 F       1  UNL1       -0.1663
     12 F         -11.9706  -18.2170   24.5115 F       1  UNL1       -0.1663
     13 F         -14.9430  -18.0976   24.1234 F       1  UNL1       -0.1663
     14 C          -7.7291  -19.5133   20.5559 C.3     1  UNL1        0.3094
     15 S          -6.5036  -19.9185   21.3200 S.O     1  UNL1        0.0985
     16 O          -6.5990  -20.9650   22.3903 O.co2   1  UNL1       -0.6751
     17 C          -5.1826  -19.2771   21.0138 C.2     1  UNL1        0.3556
     18 N          -4.4608  -18.2880   21.8802 N.2     1  UNL1       -0.1811
     19 C          -3.1836  -17.9118   21.1893 C.2     1  UNL1        0.1012
     20 C          -2.0734  -16.9781   21.5709 C.2     1  UNL1        0.0202
     21 C          -0.8957  -16.8010   20.6590 C.2     1  UNL1       -0.0026
     22 C          -0.8282  -17.5576   19.3656 C.2     1  UNL1       -0.0197
     23 C          -1.9383  -18.4914   18.9840 C.3     1  UNL1        0.0735
     24 C          -3.1161  -18.6685   19.8959 C.2     1  UNL1        0.0869
     25 N          -4.3515  -19.5122   19.7874 N.2     1  UNL1       -0.1848
@<TRIPOS>UNITY_ATOM_ATTR
15 1
charge 1
16 1
charge -1
@<TRIPOS>BOND
     1     1     2    1
     2     2     3   ar
     3     3     8    1
     4     8     9    1
     5     9    10    1
     6    10    11    1
     7    10    12    1
     8    10    13    1
     9     3     4   ar
    10     4     5   ar
    11     5     6   ar
    12     6     7   ar
    13     7    14    1
    14    14    15    1
    15    15    16    2
    16    15    17    1
    17    17    18    2
    18    18    19    1
    19    19    20    2
    20    20    21    1
    21    21    22    2
    22    22    23    1
    23    23    24    1
    24    24    25    2
    25     7     2   ar
    26    25    17    1
    27    24    19    1
@<TRIPOS>MOLECULE
*****
 25 27 0 0 0
SMALL
GASTEIGER

@<TRIPOS>ATOM
      1 C          -8.8236  -16.5924   25.5898 C.3     1  UNL1        0.0356
      2 C          -9.0163  -16.3920   24.1158 C.ar    1  UNL1        0.0307
      3 C         -10.2170  -16.9738   23.4305 C.ar    1  UNL1        0.1378
      4 C         -10.4097  -16.7734   21.9565 C.ar    1  UNL1        0.0572
      5 C          -9.4015  -15.9912   21.1678 C.ar    1  UNL1        0.1017
      6 N          -8.2008  -15.4095   21.8532 N.ar    1  UNL1       -0.2431
      7 C          -8.0082  -15.6099   23.3273 C.ar    1  UNL1        0.1175
      8 O         -11.2251  -17.7559   24.2191 O.3     1  UNL1       -0.4668
      9 C         -11.3561  -19.2356   24.0107 C.3     1  UNL1        0.3081
     10 C         -10.1306  -20.1001   23.9808 C.3     1  UNL1        0.4380
     11 F          -8.9052  -20.9646   23.9510 F       1  UNL1       -0.1663
     12 F          -9.9514  -19.8971   25.4561 F       1  UNL1       -0.1663
     13 F         -10.3097  -20.3032   22.5055 F       1  UNL1       -0.1663
     14 C          -6.8074  -15.0281   24.0126 C.3     1  UNL1        0.3094
     15 S          -5.7059  -15.9283   24.4884 S.O     1  UNL1        0.0985
     16 O          -5.2216  -15.8367   25.9050 O.co2   1  UNL1       -0.6751
     17 C          -5.0887  -16.9201   23.5474 C.2     1  UNL1        0.3556
     18 N          -5.8312  -17.8341   22.6183 N.2     1  UNL1       -0.1811
     19 C          -4.8220  -18.6510   21.8670 C.2     1  UNL1        0.1012
     20 C          -4.9706  -19.7145   20.8197 C.2     1  UNL1        0.0202
     21 C          -3.7530  -20.3688   20.2373 C.2     1  UNL1       -0.0026
     22 C          -2.3868  -19.9596   20.7021 C.2     1  UNL1       -0.0197
     23 C          -2.2382  -18.8961   21.7494 C.3     1  UNL1        0.0735
     24 C          -3.4558  -18.2418   22.3319 C.2     1  UNL1        0.0869
     25 N          -3.6207  -17.1721   23.3704 N.2     1  UNL1       -0.1848
@<TRIPOS>UNITY_ATOM_ATTR
15 1
charge 1
16 1
charge -1
@<TRIPOS>BOND
     1     1     2    1
     2     2     3   ar
     3     3     8    1
     4     8     9    1
     5     9    10    1
     6    10    11    1
     7    10    12    1
     8    10    13    1
     9     3     4   ar
    10     4     5   ar
    11     5     6   ar
    12     6     7   ar
    13     7    14    1
    14    14    15    1
    15    15    16    2
    16    15    17    1
    17    17    18    2
    18    18    19    1
    19    19    20    2
    20    20    21    1
    21    21    22    2
    22    22    23    1
    23    23    24    1
    24    24    25    2
    25     7     2   ar
    26    25    17    1
    27    24    19    1
@<TRIPOS>MOLECULE
*****
 25 27 0 0 0
SMALL
GASTEIGER

@<TRIPOS>ATOM
      1 C          -8.8888  -15.9472   22.2495 C.3     1  UNL1        0.0356
      2 C          -9.3721  -17.0937   23.0872 C.ar    1  UNL1        0.0307
      3 C          -9.2860  -17.0184   24.5828 C.ar    1  UNL1        0.1378
      4 C          -9.7692  -18.1650   25.4206 C.ar    1  UNL1        0.0572
      5 C         -10.3386  -19.3869   24.7627 C.ar    1  UNL1        0.1017
      6 N         -10.4247  -19.4622   23.2671 N.ar    1  UNL1       -0.2431
      7 C          -9.9414  -18.3156   22.4293 C.ar    1  UNL1        0.1175
      8 O          -8.7166  -15.7966   25.2407 O.3     1  UNL1       -0.4668
      9 C          -7.7510  -15.9390   26.3797 C.3     1  UNL1        0.3081
     10 C          -6.3473  -15.4285   26.2413 C.3     1  UNL1        0.4380
     11 F          -4.9438  -14.9179   26.1028 F       1  UNL1       -0.1663
     12 F          -6.2824  -15.9845   24.8497 F       1  UNL1       -0.1663
     13 F          -6.4123  -14.8724   27.6328 F       1  UNL1       -0.1663
     14 C         -10.0275  -18.3909   20.9337 C.3     1  UNL1        0.3094
     15 S          -9.1099  -19.3029   20.1746 S.O     1  UNL1        0.0985
     16 O          -9.6684  -20.2460   19.1507 O.co2   1  UNL1       -0.6751
     17 C          -7.6338  -19.2717   20.4394 C.2     1  UNL1        0.3556
     18 N          -6.5575  -19.0830   19.4119 N.2     1  UNL1       -0.1811
     19 C          -5.2333  -19.1184   20.1157 C.2     1  UNL1        0.1012
     20 C          -3.8260  -18.9861   19.6138 C.2     1  UNL1        0.0202
     21 C          -2.6767  -19.0644   20.5744 C.2     1  UNL1       -0.0026
     22 C          -2.9347  -19.2749   22.0370 C.2     1  UNL1       -0.0197
     23 C          -4.3419  -19.4072   22.5389 C.3     1  UNL1        0.0735
     24 C          -5.4913  -19.3290   21.5783 C.2     1  UNL1        0.0869
     25 N          -6.9749  -19.4237   21.7783 N.2     1  UNL1       -0.1848
@<TRIPOS>UNITY_ATOM_ATTR
15 1
charge 1
16 1
charge -1
@<TRIPOS>BOND
     1     1     2    1
     2     2     3   ar
     3     3     8    1
     4     8     9    1
     5     9    10    1
     6    10    11    1
     7    10    12    1
     8    10    13    1
     9     3     4   ar
    10     4     5   ar
    11     5     6   ar
    12     6     7   ar
    13     7    14    1
    14    14    15    1
    15    15    16    2
    16    15    17    1
    17    17    18    2
    18    18    19    1
    19    19    20    2
    20    20    21    1
    21    21    22    2
    22    22    23    1
    23    23    24    1
    24    24    25    2
    25     7     2   ar
    26    25    17    1
    27    24    19    1
@<TRIPOS>MOLECULE
*****
 25 27 0 0 0
SMALL
GASTEIGER

@<TRIPOS>ATOM
      1 C          -7.5229  -16.3651   22.7696 C.3     1  UNL1        0.0356
      2 C          -8.3530  -17.4204   23.4383 C.ar    1  UNL1        0.0307
      3 C          -9.1007  -17.0998   24.6984 C.ar    1  UNL1        0.1378
      4 C          -9.9308  -18.1552   25.3671 C.ar    1  UNL1        0.0572
      5 C         -10.0132  -19.5312   24.7755 C.ar    1  UNL1        0.1017
      6 N          -9.2654  -19.8518   23.5154 N.ar    1  UNL1       -0.2431
      7 C          -8.4353  -18.7964   22.8467 C.ar    1  UNL1        0.1175
      8 O          -9.0184  -15.7239   25.2900 O.3     1  UNL1       -0.4668
      9 C          -8.2331  -15.4937   26.5471 C.3     1  UNL1        0.3081
     10 C          -6.7343  -15.5468   26.5154 C.3     1  UNL1        0.4380
     11 F          -5.2356  -15.5998   26.4837 F       1  UNL1       -0.1663
     12 F          -6.7309  -14.7073   25.2724 F       1  UNL1       -0.1663
     13 F          -6.7378  -16.3863   27.7584 F       1  UNL1       -0.1663
     14 C          -7.6875  -19.1170   21.5865 C.3     1  UNL1        0.3094
     15 S          -6.4062  -19.8941   21.6518 S.O     1  UNL1        0.0985
     16 O          -6.4141  -21.3139   22.1353 O.co2   1  UNL1       -0.6751
     17 C          -5.1171  -19.2513   21.2336 C.2     1  UNL1        0.3556
     18 N          -4.4019  -19.4737   19.9339 N.2     1  UNL1       -0.1811
     19 C          -3.1595  -18.6332   19.9387 C.2     1  UNL1        0.1012
     20 C          -2.0695  -18.4475   18.9252 C.2     1  UNL1        0.0202
     21 C          -0.9267  -17.5199   19.2143 C.2     1  UNL1       -0.0026
     22 C          -0.8740  -16.7780   20.5169 C.2     1  UNL1       -0.0197
     23 C          -1.9641  -16.9636   21.5304 C.3     1  UNL1        0.0735
     24 C          -3.1069  -17.8912   21.2413 C.2     1  UNL1        0.0869
     25 N          -4.3167  -18.2733   22.0415 N.2     1  UNL1       -0.1848
@<TRIPOS>UNITY_ATOM_ATTR
15 1
charge 1
16 1
charge -1
@<TRIPOS>BOND
     1     1     2    1
     2     2     3   ar
     3     3     8    1
     4     8     9    1
     5     9    10    1
     6    10    11    1
     7    10    12    1
     8    10    13    1
     9     3     4   ar
    10     4     5   ar
    11     5     6   ar
    12     6     7   ar
    13     7    14    1
    14    14    15    1
    15    15    16    2
    16    15    17    1
    17    17    18    2
    18    18    19    1
    19    19    20    2
    20    20    21    1
    21    21    22    2
    22    22    23    1
    23    23    24    1
    24    24    25    2
    25     7     2   ar
    26    25    17    1
    27    24    19    1
