@<TRIPOS>MOLECULE
*****
 24 27 0 0 0
SMALL
GASTEIGER

@<TRIPOS>ATOM
      1 O          -6.9658  -17.8459   20.6542 O.2     1  UNL1       -0.2526
      2 C          -7.4627  -18.9975   21.4770 C.2     1  UNL1        0.3039
      3 N          -6.6426  -20.2485   21.5886 N.am    1  UNL1       -0.2901
      4 N          -8.7797  -18.8981   22.1880 N.am    1  UNL1       -0.2641
      5 C          -9.5998  -17.6470   22.0763 C.3     1  UNL1        0.0969
      6 C         -10.9168  -17.5476   22.7874 C.3     1  UNL1        0.0460
      7 C         -11.4137  -18.6992   23.6102 C.3     1  UNL1        0.1103
      8 C         -10.5936  -19.9502   23.7218 C.3     1  UNL1        0.0460
      9 C          -9.2766  -20.0496   23.0108 C.3     1  UNL1        0.0969
     10 H          -6.9688  -21.0043   22.1286 H       1  UNL1        0.1509
     11 N         -12.7307  -18.5998   24.3212 N.ar    1  UNL1       -0.2320
     12 C         -14.0314  -18.1677   23.7117 C.ar    1  UNL1        0.1191
     13 C         -15.0828  -18.2158   24.7805 C.ar    1  UNL1        0.1441
     14 N         -14.4320  -18.6777   26.0505 N.ar    1  UNL1       -0.1271
     15 N         -12.9783  -18.9150   25.7667 N.ar    1  UNL1       -0.0638
     16 C          -5.3256  -20.3479   20.8776 C.3     1  UNL1        0.0774
     17 C          -4.3820  -21.1051   19.9909 C.3     1  UNL1        0.0259
     18 C          -3.9882  -19.7629   20.5326 C.3     1  UNL1        0.0420
     19 C          -2.9886  -18.6502   20.6462 C.ar    1  UNL1       -0.0208
     20 C          -1.9057  -18.5070   19.6183 C.ar    1  UNL1       -0.0042
     21 C          -0.9062  -17.3944   19.7320 C.ar    1  UNL1       -0.0003
     22 C          -0.9897  -16.4249   20.8735 C.ar    1  UNL1       -0.0000
     23 C          -2.0726  -16.5681   21.9015 C.ar    1  UNL1       -0.0003
     24 C          -3.0721  -17.6808   21.7878 C.ar    1  UNL1       -0.0042
@<TRIPOS>BOND
     1     1     2    2
     2     2     3   am
     3     3    16    1
     4    16    17    1
     5    17    18    1
     6    18    19    1
     7    19    20   ar
     8    20    21   ar
     9    21    22   ar
    10    22    23   ar
    11    23    24   ar
    12     2     4   am
    13     4     5    1
    14     5     6    1
    15     6     7    1
    16     7    11    1
    17    11    12   ar
    18    12    13   ar
    19    13    14   ar
    20    14    15   ar
    21     7     8    1
    22     8     9    1
    23    18    16    1
    24    24    19   ar
    25     9     4    1
    26    15    11   ar
    27     3    10    1
@<TRIPOS>MOLECULE
*****
 24 27 0 0 0
SMALL
GASTEIGER

@<TRIPOS>ATOM
      1 O          -8.1507  -19.7371   20.6807 O.2     1  UNL1       -0.2526
      2 C          -7.1093  -19.6339   21.7555 C.2     1  UNL1        0.3039
      3 N          -7.4827  -19.8780   23.1875 N.am    1  UNL1       -0.2901
      4 N          -5.6945  -19.2865   21.3980 N.am    1  UNL1       -0.2641
      5 C          -5.3211  -19.0424   19.9658 C.3     1  UNL1        0.0969
      6 C          -3.9064  -18.6950   19.6084 C.3     1  UNL1        0.0460
      7 C          -2.8650  -18.5918   20.6831 C.3     1  UNL1        0.1103
      8 C          -3.2384  -18.8360   22.1152 C.3     1  UNL1        0.0460
      9 C          -4.6532  -19.1833   22.4726 C.3     1  UNL1        0.0969
     10 H          -6.7992  -19.8103   23.8929 H       1  UNL1        0.1509
     11 N          -1.4502  -18.2445   20.3257 N.ar    1  UNL1       -0.2320
     12 C          -0.8330  -16.8791   20.3953 C.ar    1  UNL1        0.1191
     13 C           0.5944  -16.9922   19.9485 C.ar    1  UNL1        0.1441
     14 N           0.8594  -18.4276   19.6027 N.ar    1  UNL1       -0.1271
     15 N          -0.4042  -19.2015   19.8358 N.ar    1  UNL1       -0.0638
     16 C          -8.8975  -20.2254   23.5450 C.3     1  UNL1        0.0774
     17 C          -9.8843  -21.1547   24.1872 C.3     1  UNL1        0.0259
     18 C         -10.3610  -19.8977   23.5219 C.3     1  UNL1        0.0420
     19 C         -11.4813  -18.9827   23.1244 C.ar    1  UNL1       -0.0208
     20 C         -12.5145  -18.5795   24.1342 C.ar    1  UNL1       -0.0042
     21 C         -13.6347  -17.6646   23.7367 C.ar    1  UNL1       -0.0003
     22 C         -13.7217  -17.1529   22.3294 C.ar    1  UNL1       -0.0000
     23 C         -12.6884  -17.5561   21.3195 C.ar    1  UNL1       -0.0003
     24 C         -11.5682  -18.4710   21.7171 C.ar    1  UNL1       -0.0042
@<TRIPOS>BOND
     1     1     2    2
     2     2     3   am
     3     3    16    1
     4    16    17    1
     5    17    18    1
     6    18    19    1
     7    19    20   ar
     8    20    21   ar
     9    21    22   ar
    10    22    23   ar
    11    23    24   ar
    12     2     4   am
    13     4     5    1
    14     5     6    1
    15     6     7    1
    16     7    11    1
    17    11    12   ar
    18    12    13   ar
    19    13    14   ar
    20    14    15   ar
    21     7     8    1
    22     8     9    1
    23    18    16    1
    24    24    19   ar
    25     9     4    1
    26    15    11   ar
    27     3    10    1
@<TRIPOS>MOLECULE
*****
 24 27 0 0 0
SMALL
GASTEIGER

@<TRIPOS>ATOM
      1 O          -0.2390    4.0053   19.3090 O.2     1  UNL1       -0.2526
      2 C          -0.2941    2.6445   19.9378 C.2     1  UNL1        0.3039
      3 N          -1.3892    2.3097   20.9064 N.am    1  UNL1       -0.2901
      4 N           0.7461    1.6186   19.5978 N.am    1  UNL1       -0.2641
      5 C           1.8414    1.9535   18.6291 C.3     1  UNL1        0.0969
      6 C           2.8815    0.9276   18.2891 C.3     1  UNL1        0.0460
      7 C           2.8265   -0.4332   18.9179 C.3     1  UNL1        0.1103
      8 C           1.7313   -0.7680   19.8866 C.3     1  UNL1        0.0460
      9 C           0.6911    0.2579   20.2266 C.3     1  UNL1        0.0969
     10 H          -1.4254    1.4166   21.3191 H       1  UNL1        0.1509
     11 N           3.8667   -1.4591   18.5780 N.ar    1  UNL1       -0.2320
     12 C           4.0231   -2.8037   19.2241 C.ar    1  UNL1        0.1191
     13 C           5.1862   -3.4961   18.5777 C.ar    1  UNL1        0.1441
     14 N           5.7485   -2.5794   17.5321 N.ar    1  UNL1       -0.1271
     15 N           4.9330   -1.3205   17.5323 N.ar    1  UNL1       -0.0638
     16 C          -2.4294    3.3356   21.2464 C.3     1  UNL1        0.0774
     17 C          -3.3436    4.4477   20.8250 C.3     1  UNL1        0.0259
     18 C          -3.3168    4.0004   22.2565 C.3     1  UNL1        0.0420
     19 C          -3.8138    4.1261   23.6663 C.ar    1  UNL1       -0.0208
     20 C          -2.9342    3.7179   24.8107 C.ar    1  UNL1       -0.0042
     21 C          -3.4312    3.8435   26.2204 C.ar    1  UNL1       -0.0003
     22 C          -4.8077    4.3773   26.4856 C.ar    1  UNL1       -0.0000
     23 C          -5.6872    4.7855   25.3412 C.ar    1  UNL1       -0.0003
     24 C          -5.1903    4.6598   23.9315 C.ar    1  UNL1       -0.0042
@<TRIPOS>BOND
     1     1     2    2
     2     2     3   am
     3     3    16    1
     4    16    17    1
     5    17    18    1
     6    18    19    1
     7    19    20   ar
     8    20    21   ar
     9    21    22   ar
    10    22    23   ar
    11    23    24   ar
    12     2     4   am
    13     4     5    1
    14     5     6    1
    15     6     7    1
    16     7    11    1
    17    11    12   ar
    18    12    13   ar
    19    13    14   ar
    20    14    15   ar
    21     7     8    1
    22     8     9    1
    23    18    16    1
    24    24    19   ar
    25     9     4    1
    26    15    11   ar
    27     3    10    1
@<TRIPOS>MOLECULE
*****
 24 27 0 0 0
SMALL
GASTEIGER

@<TRIPOS>ATOM
      1 O           8.3489   -5.2568   23.5011 O.2     1  UNL1       -0.2526
      2 C           7.0317   -4.5538   23.6459 C.2     1  UNL1        0.3039
      3 N           6.3168   -4.5646   24.9644 N.am    1  UNL1       -0.2901
      4 N           6.4296   -3.8400   22.4721 N.am    1  UNL1       -0.2641
      5 C           7.1447   -3.8291   21.1534 C.3     1  UNL1        0.0969
      6 C           6.5425   -3.1153   19.9796 C.3     1  UNL1        0.0460
      7 C           5.2253   -2.4123   20.1244 C.3     1  UNL1        0.1103
      8 C           4.5104   -2.4231   21.4429 C.3     1  UNL1        0.0460
      9 C           5.1125   -3.1370   22.6168 C.3     1  UNL1        0.0969
     10 H           5.4523   -4.1032   25.0595 H       1  UNL1        0.1509
     11 N           4.6232   -1.6985   18.9505 N.ar    1  UNL1       -0.2320
     12 C           3.5259   -0.6774   19.0077 C.ar    1  UNL1        0.1191
     13 C           3.2372   -0.2282   17.6059 C.ar    1  UNL1        0.1441
     14 N           4.1561   -0.9717   16.6824 N.ar    1  UNL1       -0.1271
     15 N           5.0127   -1.8804   17.5135 N.ar    1  UNL1       -0.0638
     16 C           6.9189   -5.2785   26.1383 C.3     1  UNL1        0.0774
     17 C           7.7243   -6.4155   26.6937 C.3     1  UNL1        0.0259
     18 C           7.1564   -5.3778   27.6160 C.3     1  UNL1        0.0420
     19 C           6.9656   -4.8360   29.0017 C.ar    1  UNL1       -0.0208
     20 C           6.6141   -3.3914   29.2004 C.ar    1  UNL1       -0.0042
     21 C           6.4234   -2.8497   30.5861 C.ar    1  UNL1       -0.0003
     22 C           6.5840   -3.7527   31.7731 C.ar    1  UNL1       -0.0000
     23 C           6.9354   -5.1973   31.5744 C.ar    1  UNL1       -0.0003
     24 C           7.1262   -5.7390   30.1887 C.ar    1  UNL1       -0.0042
@<TRIPOS>BOND
     1     1     2    2
     2     2     3   am
     3     3    16    1
     4    16    17    1
     5    17    18    1
     6    18    19    1
     7    19    20   ar
     8    20    21   ar
     9    21    22   ar
    10    22    23   ar
    11    23    24   ar
    12     2     4   am
    13     4     5    1
    14     5     6    1
    15     6     7    1
    16     7    11    1
    17    11    12   ar
    18    12    13   ar
    19    13    14   ar
    20    14    15   ar
    21     7     8    1
    22     8     9    1
    23    18    16    1
    24    24    19   ar
    25     9     4    1
    26    15    11   ar
    27     3    10    1
@<TRIPOS>MOLECULE
*****
 24 27 0 0 0
SMALL
GASTEIGER

@<TRIPOS>ATOM
      1 O           6.6793   -4.6528   22.6596 O.2     1  UNL1       -0.2526
      2 C           6.3044   -3.5760   23.6343 C.2     1  UNL1        0.3039
      3 N           5.8250   -2.2456   23.1344 N.am    1  UNL1       -0.2901
      4 N           6.4090   -3.8297   25.1090 N.am    1  UNL1       -0.2641
      5 C           6.8885   -5.1603   25.6090 C.3     1  UNL1        0.0969
      6 C           6.9931   -5.4140   27.0837 C.3     1  UNL1        0.0460
      7 C           6.6182   -4.3372   28.0584 C.3     1  UNL1        0.1103
      8 C           6.1388   -3.0067   27.5584 C.3     1  UNL1        0.0460
      9 C           6.0342   -2.7530   26.0837 C.3     1  UNL1        0.0969
     10 H           5.5790   -1.5388   23.7741 H       1  UNL1        0.1509
     11 N           6.7228   -4.5909   29.5331 N.ar    1  UNL1       -0.2320
     12 C           6.6937   -3.5485   30.6113 C.ar    1  UNL1        0.1191
     13 C           6.8277   -4.2449   31.9331 C.ar    1  UNL1        0.1441
     14 N           6.9398   -5.7177   31.6717 N.ar    1  UNL1       -0.1271
     15 N           6.8749   -5.9315   30.1885 N.ar    1  UNL1       -0.0638
     16 C           5.7204   -1.9919   21.6597 C.3     1  UNL1        0.0774
     17 C           6.3114   -2.0689   20.2832 C.3     1  UNL1        0.0259
     18 C           4.9482   -1.4754   20.4820 C.3     1  UNL1        0.0420
     19 C           3.7153   -0.8345   19.9169 C.ar    1  UNL1       -0.0208
     20 C           2.3776   -1.1029   20.5401 C.ar    1  UNL1       -0.0042
     21 C           1.1448   -0.4620   19.9749 C.ar    1  UNL1       -0.0003
     22 C           1.2498    0.4473   18.7865 C.ar    1  UNL1       -0.0000
     23 C           2.5875    0.7157   18.1633 C.ar    1  UNL1       -0.0003
     24 C           3.8203    0.0748   18.7285 C.ar    1  UNL1       -0.0042
@<TRIPOS>BOND
     1     1     2    2
     2     2     3   am
     3     3    16    1
     4    16    17    1
     5    17    18    1
     6    18    19    1
     7    19    20   ar
     8    20    21   ar
     9    21    22   ar
    10    22    23   ar
    11    23    24   ar
    12     2     4   am
    13     4     5    1
    14     5     6    1
    15     6     7    1
    16     7    11    1
    17    11    12   ar
    18    12    13   ar
    19    13    14   ar
    20    14    15   ar
    21     7     8    1
    22     8     9    1
    23    18    16    1
    24    24    19   ar
    25     9     4    1
    26    15    11   ar
    27     3    10    1
@<TRIPOS>MOLECULE
*****
 24 27 0 0 0
SMALL
GASTEIGER

@<TRIPOS>ATOM
      1 O         -14.5145   -0.0341   18.8842 O.2     1  UNL1       -0.2526
      2 C         -14.8977   -1.3959   19.3829 C.2     1  UNL1        0.3039
      3 N         -16.2170   -1.6004   20.0666 N.am    1  UNL1       -0.2901
      4 N         -13.9615   -2.5532   19.1980 N.am    1  UNL1       -0.2641
      5 C         -12.6420   -2.3486   18.5143 C.3     1  UNL1        0.0969
      6 C         -11.7058   -3.5059   18.3293 C.3     1  UNL1        0.0460
      7 C         -12.0890   -4.8677   18.8280 C.3     1  UNL1        0.1103
      8 C         -13.4083   -5.0722   19.5117 C.3     1  UNL1        0.0460
      9 C         -14.3446   -3.9150   19.6966 C.3     1  UNL1        0.0969
     10 H         -16.4685   -2.4942   20.3939 H       1  UNL1        0.1509
     11 N         -11.1528   -6.0250   18.6431 N.ar    1  UNL1       -0.2320
     12 C          -9.7475   -6.1136   19.1603 C.ar    1  UNL1        0.1191
     13 C          -9.1837   -7.4402   18.7453 C.ar    1  UNL1        0.1441
     14 N         -10.2404   -8.1715   17.9716 N.ar    1  UNL1       -0.1271
     15 N         -11.4573   -7.2968   17.9084 N.ar    1  UNL1       -0.0638
     16 C         -17.1533   -0.4432   20.2515 C.3     1  UNL1        0.0774
     17 C         -18.4883    0.1983   20.0148 C.3     1  UNL1        0.0259
     18 C         -17.4398    0.9197   20.8087 C.3     1  UNL1        0.0420
     19 C         -16.9998    2.1231   21.5887 C.ar    1  UNL1       -0.0208
     20 C         -17.3160    2.2255   23.0514 C.ar    1  UNL1       -0.0042
     21 C         -16.8761    3.4288   23.8313 C.ar    1  UNL1       -0.0003
     22 C         -16.1199    4.5298   23.1485 C.ar    1  UNL1       -0.0000
     23 C         -15.8037    4.4274   21.6859 C.ar    1  UNL1       -0.0003
     24 C         -16.2436    3.2240   20.9059 C.ar    1  UNL1       -0.0042
@<TRIPOS>BOND
     1     1     2    2
     2     2     3   am
     3     3    16    1
     4    16    17    1
     5    17    18    1
     6    18    19    1
     7    19    20   ar
     8    20    21   ar
     9    21    22   ar
    10    22    23   ar
    11    23    24   ar
    12     2     4   am
    13     4     5    1
    14     5     6    1
    15     6     7    1
    16     7    11    1
    17    11    12   ar
    18    12    13   ar
    19    13    14   ar
    20    14    15   ar
    21     7     8    1
    22     8     9    1
    23    18    16    1
    24    24    19   ar
    25     9     4    1
    26    15    11   ar
    27     3    10    1
@<TRIPOS>MOLECULE
*****
 24 27 0 0 0
SMALL
GASTEIGER

@<TRIPOS>ATOM
      1 O          -1.3360    3.0054   21.7015 O.2     1  UNL1       -0.2526
      2 C          -2.4493    3.6168   20.9034 C.2     1  UNL1        0.3039
      3 N          -2.2573    3.9005   19.4431 N.am    1  UNL1       -0.2901
      4 N          -3.7547    3.9444   21.5658 N.am    1  UNL1       -0.2641
      5 C          -3.9467    3.6607   23.0262 C.3     1  UNL1        0.0969
      6 C          -5.2521    3.9883   23.6885 C.3     1  UNL1        0.0460
      7 C          -6.3654    4.5996   22.8905 C.3     1  UNL1        0.1103
      8 C          -6.1734    4.8833   21.4302 C.3     1  UNL1        0.0460
      9 C          -4.8680    4.5557   20.7678 C.3     1  UNL1        0.0969
     10 H          -2.9880    4.3017   18.9194 H       1  UNL1        0.1509
     11 N          -7.6708    4.9272   23.5528 N.ar    1  UNL1       -0.2320
     12 C          -8.0480    6.2496   24.1521 C.ar    1  UNL1        0.1191
     13 C          -9.4385    6.1296   24.7018 C.ar    1  UNL1        0.1441
     14 N          -9.9206    4.7331   24.4424 N.ar    1  UNL1       -0.1271
     15 N          -8.8281    3.9900   23.7322 N.ar    1  UNL1       -0.0638
     16 C          -0.9519    3.5729   18.7808 C.3     1  UNL1        0.0774
     17 C           0.1295    3.9171   17.8000 C.3     1  UNL1        0.0259
     18 C           0.2275    2.6612   18.6143 C.3     1  UNL1        0.0420
     19 C           0.9650    1.4097   18.9884 C.ar    1  UNL1       -0.0208
     20 C           2.2643    1.0758   18.3172 C.ar    1  UNL1       -0.0042
     21 C           3.0017   -0.1756   18.6913 C.ar    1  UNL1       -0.0003
     22 C           2.4400   -1.0932   19.7365 C.ar    1  UNL1       -0.0000
     23 C           1.1407   -0.7593   20.4077 C.ar    1  UNL1       -0.0003
     24 C           0.4033    0.4921   20.0336 C.ar    1  UNL1       -0.0042
@<TRIPOS>BOND
     1     1     2    2
     2     2     3   am
     3     3    16    1
     4    16    17    1
     5    17    18    1
     6    18    19    1
     7    19    20   ar
     8    20    21   ar
     9    21    22   ar
    10    22    23   ar
    11    23    24   ar
    12     2     4   am
    13     4     5    1
    14     5     6    1
    15     6     7    1
    16     7    11    1
    17    11    12   ar
    18    12    13   ar
    19    13    14   ar
    20    14    15   ar
    21     7     8    1
    22     8     9    1
    23    18    16    1
    24    24    19   ar
    25     9     4    1
    26    15    11   ar
    27     3    10    1
@<TRIPOS>MOLECULE
*****
 24 27 0 0 0
SMALL
GASTEIGER

@<TRIPOS>ATOM
      1 O           5.0072   -1.0222   24.9799 O.2     1  UNL1       -0.2526
      2 C           3.8104   -0.6313   25.7954 C.2     1  UNL1        0.3039
      3 N           2.5614   -0.1560   25.1142 N.am    1  UNL1       -0.2901
      4 N           3.8627   -0.7157   27.2921 N.am    1  UNL1       -0.2641
      5 C           5.1117   -1.1911   27.9733 C.3     1  UNL1        0.0969
      6 C           5.1640   -1.2755   29.4700 C.3     1  UNL1        0.0460
      7 C           3.9672   -0.8846   30.2855 C.3     1  UNL1        0.1103
      8 C           2.7183   -0.4093   29.6043 C.3     1  UNL1        0.0460
      9 C           2.6660   -0.3248   28.1076 C.3     1  UNL1        0.0969
     10 H           1.7759    0.1005   25.6494 H       1  UNL1        0.1509
     11 N           4.0195   -0.9690   31.7822 N.ar    1  UNL1       -0.2320
     12 C           4.1287    0.1906   32.7274 C.ar    1  UNL1        0.1191
     13 C           4.1485   -0.3515   34.1259 C.ar    1  UNL1        0.1441
     14 N           4.0515   -1.8462   34.0450 N.ar    1  UNL1       -0.1271
     15 N           3.9718   -2.2278   32.5965 N.ar    1  UNL1       -0.0638
     16 C           2.5091   -0.0716   23.6175 C.3     1  UNL1        0.0774
     17 C           2.1046    0.6580   22.3709 C.3     1  UNL1        0.0259
     18 C           2.8230   -0.6550   22.2717 C.3     1  UNL1        0.0420
     19 C           3.4191   -1.7500   21.4375 C.ar    1  UNL1       -0.0208
     20 C           3.0916   -1.8428   19.9767 C.ar    1  UNL1       -0.0042
     21 C           3.6876   -2.9377   19.1425 C.ar    1  UNL1       -0.0003
     22 C           4.6112   -3.9398   19.7692 C.ar    1  UNL1       -0.0000
     23 C           4.9387   -3.8470   21.2300 C.ar    1  UNL1       -0.0003
     24 C           4.3427   -2.7521   22.0642 C.ar    1  UNL1       -0.0042
@<TRIPOS>BOND
     1     1     2    2
     2     2     3   am
     3     3    16    1
     4    16    17    1
     5    17    18    1
     6    18    19    1
     7    19    20   ar
     8    20    21   ar
     9    21    22   ar
    10    22    23   ar
    11    23    24   ar
    12     2     4   am
    13     4     5    1
    14     5     6    1
    15     6     7    1
    16     7    11    1
    17    11    12   ar
    18    12    13   ar
    19    13    14   ar
    20    14    15   ar
    21     7     8    1
    22     8     9    1
    23    18    16    1
    24    24    19   ar
    25     9     4    1
    26    15    11   ar
    27     3    10    1
@<TRIPOS>MOLECULE
*****
 24 27 0 0 0
SMALL
GASTEIGER

@<TRIPOS>ATOM
      1 O           4.9424   -4.3389   21.3613 O.2     1  UNL1       -0.2526
      2 C           5.5679   -3.0855   20.8248 C.2     1  UNL1        0.3039
      3 N           7.0613   -2.9525   20.7796 N.am    1  UNL1       -0.2901
      4 N           4.6999   -1.9651   20.3334 N.am    1  UNL1       -0.2641
      5 C           3.2065   -2.0982   20.3786 C.3     1  UNL1        0.0969
      6 C           2.3385   -0.9778   19.8873 C.3     1  UNL1        0.0460
      7 C           2.9640    0.2756   19.3508 C.3     1  UNL1        0.1103
      8 C           4.4574    0.4086   19.3057 C.3     1  UNL1        0.0460
      9 C           5.3253   -0.7117   19.7970 C.3     1  UNL1        0.0969
     10 H           7.4718   -2.1298   20.4275 H       1  UNL1        0.1509
     11 N           2.0960    1.3960   18.8595 N.ar    1  UNL1       -0.2320
     12 C           2.4742    2.8466   18.8074 C.ar    1  UNL1        0.1191
     13 C           1.3094    3.6096   18.2497 C.ar    1  UNL1        0.1441
     14 N           0.2113    2.6306   17.9571 N.ar    1  UNL1       -0.1271
     15 N           0.6974    1.2625   18.3340 N.ar    1  UNL1       -0.0638
     16 C           7.9293   -4.0729   21.2709 C.3     1  UNL1        0.0774
     17 C           9.0913   -4.9998   21.0702 C.3     1  UNL1        0.0259
     18 C           8.2705   -5.0864   22.3227 C.3     1  UNL1        0.0420
     19 C           7.9937   -5.7216   23.6531 C.ar    1  UNL1       -0.0208
     20 C           7.3194   -4.9318   24.7355 C.ar    1  UNL1       -0.0042
     21 C           7.0426   -5.5669   26.0658 C.ar    1  UNL1       -0.0003
     22 C           7.4400   -6.9919   26.3138 C.ar    1  UNL1       -0.0000
     23 C           8.1143   -7.7817   25.2315 C.ar    1  UNL1       -0.0003
     24 C           8.3911   -7.1465   23.9011 C.ar    1  UNL1       -0.0042
@<TRIPOS>BOND
     1     1     2    2
     2     2     3   am
     3     3    16    1
     4    16    17    1
     5    17    18    1
     6    18    19    1
     7    19    20   ar
     8    20    21   ar
     9    21    22   ar
    10    22    23   ar
    11    23    24   ar
    12     2     4   am
    13     4     5    1
    14     5     6    1
    15     6     7    1
    16     7    11    1
    17    11    12   ar
    18    12    13   ar
    19    13    14   ar
    20    14    15   ar
    21     7     8    1
    22     8     9    1
    23    18    16    1
    24    24    19   ar
    25     9     4    1
    26    15    11   ar
    27     3    10    1
