@<TRIPOS>MOLECULE
*****
 40 45 0 0 0
SMALL
GASTEIGER

@<TRIPOS>ATOM
      1 N           6.9856   -4.0424   23.0003 N.3     1  UNL1       -0.2641
      2 C           7.6701   -5.2216   23.6255 C.3     1  UNL1        0.0981
      3 C           8.4759   -6.1587   22.7754 C.3     1  UNL1        0.0224
      4 C           9.1603   -7.3379   23.4006 C.3     1  UNL1        0.0065
      5 C           9.0390   -7.5801   24.8759 C.3     1  UNL1        0.0277
      6 C           8.2333   -6.6431   25.7261 C.ar    1  UNL1       -0.0073
      7 C           8.1120   -6.8853   27.2014 C.ar    1  UNL1       -0.0015
      8 C           7.3062   -5.9482   28.0516 C.ar    1  UNL1        0.0203
      9 C           6.6218   -4.7690   27.4264 C.ar    1  UNL1        0.0985
     10 N           6.7431   -4.5268   25.9510 N.ar    1  UNL1       -0.2471
     11 C           7.5488   -5.4638   25.1009 C.ar    1  UNL1        0.0695
     12 C           5.4930   -4.0336   22.8514 C.3     1  UNL1        0.0888
     13 C           1.5020    1.4937   23.7289 C.ar    1  UNL1       -0.0003
     14 C           1.4769    1.0945   22.2832 C.ar    1  UNL1       -0.0003
     15 C           2.2701   -0.0908   21.8186 C.ar    1  UNL1       -0.0045
     16 C           3.0884   -0.8769   22.7996 C.ar    1  UNL1       -0.0234
     17 C           3.1134   -0.4777   24.2453 C.ar    1  UNL1       -0.0103
     18 C           2.3203    0.7076   24.7099 C.ar    1  UNL1       -0.0032
     19 C           3.9317   -1.2639   25.2264 C.3     1  UNL1        0.0953
     20 N           4.7249   -2.4492   24.7617 N.3     1  UNL1       -0.2934
     21 C           4.6998   -2.8484   23.3160 C.3     1  UNL1        0.0748
     22 C           3.8816   -2.0623   22.3350 C.3     1  UNL1        0.0432
     23 H           4.3930   -3.2529   25.2949 H       1  UNL1        0.1236
     24 C           7.7937   -2.8718   22.5241 C.3     1  UNL1        0.0994
     25 C           7.4476   -2.1987   21.2291 C.ar    1  UNL1       -0.0062
     26 C           7.1316   -0.7325   21.2068 C.ar    1  UNL1       -0.0032
     27 C           6.7855   -0.0594   19.9118 C.ar    1  UNL1       -0.0032
     28 C           6.7554   -0.8525   18.6390 C.ar    1  UNL1       -0.0064
     29 C           7.0713   -2.3186   18.6611 C.ar    1  UNL1       -0.0032
     30 C           7.4174   -2.9918   19.9562 C.ar    1  UNL1       -0.0032
     31 C           6.4093   -0.1794   17.3440 C.3     1  UNL1        0.0956
     32 N           5.0309   -0.3216   16.7697 N.3     1  UNL1       -0.2937
     33 H           5.0625   -1.1063   16.1189 H       1  UNL1        0.1236
     34 C           3.8609   -0.5592   17.6779 C.3     1  UNL1        0.0689
     35 C           3.0625    0.6020   18.1920 C.3     1  UNL1        0.0207
     36 C           1.5636    0.5464   18.1781 C.3     1  UNL1        0.0335
     37 C           0.7653    1.7076   18.6922 C.3     1  UNL1        0.1422
     38 O           1.4658    2.9244   19.2201 O.3     1  UNL1       -0.3538
     39 C           2.9648    2.9800   19.2339 C.3     1  UNL1        0.1422
     40 C           3.7631    1.8188   18.7199 C.3     1  UNL1        0.0335
@<TRIPOS>BOND
     1    13    14   ar
     2    14    15   ar
     3    15    16   ar
     4    16    17   ar
     5    17    18   ar
     6    17    19    1
     7    19    20    1
     8    20    21    1
     9    21    12    1
    10    12     1    1
    11     1    24    1
    12    24    25    1
    13    25    26   ar
    14    26    27   ar
    15    27    28   ar
    16    28    31    1
    17    31    32    1
    18    32    34    1
    19    34    35    1
    20    35    36    1
    21    36    37    1
    22    37    38    1
    23    38    39    1
    24    39    40    1
    25    28    29   ar
    26    29    30   ar
    27     2     1    1
    28     2     3    1
    29     3     4    1
    30     4     5    1
    31     5     6    1
    32     6     7   ar
    33     7     8   ar
    34     8     9   ar
    35     9    10   ar
    36    10    11   ar
    37    21    22    1
    38    18    13   ar
    39    30    25   ar
    40    11     2    1
    41    22    16    1
    42    40    35    1
    43    11     6   ar
    44    20    23    1
    45    32    33    1
@<TRIPOS>MOLECULE
*****
 40 45 0 0 0
SMALL
GASTEIGER

@<TRIPOS>ATOM
      1 N          -8.8524  -17.5181   21.1802 N.3     1  UNL1       -0.2641
      2 C         -10.3336  -17.2864   21.2294 C.3     1  UNL1        0.0981
      3 C         -11.0185  -16.5698   20.1036 C.3     1  UNL1        0.0224
      4 C         -12.4996  -16.3381   20.1528 C.3     1  UNL1        0.0065
      5 C         -13.2960  -16.8230   21.3278 C.3     1  UNL1        0.0277
      6 C         -12.6112  -17.5396   22.4536 C.ar    1  UNL1       -0.0073
      7 C         -13.4076  -18.0245   23.6286 C.ar    1  UNL1       -0.0015
      8 C         -12.7227  -18.7412   24.7545 C.ar    1  UNL1        0.0203
      9 C         -11.2416  -18.9729   24.7053 C.ar    1  UNL1        0.0985
     10 N         -10.4452  -18.4880   23.5302 N.ar    1  UNL1       -0.2471
     11 C         -11.1300  -17.7714   22.4044 C.ar    1  UNL1        0.0695
     12 C          -7.9067  -16.3735   21.3939 C.3     1  UNL1        0.0888
     13 C          -6.9078  -14.9226   28.0382 C.ar    1  UNL1       -0.0003
     14 C          -8.3795  -15.0569   27.7808 C.ar    1  UNL1       -0.0003
     15 C          -8.8736  -15.3739   26.4004 C.ar    1  UNL1       -0.0045
     16 C          -7.8960  -15.5567   25.2775 C.ar    1  UNL1       -0.0234
     17 C          -6.4244  -15.4225   25.5349 C.ar    1  UNL1       -0.0103
     18 C          -5.9303  -15.1055   26.9152 C.ar    1  UNL1       -0.0032
     19 C          -5.4468  -15.6053   24.4119 C.3     1  UNL1        0.0953
     20 N          -5.9410  -15.9223   23.0316 N.3     1  UNL1       -0.2934
     21 C          -7.4126  -16.0565   22.7742 C.3     1  UNL1        0.0748
     22 C          -8.3901  -15.8737   23.8971 C.3     1  UNL1        0.0432
     23 H          -5.5129  -16.8079   22.7618 H       1  UNL1        0.1236
     24 C          -8.3169  -18.8944   20.9174 C.3     1  UNL1        0.0994
     25 C          -6.8464  -19.1632   21.0410 C.ar    1  UNL1       -0.0062
     26 C          -6.0083  -19.3302   19.8082 C.ar    1  UNL1       -0.0032
     27 C          -4.5378  -19.5991   19.9318 C.ar    1  UNL1       -0.0032
     28 C          -3.9054  -19.7009   21.2881 C.ar    1  UNL1       -0.0064
     29 C          -4.7434  -19.5340   22.5209 C.ar    1  UNL1       -0.0032
     30 C          -6.2140  -19.2651   22.3973 C.ar    1  UNL1       -0.0032
     31 C          -2.4349  -19.9698   21.4117 C.3     1  UNL1        0.0956
     32 N          -1.5372  -18.9511   22.0492 N.3     1  UNL1       -0.2937
     33 H          -0.6149  -19.3796   22.1280 H       1  UNL1        0.1236
     34 C          -1.3393  -17.6140   21.3988 C.3     1  UNL1        0.0689
     35 C          -1.6218  -17.4426   19.9356 C.3     1  UNL1        0.0207
     36 C          -2.8508  -16.7069   19.4903 C.3     1  UNL1        0.0335
     37 C          -3.1333  -16.5355   18.0271 C.3     1  UNL1        0.1422
     38 O          -2.1870  -17.0998   17.0094 O.3     1  UNL1       -0.3538
     39 C          -0.9580  -17.8355   17.4547 C.3     1  UNL1        0.1422
     40 C          -0.6754  -18.0069   18.9179 C.3     1  UNL1        0.0335
@<TRIPOS>BOND
     1    13    14   ar
     2    14    15   ar
     3    15    16   ar
     4    16    17   ar
     5    17    18   ar
     6    17    19    1
     7    19    20    1
     8    20    21    1
     9    21    12    1
    10    12     1    1
    11     1    24    1
    12    24    25    1
    13    25    26   ar
    14    26    27   ar
    15    27    28   ar
    16    28    31    1
    17    31    32    1
    18    32    34    1
    19    34    35    1
    20    35    36    1
    21    36    37    1
    22    37    38    1
    23    38    39    1
    24    39    40    1
    25    28    29   ar
    26    29    30   ar
    27     2     1    1
    28     2     3    1
    29     3     4    1
    30     4     5    1
    31     5     6    1
    32     6     7   ar
    33     7     8   ar
    34     8     9   ar
    35     9    10   ar
    36    10    11   ar
    37    21    22    1
    38    18    13   ar
    39    30    25   ar
    40    11     2    1
    41    22    16    1
    42    40    35    1
    43    11     6   ar
    44    20    23    1
    45    32    33    1
@<TRIPOS>MOLECULE
*****
 40 45 0 0 0
SMALL
GASTEIGER

@<TRIPOS>ATOM
      1 N          -0.3588    2.4654   20.4317 N.3     1  UNL1       -0.2641
      2 C          -1.1790    3.2361   19.4401 C.3     1  UNL1        0.0981
      3 C          -0.5378    3.7800   18.1978 C.3     1  UNL1        0.0224
      4 C          -1.3580    4.5507   17.2062 C.3     1  UNL1        0.0065
      5 C          -2.8195    4.7774   17.4568 C.3     1  UNL1        0.0277
      6 C          -3.4607    4.2335   18.6989 C.ar    1  UNL1       -0.0073
      7 C          -4.9222    4.4603   18.9495 C.ar    1  UNL1       -0.0015
      8 C          -5.5634    3.9163   20.1917 C.ar    1  UNL1        0.0203
      9 C          -4.7432    3.1457   21.1833 C.ar    1  UNL1        0.0985
     10 N          -3.2817    2.9189   20.9327 N.ar    1  UNL1       -0.2471
     11 C          -2.6405    3.4628   19.6906 C.ar    1  UNL1        0.0695
     12 C           0.3309    3.1834   21.5537 C.3     1  UNL1        0.0888
     13 C          -0.4919    1.4552   28.1557 C.ar    1  UNL1       -0.0003
     14 C           0.8214    0.9193   27.6678 C.ar    1  UNL1       -0.0003
     15 C           1.2486    1.1578   26.2498 C.ar    1  UNL1       -0.0045
     16 C           0.3626    1.9321   25.3197 C.ar    1  UNL1       -0.0234
     17 C          -0.9508    2.4681   25.8075 C.ar    1  UNL1       -0.0103
     18 C          -1.3780    2.2296   27.2255 C.ar    1  UNL1       -0.0032
     19 C          -1.8369    3.2425   24.8773 C.3     1  UNL1        0.0953
     20 N          -1.4096    3.4809   23.4594 N.3     1  UNL1       -0.2934
     21 C          -0.0963    2.9450   22.9716 C.3     1  UNL1        0.0748
     22 C           0.7898    2.1706   23.9017 C.3     1  UNL1        0.0432
     23 H          -1.3830    4.4918   23.3259 H       1  UNL1        0.1236
     24 C          -0.2283    0.9768   20.3013 C.3     1  UNL1        0.0994
     25 C           1.0583    0.3762   19.8177 C.ar    1  UNL1       -0.0062
     26 C           1.8442   -0.5347   20.7136 C.ar    1  UNL1       -0.0032
     27 C           3.1308   -1.1353   20.2300 C.ar    1  UNL1       -0.0032
     28 C           3.6315   -0.8250   18.8505 C.ar    1  UNL1       -0.0064
     29 C           2.8457    0.0859   17.9546 C.ar    1  UNL1       -0.0032
     30 C           1.5590    0.6865   18.4382 C.ar    1  UNL1       -0.0032
     31 C           4.9181   -1.4256   18.3669 C.3     1  UNL1        0.0956
     32 N           4.9282   -2.8076   17.7839 N.3     1  UNL1       -0.2937
     33 H           5.7425   -2.8632   17.1722 H       1  UNL1        0.1236
     34 C           4.9839   -4.0029   18.6886 C.3     1  UNL1        0.0689
     35 C           5.5019   -3.8600   20.0890 C.3     1  UNL1        0.0207
     36 C           6.9706   -3.6736   20.3301 C.3     1  UNL1        0.0335
     37 C           7.4886   -3.5307   21.7306 C.3     1  UNL1        0.1422
     38 O           6.5379   -3.5742   22.8900 O.3     1  UNL1       -0.3538
     39 C           5.0691   -3.7606   22.6489 C.3     1  UNL1        0.1422
     40 C           4.5511   -3.9035   21.2485 C.3     1  UNL1        0.0335
@<TRIPOS>BOND
     1    13    14   ar
     2    14    15   ar
     3    15    16   ar
     4    16    17   ar
     5    17    18   ar
     6    17    19    1
     7    19    20    1
     8    20    21    1
     9    21    12    1
    10    12     1    1
    11     1    24    1
    12    24    25    1
    13    25    26   ar
    14    26    27   ar
    15    27    28   ar
    16    28    31    1
    17    31    32    1
    18    32    34    1
    19    34    35    1
    20    35    36    1
    21    36    37    1
    22    37    38    1
    23    38    39    1
    24    39    40    1
    25    28    29   ar
    26    29    30   ar
    27     2     1    1
    28     2     3    1
    29     3     4    1
    30     4     5    1
    31     5     6    1
    32     6     7   ar
    33     7     8   ar
    34     8     9   ar
    35     9    10   ar
    36    10    11   ar
    37    21    22    1
    38    18    13   ar
    39    30    25   ar
    40    11     2    1
    41    22    16    1
    42    40    35    1
    43    11     6   ar
    44    20    23    1
    45    32    33    1
@<TRIPOS>MOLECULE
*****
 40 45 0 0 0
SMALL
GASTEIGER

@<TRIPOS>ATOM
      1 N           7.2061   -3.9615   23.4631 N.3     1  UNL1       -0.2641
      2 C           7.6977   -5.2151   24.1240 C.3     1  UNL1        0.0981
      3 C           8.3772   -6.2756   23.3094 C.3     1  UNL1        0.0224
      4 C           8.8688   -7.5292   23.9703 C.3     1  UNL1        0.0065
      5 C           8.6810   -7.7223   25.4459 C.3     1  UNL1        0.0277
      6 C           8.0015   -6.6618   26.2606 C.ar    1  UNL1       -0.0073
      7 C           7.8136   -6.8549   27.7362 C.ar    1  UNL1       -0.0015
      8 C           7.1340   -5.7944   28.5509 C.ar    1  UNL1        0.0203
      9 C           6.6424   -4.5409   27.8899 C.ar    1  UNL1        0.0985
     10 N           6.8303   -4.3478   26.4143 N.ar    1  UNL1       -0.2471
     11 C           7.5098   -5.4082   25.5996 C.ar    1  UNL1        0.0695
     12 C           5.7719   -3.8509   23.0374 C.3     1  UNL1        0.0888
     13 C           1.4741    1.3710   24.2661 C.ar    1  UNL1       -0.0003
     14 C           1.4737    1.0701   22.7966 C.ar    1  UNL1       -0.0003
     15 C           2.3332   -0.0345   22.2570 C.ar    1  UNL1       -0.0045
     16 C           3.1931   -0.8381   23.1869 C.ar    1  UNL1       -0.0234
     17 C           3.1935   -0.5373   24.6564 C.ar    1  UNL1       -0.0103
     18 C           2.3340    0.5673   25.1960 C.ar    1  UNL1       -0.0032
     19 C           4.0534   -1.3410   25.5862 C.3     1  UNL1        0.0953
     20 N           4.9129   -2.4455   25.0466 N.3     1  UNL1       -0.2934
     21 C           4.9125   -2.7464   23.5771 C.3     1  UNL1        0.0748
     22 C           4.0526   -1.9428   22.6472 C.3     1  UNL1        0.0432
     23 H           4.6261   -3.3010   25.5224 H       1  UNL1        0.1236
     24 C           8.1485   -2.8186   23.2278 C.3     1  UNL1        0.0994
     25 C           8.0615   -2.0238   21.9586 C.ar    1  UNL1       -0.0062
     26 C           8.6224   -2.5819   20.6842 C.ar    1  UNL1       -0.0032
     27 C           8.5353   -1.7872   19.4151 C.ar    1  UNL1       -0.0032
     28 C           7.8874   -0.4343   19.4203 C.ar    1  UNL1       -0.0064
     29 C           7.3265    0.1238   20.6946 C.ar    1  UNL1       -0.0032
     30 C           7.4136   -0.6710   21.9638 C.ar    1  UNL1       -0.0032
     31 C           7.8004    0.3604   18.1511 C.3     1  UNL1        0.0956
     32 N           6.9062   -0.0995   17.0380 N.3     1  UNL1       -0.2937
     33 H           7.2039   -1.0435   16.7921 H       1  UNL1        0.1236
     34 C           5.4211   -0.1532   17.2426 C.3     1  UNL1        0.0689
     35 C           4.8064   -1.3087   17.9754 C.3     1  UNL1        0.0207
     36 C           5.4805   -2.6486   17.9635 C.3     1  UNL1        0.0335
     37 C           4.8657   -3.8040   18.6964 C.3     1  UNL1        0.1422
     38 O           3.5769   -3.6195   19.4411 O.3     1  UNL1       -0.3538
     39 C           2.9027   -2.2796   19.4531 C.3     1  UNL1        0.1422
     40 C           3.5174   -1.1241   18.7202 C.3     1  UNL1        0.0335
@<TRIPOS>BOND
     1    13    14   ar
     2    14    15   ar
     3    15    16   ar
     4    16    17   ar
     5    17    18   ar
     6    17    19    1
     7    19    20    1
     8    20    21    1
     9    21    12    1
    10    12     1    1
    11     1    24    1
    12    24    25    1
    13    25    26   ar
    14    26    27   ar
    15    27    28   ar
    16    28    31    1
    17    31    32    1
    18    32    34    1
    19    34    35    1
    20    35    36    1
    21    36    37    1
    22    37    38    1
    23    38    39    1
    24    39    40    1
    25    28    29   ar
    26    29    30   ar
    27     2     1    1
    28     2     3    1
    29     3     4    1
    30     4     5    1
    31     5     6    1
    32     6     7   ar
    33     7     8   ar
    34     8     9   ar
    35     9    10   ar
    36    10    11   ar
    37    21    22    1
    38    18    13   ar
    39    30    25   ar
    40    11     2    1
    41    22    16    1
    42    40    35    1
    43    11     6   ar
    44    20    23    1
    45    32    33    1
@<TRIPOS>MOLECULE
*****
 40 45 0 0 0
SMALL
GASTEIGER

@<TRIPOS>ATOM
      1 N           0.1086    2.2170   20.4334 N.3     1  UNL1       -0.2641
      2 C          -0.6168    3.0787   19.4429 C.3     1  UNL1        0.0981
      3 C           0.1157    3.6434   18.2619 C.3     1  UNL1        0.0224
      4 C          -0.6098    4.5051   17.2714 C.3     1  UNL1        0.0065
      5 C          -2.0676    4.8023   17.4619 C.3     1  UNL1        0.0277
      6 C          -2.8001    4.2377   18.6428 C.ar    1  UNL1       -0.0073
      7 C          -4.2580    4.5349   18.8333 C.ar    1  UNL1       -0.0015
      8 C          -4.9904    3.9703   20.0143 C.ar    1  UNL1        0.0203
      9 C          -4.2650    3.1085   21.0048 C.ar    1  UNL1        0.0985
     10 N          -2.8071    2.8113   20.8143 N.ar    1  UNL1       -0.2471
     11 C          -2.0747    3.3759   19.6334 C.ar    1  UNL1        0.0695
     12 C           0.1388    0.7283   20.2519 C.3     1  UNL1        0.0888
     13 C           5.6366   -3.0311   18.5514 C.ar    1  UNL1       -0.0003
     14 C           5.1096   -3.5023   19.8744 C.ar    1  UNL1       -0.0003
     15 C           3.9047   -2.8447   20.4791 C.ar    1  UNL1       -0.0045
     16 C           3.2267   -1.7158   19.7608 C.ar    1  UNL1       -0.0234
     17 C           3.7536   -1.2446   18.4378 C.ar    1  UNL1       -0.0103
     18 C           4.9585   -1.9022   17.8331 C.ar    1  UNL1       -0.0032
     19 C           3.0755   -0.1157   17.7195 C.3     1  UNL1        0.0953
     20 N           1.8706    0.5419   18.3242 N.3     1  UNL1       -0.2934
     21 C           1.3437    0.0707   19.6472 C.3     1  UNL1        0.0748
     22 C           2.0217   -1.0582   20.3655 C.3     1  UNL1        0.0432
     23 H           1.1107    0.4399   17.6514 H       1  UNL1        0.1236
     24 C           0.8039    2.8439   21.6054 C.3     1  UNL1        0.0994
     25 C           0.4268    2.4463   23.0017 C.ar    1  UNL1       -0.0062
     26 C           1.1575    1.3297   23.6868 C.ar    1  UNL1       -0.0032
     27 C           0.7804    0.9321   25.0831 C.ar    1  UNL1       -0.0032
     28 C          -0.3274    1.6512   25.7943 C.ar    1  UNL1       -0.0064
     29 C          -1.0580    2.7677   25.1093 C.ar    1  UNL1       -0.0032
     30 C          -0.6809    3.1653   23.7129 C.ar    1  UNL1       -0.0032
     31 C          -0.7045    1.2536   27.1906 C.3     1  UNL1        0.0956
     32 N          -0.1146    0.0183   27.8039 N.3     1  UNL1       -0.2937
     33 H           0.5661   -0.3453   27.1370 H       1  UNL1        0.1236
     34 C           0.5795    0.0980   29.1313 C.3     1  UNL1        0.0689
     35 C           2.0080   -0.3417   29.2582 C.3     1  UNL1        0.0207
     36 C           2.6343   -0.4740   30.6147 C.3     1  UNL1        0.0335
     37 C           4.0628   -0.9138   30.7416 C.3     1  UNL1        0.1422
     38 O           4.8649   -1.2213   29.5120 O.3     1  UNL1       -0.3538
     39 C           4.2386   -1.0890   28.1554 C.3     1  UNL1        0.1422
     40 C           2.8101   -0.6493   28.0285 C.3     1  UNL1        0.0335
@<TRIPOS>BOND
     1    13    14   ar
     2    14    15   ar
     3    15    16   ar
     4    16    17   ar
     5    17    18   ar
     6    17    19    1
     7    19    20    1
     8    20    21    1
     9    21    12    1
    10    12     1    1
    11     1    24    1
    12    24    25    1
    13    25    26   ar
    14    26    27   ar
    15    27    28   ar
    16    28    31    1
    17    31    32    1
    18    32    34    1
    19    34    35    1
    20    35    36    1
    21    36    37    1
    22    37    38    1
    23    38    39    1
    24    39    40    1
    25    28    29   ar
    26    29    30   ar
    27     2     1    1
    28     2     3    1
    29     3     4    1
    30     4     5    1
    31     5     6    1
    32     6     7   ar
    33     7     8   ar
    34     8     9   ar
    35     9    10   ar
    36    10    11   ar
    37    21    22    1
    38    18    13   ar
    39    30    25   ar
    40    11     2    1
    41    22    16    1
    42    40    35    1
    43    11     6   ar
    44    20    23    1
    45    32    33    1
@<TRIPOS>MOLECULE
*****
 40 45 0 0 0
SMALL
GASTEIGER

@<TRIPOS>ATOM
      1 N         -16.6902   -4.9763   19.2751 N.3     1  UNL1       -0.2641
      2 C         -17.3969   -6.2956   19.3747 C.3     1  UNL1        0.0981
      3 C         -18.7933   -6.3593   19.9188 C.3     1  UNL1        0.0224
      4 C         -19.5000   -7.6786   20.0185 C.3     1  UNL1        0.0065
      5 C         -18.8103   -8.9343   19.5741 C.3     1  UNL1        0.0277
      6 C         -17.4139   -8.8707   19.0300 C.ar    1  UNL1       -0.0073
      7 C         -16.7242  -10.1264   18.5856 C.ar    1  UNL1       -0.0015
      8 C         -15.3277  -10.0627   18.0416 C.ar    1  UNL1        0.0203
      9 C         -14.6211   -8.7434   17.9419 C.ar    1  UNL1        0.0985
     10 N         -15.3108   -7.4877   18.3863 N.ar    1  UNL1       -0.2471
     11 C         -16.7072   -7.5513   18.9304 C.ar    1  UNL1        0.0695
     12 C         -17.2900   -3.8633   18.4679 C.3     1  UNL1        0.0888
     13 C         -16.7365    2.6656   20.5459 C.ar    1  UNL1       -0.0003
     14 C         -15.5674    2.3288   19.6686 C.ar    1  UNL1       -0.0003
     15 C         -15.4443    0.9556   19.0775 C.ar    1  UNL1       -0.0045
     16 C         -16.4903   -0.0807   19.3638 C.ar    1  UNL1       -0.0234
     17 C         -17.6594    0.2561   20.2411 C.ar    1  UNL1       -0.0103
     18 C         -17.7825    1.6292   20.8322 C.ar    1  UNL1       -0.0032
     19 C         -18.7054   -0.7803   20.5274 C.3     1  UNL1        0.0953
     20 N         -18.5822   -2.1534   19.9363 N.3     1  UNL1       -0.2934
     21 C         -17.4131   -2.4902   19.0590 C.3     1  UNL1        0.0748
     22 C         -16.3672   -1.4539   18.7727 C.3     1  UNL1        0.0432
     23 H         -19.4227   -2.3111   19.3803 H       1  UNL1        0.1236
     24 C         -15.3838   -4.7699   19.9826 C.3     1  UNL1        0.0994
     25 C         -14.2637   -4.0480   19.2940 C.ar    1  UNL1       -0.0062
     26 C         -14.1088   -4.1500   17.8054 C.ar    1  UNL1       -0.0032
     27 C         -12.9888   -3.4281   17.1167 C.ar    1  UNL1       -0.0032
     28 C         -12.0236   -2.6043   17.9165 C.ar    1  UNL1       -0.0064
     29 C         -12.1784   -2.5023   19.4050 C.ar    1  UNL1       -0.0032
     30 C         -13.2985   -3.2242   20.0937 C.ar    1  UNL1       -0.0032
     31 C         -10.9035   -1.8824   17.2278 C.3     1  UNL1        0.0956
     32 N         -10.0471   -2.6045   16.2302 N.3     1  UNL1       -0.2937
     33 H          -9.4027   -1.9156   15.8421 H       1  UNL1        0.1236
     34 C          -9.2181   -3.7773   16.6631 C.3     1  UNL1        0.0689
     35 C          -9.8825   -5.0728   17.0242 C.3     1  UNL1        0.0207
     36 C         -10.7634   -5.7670   16.0282 C.3     1  UNL1        0.0335
     37 C         -11.4277   -7.0625   16.3893 C.3     1  UNL1        0.1422
     38 O         -11.2111   -7.6638   17.7464 O.3     1  UNL1       -0.3538
     39 C         -10.3302   -6.9695   18.7424 C.3     1  UNL1        0.1422
     40 C          -9.6658   -5.6740   18.3813 C.3     1  UNL1        0.0335
@<TRIPOS>BOND
     1    13    14   ar
     2    14    15   ar
     3    15    16   ar
     4    16    17   ar
     5    17    18   ar
     6    17    19    1
     7    19    20    1
     8    20    21    1
     9    21    12    1
    10    12     1    1
    11     1    24    1
    12    24    25    1
    13    25    26   ar
    14    26    27   ar
    15    27    28   ar
    16    28    31    1
    17    31    32    1
    18    32    34    1
    19    34    35    1
    20    35    36    1
    21    36    37    1
    22    37    38    1
    23    38    39    1
    24    39    40    1
    25    28    29   ar
    26    29    30   ar
    27     2     1    1
    28     2     3    1
    29     3     4    1
    30     4     5    1
    31     5     6    1
    32     6     7   ar
    33     7     8   ar
    34     8     9   ar
    35     9    10   ar
    36    10    11   ar
    37    21    22    1
    38    18    13   ar
    39    30    25   ar
    40    11     2    1
    41    22    16    1
    42    40    35    1
    43    11     6   ar
    44    20    23    1
    45    32    33    1
@<TRIPOS>MOLECULE
*****
 40 45 0 0 0
SMALL
GASTEIGER

@<TRIPOS>ATOM
      1 N           6.8879   -2.6814   24.8020 N.3     1  UNL1       -0.2641
      2 C           7.7037   -3.7538   24.1429 C.3     1  UNL1        0.0981
      3 C           8.5154   -3.4352   22.9223 C.3     1  UNL1        0.0224
      4 C           9.3312   -4.5076   22.2633 C.3     1  UNL1        0.0065
      5 C           9.3353   -5.8986   22.8247 C.3     1  UNL1        0.0277
      6 C           8.5236   -6.2172   24.0451 C.ar    1  UNL1       -0.0073
      7 C           8.5277   -7.6082   24.6065 C.ar    1  UNL1       -0.0015
      8 C           7.7159   -7.9267   25.8271 C.ar    1  UNL1        0.0203
      9 C           6.9002   -6.8543   26.4862 C.ar    1  UNL1        0.0985
     10 N           6.8961   -5.4633   25.9248 N.ar    1  UNL1       -0.2471
     11 C           7.7078   -5.1448   24.7043 C.ar    1  UNL1        0.0695
     12 C           7.4731   -1.8773   25.9250 C.3     1  UNL1        0.0888
     13 C           5.6270   -2.8320   32.4771 C.ar    1  UNL1       -0.0003
     14 C           4.8789   -1.6561   31.9226 C.ar    1  UNL1       -0.0003
     15 C           5.0985   -1.2300   30.5012 C.ar    1  UNL1       -0.0045
     16 C           6.0662   -1.9798   29.6344 C.ar    1  UNL1       -0.0234
     17 C           6.8143   -3.1557   30.1890 C.ar    1  UNL1       -0.0103
     18 C           6.5947   -3.5818   31.6103 C.ar    1  UNL1       -0.0032
     19 C           7.7821   -3.9055   29.3221 C.3     1  UNL1        0.0953
     20 N           8.0017   -3.4794   27.9008 N.3     1  UNL1       -0.2934
     21 C           7.2536   -2.3035   27.3463 C.3     1  UNL1        0.0748
     22 C           6.2859   -1.5537   28.2131 C.3     1  UNL1        0.0432
     23 H           7.7682   -4.2803   27.3139 H       1  UNL1        0.1236
     24 C           5.4869   -2.4130   24.3381 C.3     1  UNL1        0.0994
     25 C           5.1404   -2.5426   22.8845 C.ar    1  UNL1       -0.0062
     26 C           4.5659   -3.8259   22.3619 C.ar    1  UNL1       -0.0032
     27 C           4.2194   -3.9555   20.9083 C.ar    1  UNL1       -0.0032
     28 C           4.4473   -2.8018   19.9771 C.ar    1  UNL1       -0.0064
     29 C           5.0218   -1.5185   20.4996 C.ar    1  UNL1       -0.0032
     30 C           5.3684   -1.3889   21.9533 C.ar    1  UNL1       -0.0032
     31 C           4.1008   -2.9314   18.5235 C.3     1  UNL1        0.0956
     32 N           4.6731   -1.9671   17.5272 N.3     1  UNL1       -0.2937
     33 H           5.0092   -2.5219   16.7400 H       1  UNL1        0.1236
     34 C           3.8116   -0.8806   16.9548 C.3     1  UNL1        0.0689
     35 C           3.3877    0.2722   17.8157 C.3     1  UNL1        0.0207
     36 C           4.3701    1.3521   18.1602 C.3     1  UNL1        0.0335
     37 C           3.9462    2.5050   19.0211 C.3     1  UNL1        0.1422
     38 O           2.5399    2.5780   19.5376 O.3     1  UNL1       -0.3538
     39 C           1.5573    1.4981   19.1931 C.3     1  UNL1        0.1422
     40 C           1.9812    0.3452   18.3322 C.3     1  UNL1        0.0335
@<TRIPOS>BOND
     1    13    14   ar
     2    14    15   ar
     3    15    16   ar
     4    16    17   ar
     5    17    18   ar
     6    17    19    1
     7    19    20    1
     8    20    21    1
     9    21    12    1
    10    12     1    1
    11     1    24    1
    12    24    25    1
    13    25    26   ar
    14    26    27   ar
    15    27    28   ar
    16    28    31    1
    17    31    32    1
    18    32    34    1
    19    34    35    1
    20    35    36    1
    21    36    37    1
    22    37    38    1
    23    38    39    1
    24    39    40    1
    25    28    29   ar
    26    29    30   ar
    27     2     1    1
    28     2     3    1
    29     3     4    1
    30     4     5    1
    31     5     6    1
    32     6     7   ar
    33     7     8   ar
    34     8     9   ar
    35     9    10   ar
    36    10    11   ar
    37    21    22    1
    38    18    13   ar
    39    30    25   ar
    40    11     2    1
    41    22    16    1
    42    40    35    1
    43    11     6   ar
    44    20    23    1
    45    32    33    1
@<TRIPOS>MOLECULE
*****
 40 45 0 0 0
SMALL
GASTEIGER

@<TRIPOS>ATOM
      1 N           0.2681    2.1748   20.2862 N.3     1  UNL1       -0.2641
      2 C          -0.4443    3.0615   19.3084 C.3     1  UNL1        0.0981
      3 C           0.2869    3.6020   18.1153 C.3     1  UNL1        0.0224
      4 C          -0.4254    4.4888   17.1375 C.3     1  UNL1        0.0065
      5 C          -1.8689    4.8351   17.3526 C.3     1  UNL1        0.0277
      6 C          -2.6001    4.2946   18.5456 C.ar    1  UNL1       -0.0073
      7 C          -4.0437    4.6409   18.7607 C.ar    1  UNL1       -0.0015
      8 C          -4.7749    4.1004   19.9538 C.ar    1  UNL1        0.0203
      9 C          -4.0625    3.2137   20.9316 C.ar    1  UNL1        0.0985
     10 N          -2.6190    2.8674   20.7165 N.ar    1  UNL1       -0.2471
     11 C          -1.8878    3.4078   19.5235 C.ar    1  UNL1        0.0695
     12 C           0.9912    2.7758   21.4550 C.3     1  UNL1        0.0888
     13 C          -0.6435    1.6368   28.0338 C.ar    1  UNL1       -0.0003
     14 C           0.6681    0.9743   27.7320 C.ar    1  UNL1       -0.0003
     15 C           1.2573    1.0697   26.3558 C.ar    1  UNL1       -0.0045
     16 C           0.5350    1.8274   25.2815 C.ar    1  UNL1       -0.0234
     17 C          -0.7765    2.4898   25.5834 C.ar    1  UNL1       -0.0103
     18 C          -1.3658    2.3945   26.9595 C.ar    1  UNL1       -0.0032
     19 C          -1.4988    3.2476   24.5090 C.3     1  UNL1        0.0953
     20 N          -0.9096    3.3429   23.1329 N.3     1  UNL1       -0.2934
     21 C           0.4019    2.6805   22.8311 C.3     1  UNL1        0.0748
     22 C           1.1242    1.9228   23.9054 C.3     1  UNL1        0.0432
     23 H          -0.7912    4.3358   22.9314 H       1  UNL1        0.1236
     24 C           0.2574    0.6870   20.0953 C.3     1  UNL1        0.0994
     25 C           1.4779   -0.0108   19.5724 C.ar    1  UNL1       -0.0062
     26 C           2.0888   -1.1380   20.3511 C.ar    1  UNL1       -0.0032
     27 C           3.3092   -1.8359   19.8282 C.ar    1  UNL1       -0.0032
     28 C           3.9188   -1.4066   18.5266 C.ar    1  UNL1       -0.0064
     29 C           3.3080   -0.2794   17.7479 C.ar    1  UNL1       -0.0032
     30 C           2.0875    0.4185   18.2708 C.ar    1  UNL1       -0.0032
     31 C           5.1393   -2.1044   18.0037 C.3     1  UNL1        0.0956
     32 N           6.4258   -2.0426   18.7725 N.3     1  UNL1       -0.2937
     33 H           6.8984   -2.9349   18.6279 H       1  UNL1        0.1236
     34 C           7.4283   -0.9679   18.4719 C.3     1  UNL1        0.0689
     35 C           6.9632    0.4098   18.1038 C.3     1  UNL1        0.0207
     36 C           6.4163    1.3239   19.1598 C.3     1  UNL1        0.0335
     37 C           5.9512    2.7016   18.7917 C.3     1  UNL1        0.1422
     38 O           6.0330    3.1653   17.3676 O.3     1  UNL1       -0.3538
     39 C           6.5799    2.2512   16.3114 C.3     1  UNL1        0.1422
     40 C           7.0450    0.8734   16.6795 C.3     1  UNL1        0.0335
@<TRIPOS>BOND
     1    13    14   ar
     2    14    15   ar
     3    15    16   ar
     4    16    17   ar
     5    17    18   ar
     6    17    19    1
     7    19    20    1
     8    20    21    1
     9    21    12    1
    10    12     1    1
    11     1    24    1
    12    24    25    1
    13    25    26   ar
    14    26    27   ar
    15    27    28   ar
    16    28    31    1
    17    31    32    1
    18    32    34    1
    19    34    35    1
    20    35    36    1
    21    36    37    1
    22    37    38    1
    23    38    39    1
    24    39    40    1
    25    28    29   ar
    26    29    30   ar
    27     2     1    1
    28     2     3    1
    29     3     4    1
    30     4     5    1
    31     5     6    1
    32     6     7   ar
    33     7     8   ar
    34     8     9   ar
    35     9    10   ar
    36    10    11   ar
    37    21    22    1
    38    18    13   ar
    39    30    25   ar
    40    11     2    1
    41    22    16    1
    42    40    35    1
    43    11     6   ar
    44    20    23    1
    45    32    33    1
@<TRIPOS>MOLECULE
*****
 40 45 0 0 0
SMALL
GASTEIGER

@<TRIPOS>ATOM
      1 N         -10.4225  -17.0008   21.2768 N.3     1  UNL1       -0.2641
      2 C         -11.3325  -17.5406   22.3400 C.3     1  UNL1        0.0981
      3 C         -12.7121  -16.9751   22.5045 C.3     1  UNL1        0.0224
      4 C         -13.6221  -17.5149   23.5677 C.3     1  UNL1        0.0065
      5 C         -13.1524  -18.6201   24.4667 C.3     1  UNL1        0.0277
      6 C         -11.7729  -19.1855   24.3023 C.ar    1  UNL1       -0.0073
      7 C         -11.3032  -20.2907   25.2012 C.ar    1  UNL1       -0.0015
      8 C          -9.9236  -20.8561   25.0368 C.ar    1  UNL1        0.0203
      9 C          -9.0136  -20.3163   23.9735 C.ar    1  UNL1        0.0985
     10 N          -9.4833  -19.2111   23.0746 N.ar    1  UNL1       -0.2471
     11 C         -10.8628  -18.6457   23.2389 C.ar    1  UNL1        0.0695
     12 C          -9.7392  -15.6801   21.4739 C.3     1  UNL1        0.0888
     13 C          -6.1879  -15.1875   27.3388 C.ar    1  UNL1       -0.0003
     14 C          -7.6081  -15.5533   27.6540 C.ar    1  UNL1       -0.0003
     15 C          -8.6024  -15.7249   26.5440 C.ar    1  UNL1       -0.0045
     16 C          -8.1765  -15.5308   25.1189 C.ar    1  UNL1       -0.0234
     17 C          -6.7563  -15.1650   24.8037 C.ar    1  UNL1       -0.0103
     18 C          -5.7621  -14.9934   25.9136 C.ar    1  UNL1       -0.0032
     19 C          -6.3305  -14.9709   23.3785 C.3     1  UNL1        0.0953
     20 N          -7.3247  -15.1426   22.2686 N.3     1  UNL1       -0.2934
     21 C          -8.7449  -15.5084   22.5838 C.3     1  UNL1        0.0748
     22 C          -9.1708  -15.7025   24.0089 C.3     1  UNL1        0.0432
     23 H          -6.9609  -15.8741   21.6579 H       1  UNL1        0.1236
     24 C         -10.1959  -17.7817   20.0162 C.3     1  UNL1        0.0994
     25 C          -9.0340  -18.7250   19.9171 C.ar    1  UNL1       -0.0062
     26 C          -9.0858  -19.8811   18.9626 C.ar    1  UNL1       -0.0032
     27 C          -7.9239  -20.8245   18.8635 C.ar    1  UNL1       -0.0032
     28 C          -6.7100  -20.6119   19.7187 C.ar    1  UNL1       -0.0064
     29 C          -6.6582  -19.4559   20.6731 C.ar    1  UNL1       -0.0032
     30 C          -7.8202  -18.5124   20.7723 C.ar    1  UNL1       -0.0032
     31 C          -5.5481  -21.5553   19.6195 C.3     1  UNL1        0.0956
     32 N          -4.1896  -21.1237   20.0866 N.3     1  UNL1       -0.2937
     33 H          -3.5525  -21.8964   19.8933 H       1  UNL1        0.1236
     34 C          -3.5578  -19.8885   19.5162 C.3     1  UNL1        0.0689
     35 C          -3.0494  -18.8148   20.4320 C.3     1  UNL1        0.0207
     36 C          -2.2203  -17.6916   19.8834 C.3     1  UNL1        0.0335
     37 C          -1.7119  -16.6179   20.7992 C.3     1  UNL1        0.1422
     38 O          -2.0327  -16.6674   22.2636 O.3     1  UNL1       -0.3538
     39 C          -2.8618  -17.7906   22.8124 C.3     1  UNL1        0.1422
     40 C          -3.3702  -18.8643   21.8965 C.3     1  UNL1        0.0335
@<TRIPOS>BOND
     1    13    14   ar
     2    14    15   ar
     3    15    16   ar
     4    16    17   ar
     5    17    18   ar
     6    17    19    1
     7    19    20    1
     8    20    21    1
     9    21    12    1
    10    12     1    1
    11     1    24    1
    12    24    25    1
    13    25    26   ar
    14    26    27   ar
    15    27    28   ar
    16    28    31    1
    17    31    32    1
    18    32    34    1
    19    34    35    1
    20    35    36    1
    21    36    37    1
    22    37    38    1
    23    38    39    1
    24    39    40    1
    25    28    29   ar
    26    29    30   ar
    27     2     1    1
    28     2     3    1
    29     3     4    1
    30     4     5    1
    31     5     6    1
    32     6     7   ar
    33     7     8   ar
    34     8     9   ar
    35     9    10   ar
    36    10    11   ar
    37    21    22    1
    38    18    13   ar
    39    30    25   ar
    40    11     2    1
    41    22    16    1
    42    40    35    1
    43    11     6   ar
    44    20    23    1
    45    32    33    1
