@<TRIPOS>MOLECULE
*****
 30 32 0 0 0
SMALL
GASTEIGER

@<TRIPOS>ATOM
      1 C          -8.0193  -17.2389   22.0491 C.ar    1  UNL1        0.1329
      2 N          -6.6677  -17.6111   22.5824 N.ar    1  UNL1       -0.1993
      3 C          -5.9753  -18.8423   22.0776 C.ar    1  UNL1        0.2148
      4 N          -4.6235  -19.2145   22.6110 N.pl3   1  UNL1       -0.3274
      5 N          -6.6345  -19.7012   21.0395 N.ar    1  UNL1       -0.2139
      6 C          -7.9862  -19.3289   20.5061 C.ar    1  UNL1        0.0870
      7 C          -8.6454  -20.1878   19.4680 C.ar    1  UNL1        0.0193
      8 C          -9.9970  -19.8156   18.9347 C.ar    1  UNL1        0.0017
      9 C         -10.6895  -18.5844   19.4395 C.ar    1  UNL1        0.0047
     10 C         -10.0303  -17.7255   20.4777 C.ar    1  UNL1        0.0577
     11 C          -8.6786  -18.0978   21.0110 C.ar    1  UNL1        0.0536
     12 H          -4.1909  -18.6508   23.2923 H       1  UNL1        0.1452
     13 H          -4.1691  -20.0225   22.2796 H       1  UNL1        0.1452
     14 C         -10.7227  -16.4944   20.9825 C.2     1  UNL1        0.2494
     15 O         -10.2721  -15.1392   20.5239 O.2     1  UNL1       -0.2699
     16 N         -11.8657  -16.6185   21.9458 N.am    1  UNL1       -0.2702
     17 C         -12.5581  -15.3874   22.4506 C.3     1  UNL1        0.1155
     18 C         -12.3163  -17.9738   22.4044 C.3     1  UNL1        0.1205
     19 C         -11.4204  -18.8087   23.2706 C.ar    1  UNL1       -0.0023
     20 C         -10.9311  -18.2703   24.5824 C.ar    1  UNL1       -0.0026
     21 C         -10.0352  -19.1052   25.4485 C.ar    1  UNL1       -0.0003
     22 C          -9.6285  -20.4785   25.0029 C.ar    1  UNL1       -0.0000
     23 C         -10.1178  -21.0169   23.6912 C.ar    1  UNL1       -0.0003
     24 C         -11.0137  -20.1820   22.8250 C.ar    1  UNL1       -0.0026
     25 N          -8.7118  -16.0078   22.5539 N.pl3   1  UNL1       -0.3180
     26 H          -9.5329  -15.6894   22.1139 H       1  UNL1        0.1482
     27 C          -8.1532  -15.2617   23.7292 C.3     1  UNL1        0.0882
     28 C          -8.7472  -15.4568   25.0927 C.3     1  UNL1        0.0212
     29 C          -8.2993  -16.3659   27.4850 C.3     1  UNL1        0.0001
     30 C          -7.8523  -15.5761   26.2906 C.3     1  UNL1        0.0017
@<TRIPOS>BOND
     1    29    30    1
     2    30    28    1
     3    28    27    1
     4    27    25    1
     5    25     1    1
     6     1     2   ar
     7     2     3   ar
     8     3     4    1
     9     3     5   ar
    10     5     6   ar
    11     6     7   ar
    12     7     8   ar
    13     8     9   ar
    14     9    10   ar
    15    10    14    1
    16    14    15    2
    17    14    16   am
    18    16    17    1
    19    16    18    1
    20    18    19    1
    21    19    20   ar
    22    20    21   ar
    23    21    22   ar
    24    22    23   ar
    25    23    24   ar
    26    10    11   ar
    27    11     1   ar
    28    11     6   ar
    29    24    19   ar
    30    25    26    1
    31     4    12    1
    32     4    13    1
@<TRIPOS>MOLECULE
*****
 30 32 0 0 0
SMALL
GASTEIGER

@<TRIPOS>ATOM
      1 C          -9.7976  -17.7416   20.7338 C.ar    1  UNL1        0.1329
      2 N         -10.6163  -17.0178   19.7063 N.ar    1  UNL1       -0.1993
      3 C         -12.0224  -16.6031   20.0239 C.ar    1  UNL1        0.2148
      4 N         -12.8411  -15.8793   18.9964 N.pl3   1  UNL1       -0.3274
      5 N         -12.6099  -16.9124   21.3690 N.ar    1  UNL1       -0.2139
      6 C         -11.7912  -17.6363   22.3966 C.ar    1  UNL1        0.0870
      7 C         -12.3786  -17.9455   23.7416 C.ar    1  UNL1        0.0193
      8 C         -11.5599  -18.6694   24.7691 C.ar    1  UNL1        0.0017
      9 C         -10.1538  -19.0840   24.4515 C.ar    1  UNL1        0.0047
     10 C          -9.5663  -18.7747   23.1064 C.ar    1  UNL1        0.0577
     11 C         -10.3850  -18.0509   22.0790 C.ar    1  UNL1        0.0536
     12 H         -12.4556  -15.6763   18.1136 H       1  UNL1        0.1452
     13 H         -13.7640  -15.6071   19.2048 H       1  UNL1        0.1452
     14 C          -8.1602  -19.1894   22.7888 C.2     1  UNL1        0.2494
     15 O          -7.8552  -20.6224   22.4675 O.2     1  UNL1       -0.2699
     16 N          -7.0590  -18.1709   22.7925 N.am    1  UNL1       -0.2702
     17 C          -5.6528  -18.5855   22.4749 C.3     1  UNL1        0.1155
     18 C          -7.3639  -16.7377   23.1138 C.3     1  UNL1        0.1205
     19 C          -7.1806  -16.2273   24.5122 C.ar    1  UNL1       -0.0023
     20 C          -8.3431  -16.2025   25.4600 C.ar    1  UNL1       -0.0026
     21 C          -8.1598  -15.6920   26.8585 C.ar    1  UNL1       -0.0003
     22 C          -6.8141  -15.2063   27.3093 C.ar    1  UNL1       -0.0000
     23 C          -5.6517  -15.2310   26.3616 C.ar    1  UNL1       -0.0003
     24 C          -5.8349  -15.7415   24.9630 C.ar    1  UNL1       -0.0026
     25 N          -8.3915  -18.1562   20.4162 N.pl3   1  UNL1       -0.3180
     26 H          -7.6392  -17.7749   20.9241 H       1  UNL1        0.1482
     27 C          -8.1315  -19.1518   19.3248 C.3     1  UNL1        0.0882
     28 C          -9.1973  -20.1325   18.9346 C.3     1  UNL1        0.0212
     29 C          -9.3001  -21.3592   16.6467 C.3     1  UNL1        0.0001
     30 C          -8.8519  -21.3140   18.0774 C.3     1  UNL1        0.0017
@<TRIPOS>BOND
     1    29    30    1
     2    30    28    1
     3    28    27    1
     4    27    25    1
     5    25     1    1
     6     1     2   ar
     7     2     3   ar
     8     3     4    1
     9     3     5   ar
    10     5     6   ar
    11     6     7   ar
    12     7     8   ar
    13     8     9   ar
    14     9    10   ar
    15    10    14    1
    16    14    15    2
    17    14    16   am
    18    16    17    1
    19    16    18    1
    20    18    19    1
    21    19    20   ar
    22    20    21   ar
    23    21    22   ar
    24    22    23   ar
    25    23    24   ar
    26    10    11   ar
    27    11     1   ar
    28    11     6   ar
    29    24    19   ar
    30    25    26    1
    31     4    12    1
    32     4    13    1
@<TRIPOS>MOLECULE
*****
 30 32 0 0 0
SMALL
GASTEIGER

@<TRIPOS>ATOM
      1 C          -9.7479  -18.2452   20.5957 C.ar    1  UNL1        0.1329
      2 N         -10.8931  -17.6391   19.8401 N.ar    1  UNL1       -0.1993
      3 C         -11.1872  -16.1741   19.9721 C.ar    1  UNL1        0.2148
      4 N         -12.3325  -15.5680   19.2165 N.pl3   1  UNL1       -0.3274
      5 N         -10.3360  -15.3153   20.8597 N.ar    1  UNL1       -0.2139
      6 C          -9.1906  -15.9214   21.6153 C.ar    1  UNL1        0.0870
      7 C          -8.3394  -15.0626   22.5028 C.ar    1  UNL1        0.0193
      8 C          -7.1941  -15.6687   23.2584 C.ar    1  UNL1        0.0017
      9 C          -6.9001  -17.1337   23.1264 C.ar    1  UNL1        0.0047
     10 C          -7.7513  -17.9925   22.2388 C.ar    1  UNL1        0.0577
     11 C          -8.8966  -17.3863   21.4833 C.ar    1  UNL1        0.0536
     12 H         -12.8912  -16.1317   18.6340 H       1  UNL1        0.1452
     13 H         -12.5255  -14.6065   19.3031 H       1  UNL1        0.1452
     14 C          -7.4572  -19.4574   22.1068 C.2     1  UNL1        0.2494
     15 O          -8.1795  -20.4482   22.9709 O.2     1  UNL1       -0.2699
     16 N          -6.4409  -19.9316   21.1108 N.am    1  UNL1       -0.2702
     17 C          -6.1469  -21.3966   20.9788 C.3     1  UNL1        0.1155
     18 C          -5.7186  -18.9409   20.2466 C.3     1  UNL1        0.1205
     19 C          -4.2368  -18.7588   20.3921 C.ar    1  UNL1       -0.0023
     20 C          -3.6011  -18.8370   21.7485 C.ar    1  UNL1       -0.0026
     21 C          -2.1194  -18.6549   21.8940 C.ar    1  UNL1       -0.0003
     22 C          -1.2733  -18.3946   20.6830 C.ar    1  UNL1       -0.0000
     23 C          -1.9089  -18.3164   19.3267 C.ar    1  UNL1       -0.0003
     24 C          -3.3907  -18.4985   19.1812 C.ar    1  UNL1       -0.0026
     25 N          -9.4538  -19.7101   20.4637 N.pl3   1  UNL1       -0.3180
     26 H          -9.0853  -20.2091   21.2282 H       1  UNL1        0.1482
     27 C          -9.7213  -20.4149   19.1669 C.3     1  UNL1        0.0882
     28 C          -8.5812  -20.9724   18.3673 C.3     1  UNL1        0.0212
     29 C          -9.5032  -21.4315   15.9820 C.3     1  UNL1        0.0001
     30 C          -8.8508  -21.9242   17.2396 C.3     1  UNL1        0.0017
@<TRIPOS>BOND
     1    29    30    1
     2    30    28    1
     3    28    27    1
     4    27    25    1
     5    25     1    1
     6     1     2   ar
     7     2     3   ar
     8     3     4    1
     9     3     5   ar
    10     5     6   ar
    11     6     7   ar
    12     7     8   ar
    13     8     9   ar
    14     9    10   ar
    15    10    14    1
    16    14    15    2
    17    14    16   am
    18    16    17    1
    19    16    18    1
    20    18    19    1
    21    19    20   ar
    22    20    21   ar
    23    21    22   ar
    24    22    23   ar
    25    23    24   ar
    26    10    11   ar
    27    11     1   ar
    28    11     6   ar
    29    24    19   ar
    30    25    26    1
    31     4    12    1
    32     4    13    1
@<TRIPOS>MOLECULE
*****
 30 32 0 0 0
SMALL
GASTEIGER

@<TRIPOS>ATOM
      1 C          -5.8267  -18.4551   21.8794 C.ar    1  UNL1        0.1329
      2 N          -4.6745  -19.3461   21.5209 N.ar    1  UNL1       -0.1993
      3 C          -4.8353  -20.3868   20.4527 C.ar    1  UNL1        0.2148
      4 N          -3.6830  -21.2778   20.0942 N.pl3   1  UNL1       -0.3274
      5 N          -6.1482  -20.5366   19.7431 N.ar    1  UNL1       -0.2139
      6 C          -7.3005  -19.6456   20.1016 C.ar    1  UNL1        0.0870
      7 C          -8.6135  -19.7953   19.3919 C.ar    1  UNL1        0.0193
      8 C          -9.7656  -18.9043   19.7505 C.ar    1  UNL1        0.0017
      9 C          -9.6049  -17.8636   20.8187 C.ar    1  UNL1        0.0047
     10 C          -8.2919  -17.7139   21.5283 C.ar    1  UNL1        0.0577
     11 C          -7.1397  -18.6048   21.1698 C.ar    1  UNL1        0.0536
     12 H          -2.8213  -21.1795   20.5600 H       1  UNL1        0.1452
     13 H          -3.7885  -21.9609   19.3931 H       1  UNL1        0.1452
     14 C          -8.1311  -16.6731   22.5965 C.2     1  UNL1        0.2494
     15 O          -7.3275  -15.4363   22.3237 O.2     1  UNL1       -0.2699
     16 N          -8.7739  -16.8692   23.9375 N.am    1  UNL1       -0.2702
     17 C          -8.6131  -15.8285   25.0057 C.3     1  UNL1        0.1155
     18 C          -9.5776  -18.1061   24.2103 C.3     1  UNL1        0.1205
     19 C         -11.0740  -18.0640   24.1166 C.ar    1  UNL1       -0.0023
     20 C         -11.7359  -17.2460   23.0476 C.ar    1  UNL1       -0.0026
     21 C         -13.2323  -17.2040   22.9539 C.ar    1  UNL1       -0.0003
     22 C         -14.0670  -17.9799   23.9292 C.ar    1  UNL1       -0.0000
     23 C         -13.4052  -18.7978   24.9983 C.ar    1  UNL1       -0.0003
     24 C         -11.9087  -18.8399   25.0920 C.ar    1  UNL1       -0.0026
     25 N          -5.6659  -17.4144   22.9476 N.pl3   1  UNL1       -0.3180
     26 H          -6.4526  -16.9251   23.2806 H       1  UNL1        0.1482
     27 C          -4.3064  -17.1192   23.5086 C.3     1  UNL1        0.0882
     28 C          -3.3459  -16.2641   22.7363 C.3     1  UNL1        0.0212
     29 C          -2.0819  -17.0277   20.5988 C.3     1  UNL1        0.0001
     30 C          -2.1421  -16.8838   22.0906 C.3     1  UNL1        0.0017
@<TRIPOS>BOND
     1    29    30    1
     2    30    28    1
     3    28    27    1
     4    27    25    1
     5    25     1    1
     6     1     2   ar
     7     2     3   ar
     8     3     4    1
     9     3     5   ar
    10     5     6   ar
    11     6     7   ar
    12     7     8   ar
    13     8     9   ar
    14     9    10   ar
    15    10    14    1
    16    14    15    2
    17    14    16   am
    18    16    17    1
    19    16    18    1
    20    18    19    1
    21    19    20   ar
    22    20    21   ar
    23    21    22   ar
    24    22    23   ar
    25    23    24   ar
    26    10    11   ar
    27    11     1   ar
    28    11     6   ar
    29    24    19   ar
    30    25    26    1
    31     4    12    1
    32     4    13    1
@<TRIPOS>MOLECULE
*****
 30 32 0 0 0
SMALL
GASTEIGER

@<TRIPOS>ATOM
      1 C          -5.3214  -17.7994   22.5688 C.ar    1  UNL1        0.1329
      2 N          -3.9750  -18.4593   22.5278 N.ar    1  UNL1       -0.1993
      3 C          -3.7498  -19.6496   21.6432 C.ar    1  UNL1        0.2148
      4 N          -2.4032  -20.3094   21.6022 N.pl3   1  UNL1       -0.3274
      5 N          -4.8709  -20.1801   20.7997 N.ar    1  UNL1       -0.2139
      6 C          -6.2174  -19.5202   20.8408 C.ar    1  UNL1        0.0870
      7 C          -7.3386  -20.0507   19.9973 C.ar    1  UNL1        0.0193
      8 C          -8.6850  -19.3909   20.0383 C.ar    1  UNL1        0.0017
      9 C          -8.9103  -18.2006   20.9229 C.ar    1  UNL1        0.0047
     10 C          -7.7891  -17.6701   21.7664 C.ar    1  UNL1        0.0577
     11 C          -6.4427  -18.3299   21.7253 C.ar    1  UNL1        0.0536
     12 H          -1.6674  -19.9612   22.1558 H       1  UNL1        0.1452
     13 H          -2.2554  -21.0906   21.0216 H       1  UNL1        0.1452
     14 C          -8.0144  -16.4798   22.6509 C.2     1  UNL1        0.2494
     15 O          -7.3236  -15.1822   22.3526 O.2     1  UNL1       -0.2699
     16 N          -8.9304  -16.5871   23.8338 N.am    1  UNL1       -0.2702
     17 C          -9.1557  -15.3968   24.7184 C.3     1  UNL1        0.1155
     18 C          -9.6213  -17.8847   24.1323 C.3     1  UNL1        0.1205
     19 C         -11.1154  -17.9777   24.0388 C.ar    1  UNL1       -0.0023
     20 C         -11.8387  -17.3143   22.9044 C.ar    1  UNL1       -0.0026
     21 C         -13.3329  -17.4073   22.8109 C.ar    1  UNL1       -0.0003
     22 C         -14.1038  -18.1637   23.8518 C.ar    1  UNL1       -0.0000
     23 C         -13.3806  -18.8271   24.9861 C.ar    1  UNL1       -0.0003
     24 C         -11.8864  -18.7341   25.0797 C.ar    1  UNL1       -0.0026
     25 N          -5.5467  -16.6091   23.4534 N.pl3   1  UNL1       -0.3180
     26 H          -6.1455  -15.8846   23.1606 H       1  UNL1        0.1482
     27 C          -4.8597  -16.5228   24.7840 C.3     1  UNL1        0.0882
     28 C          -5.0597  -15.3177   25.6545 C.3     1  UNL1        0.0212
     29 C          -6.7566  -16.0527   27.4794 C.3     1  UNL1        0.0001
     30 C          -6.3612  -15.1196   26.3735 C.3     1  UNL1        0.0017
@<TRIPOS>BOND
     1    29    30    1
     2    30    28    1
     3    28    27    1
     4    27    25    1
     5    25     1    1
     6     1     2   ar
     7     2     3   ar
     8     3     4    1
     9     3     5   ar
    10     5     6   ar
    11     6     7   ar
    12     7     8   ar
    13     8     9   ar
    14     9    10   ar
    15    10    14    1
    16    14    15    2
    17    14    16   am
    18    16    17    1
    19    16    18    1
    20    18    19    1
    21    19    20   ar
    22    20    21   ar
    23    21    22   ar
    24    22    23   ar
    25    23    24   ar
    26    10    11   ar
    27    11     1   ar
    28    11     6   ar
    29    24    19   ar
    30    25    26    1
    31     4    12    1
    32     4    13    1
@<TRIPOS>MOLECULE
*****
 30 32 0 0 0
SMALL
GASTEIGER

@<TRIPOS>ATOM
      1 C          -8.5395  -19.2559   22.5112 C.ar    1  UNL1        0.1329
      2 N          -7.4853  -19.7480   21.5644 N.ar    1  UNL1       -0.1993
      3 C          -6.1861  -19.0090   21.4387 C.ar    1  UNL1        0.2148
      4 N          -5.1319  -19.5011   20.4918 N.pl3   1  UNL1       -0.3274
      5 N          -5.9410  -17.7778   22.2598 N.ar    1  UNL1       -0.2139
      6 C          -6.9952  -17.2857   23.2067 C.ar    1  UNL1        0.0870
      7 C          -6.7502  -16.0546   24.0278 C.ar    1  UNL1        0.0193
      8 C          -7.8043  -15.5625   24.9746 C.ar    1  UNL1        0.0017
      9 C          -9.1036  -16.3015   25.1003 C.ar    1  UNL1        0.0047
     10 C          -9.3486  -17.5327   24.2792 C.ar    1  UNL1        0.0577
     11 C          -8.2945  -18.0247   23.3324 C.ar    1  UNL1        0.0536
     12 H          -5.2928  -20.3091   19.9528 H       1  UNL1        0.1452
     13 H          -4.2792  -19.0161   20.4092 H       1  UNL1        0.1452
     14 C         -10.6479  -18.2717   24.4049 C.2     1  UNL1        0.2494
     15 O         -10.6697  -19.6585   24.9761 O.2     1  UNL1       -0.2699
     16 N         -11.9253  -17.6239   23.9595 N.am    1  UNL1       -0.2702
     17 C         -13.2246  -18.3630   24.0852 C.3     1  UNL1        0.1155
     18 C         -11.9036  -16.2371   23.3883 C.3     1  UNL1        0.1205
     19 C         -11.7095  -16.0359   21.9146 C.ar    1  UNL1       -0.0023
     20 C         -10.3738  -15.6036   21.3862 C.ar    1  UNL1       -0.0026
     21 C         -10.1797  -15.4024   19.9125 C.ar    1  UNL1       -0.0003
     22 C         -11.3212  -15.6335   18.9672 C.ar    1  UNL1       -0.0000
     23 C         -12.6568  -16.0658   19.4955 C.ar    1  UNL1       -0.0003
     24 C         -12.8510  -16.2670   20.9693 C.ar    1  UNL1       -0.0026
     25 N          -9.8387  -19.9950   22.6370 N.pl3   1  UNL1       -0.3180
     26 H         -10.1618  -20.2752   23.5237 H       1  UNL1        0.1482
     27 C         -10.6457  -20.3070   21.4117 C.3     1  UNL1        0.0882
     28 C         -10.9110  -19.2360   20.3955 C.3     1  UNL1        0.0212
     29 C          -9.2590  -20.2942   18.6923 C.3     1  UNL1        0.0001
     30 C         -10.0213  -19.1042   19.1950 C.3     1  UNL1        0.0017
@<TRIPOS>BOND
     1    29    30    1
     2    30    28    1
     3    28    27    1
     4    27    25    1
     5    25     1    1
     6     1     2   ar
     7     2     3   ar
     8     3     4    1
     9     3     5   ar
    10     5     6   ar
    11     6     7   ar
    12     7     8   ar
    13     8     9   ar
    14     9    10   ar
    15    10    14    1
    16    14    15    2
    17    14    16   am
    18    16    17    1
    19    16    18    1
    20    18    19    1
    21    19    20   ar
    22    20    21   ar
    23    21    22   ar
    24    22    23   ar
    25    23    24   ar
    26    10    11   ar
    27    11     1   ar
    28    11     6   ar
    29    24    19   ar
    30    25    26    1
    31     4    12    1
    32     4    13    1
@<TRIPOS>MOLECULE
*****
 30 32 0 0 0
SMALL
GASTEIGER

@<TRIPOS>ATOM
      1 C         -10.4347  -17.0357   23.3528 C.ar    1  UNL1        0.1329
      2 N         -11.8024  -17.1833   23.9508 N.ar    1  UNL1       -0.1993
      3 C         -12.8052  -18.0982   23.3127 C.ar    1  UNL1        0.2148
      4 N         -14.1729  -18.2458   23.9108 N.pl3   1  UNL1       -0.3274
      5 N         -12.4404  -18.8655   22.0766 N.ar    1  UNL1       -0.2139
      6 C         -11.0727  -18.7180   21.4785 C.ar    1  UNL1        0.0870
      7 C         -10.7079  -19.4853   20.2423 C.ar    1  UNL1        0.0193
      8 C          -9.3403  -19.3377   19.6443 C.ar    1  UNL1        0.0017
      9 C          -8.3374  -18.4228   20.2824 C.ar    1  UNL1        0.0047
     10 C          -8.7022  -17.6554   21.5185 C.ar    1  UNL1        0.0577
     11 C         -10.0698  -17.8030   22.1166 C.ar    1  UNL1        0.0536
     12 H         -14.4124  -17.7421   24.7221 H       1  UNL1        0.1452
     13 H         -14.8312  -18.8463   23.4920 H       1  UNL1        0.1452
     14 C          -7.6993  -16.7405   22.1566 C.2     1  UNL1        0.2494
     15 O          -7.9429  -15.2606   22.1806 O.2     1  UNL1       -0.2699
     16 N          -6.4529  -17.3054   22.7708 N.am    1  UNL1       -0.2702
     17 C          -5.4500  -16.3905   23.4089 C.3     1  UNL1        0.1155
     18 C          -6.2093  -18.7854   22.7468 C.3     1  UNL1        0.1205
     19 C          -5.0656  -19.3445   21.9535 C.ar    1  UNL1       -0.0023
     20 C          -5.3327  -20.1295   20.7035 C.ar    1  UNL1       -0.0026
     21 C          -4.1890  -20.6885   19.9102 C.ar    1  UNL1       -0.0003
     22 C          -2.7782  -20.4627   20.3669 C.ar    1  UNL1       -0.0000
     23 C          -2.5110  -19.6777   21.6169 C.ar    1  UNL1       -0.0003
     24 C          -3.6548  -19.1186   22.4102 C.ar    1  UNL1       -0.0026
     25 N          -9.4318  -16.1207   23.9909 N.pl3   1  UNL1       -0.3180
     26 H          -9.1649  -15.2893   23.5363 H       1  UNL1        0.1482
     27 C          -8.8357  -16.4726   25.3216 C.3     1  UNL1        0.0882
     28 C          -8.4600  -15.3868   26.2858 C.3     1  UNL1        0.0212
     29 C          -5.8923  -15.2530   26.6590 C.3     1  UNL1        0.0001
     30 C          -7.2664  -15.5564   27.1784 C.3     1  UNL1        0.0017
@<TRIPOS>BOND
     1    29    30    1
     2    30    28    1
     3    28    27    1
     4    27    25    1
     5    25     1    1
     6     1     2   ar
     7     2     3   ar
     8     3     4    1
     9     3     5   ar
    10     5     6   ar
    11     6     7   ar
    12     7     8   ar
    13     8     9   ar
    14     9    10   ar
    15    10    14    1
    16    14    15    2
    17    14    16   am
    18    16    17    1
    19    16    18    1
    20    18    19    1
    21    19    20   ar
    22    20    21   ar
    23    21    22   ar
    24    22    23   ar
    25    23    24   ar
    26    10    11   ar
    27    11     1   ar
    28    11     6   ar
    29    24    19   ar
    30    25    26    1
    31     4    12    1
    32     4    13    1
@<TRIPOS>MOLECULE
*****
 30 32 0 0 0
SMALL
GASTEIGER

@<TRIPOS>ATOM
      1 C          -7.7195  -17.4440   22.2730 C.ar    1  UNL1        0.1329
      2 N          -7.2471  -16.1385   22.8407 N.ar    1  UNL1       -0.1993
      3 C          -7.7304  -15.6874   24.1872 C.ar    1  UNL1        0.2148
      4 N          -7.2579  -14.3818   24.7549 N.pl3   1  UNL1       -0.3274
      5 N          -8.6861  -16.5418   24.9659 N.ar    1  UNL1       -0.2139
      6 C          -9.1586  -17.8474   24.3982 C.ar    1  UNL1        0.0870
      7 C         -10.1144  -18.7018   25.1769 C.ar    1  UNL1        0.0193
      8 C         -10.5868  -20.0074   24.6092 C.ar    1  UNL1        0.0017
      9 C         -10.1035  -20.4585   23.2627 C.ar    1  UNL1        0.0047
     10 C          -9.1478  -19.6040   22.4840 C.ar    1  UNL1        0.0577
     11 C          -8.6753  -18.2985   23.0517 C.ar    1  UNL1        0.0536
     12 H          -6.6306  -13.8210   24.2438 H       1  UNL1        0.1452
     13 H          -7.5751  -14.0857   25.6386 H       1  UNL1        0.1452
     14 C          -8.6644  -20.0551   21.1376 C.2     1  UNL1        0.2494
     15 O          -7.2477  -20.5168   20.9652 O.2     1  UNL1       -0.2699
     16 N          -9.5979  -20.0446   19.9634 N.am    1  UNL1       -0.2702
     17 C          -9.1145  -20.4957   18.6170 C.3     1  UNL1        0.1155
     18 C         -11.0147  -19.5829   20.1357 C.3     1  UNL1        0.1205
     19 C         -11.3013  -18.2857   20.8322 C.ar    1  UNL1       -0.0023
     20 C         -12.2603  -18.2494   21.9851 C.ar    1  UNL1       -0.0026
     21 C         -12.5470  -16.9522   22.6816 C.ar    1  UNL1       -0.0003
     22 C         -11.8747  -15.6913   22.2253 C.ar    1  UNL1       -0.0000
     23 C         -10.9158  -15.7276   21.0724 C.ar    1  UNL1       -0.0003
     24 C         -10.6291  -17.0248   20.3759 C.ar    1  UNL1       -0.0026
     25 N          -7.2362  -17.8951   20.9266 N.pl3   1  UNL1       -0.3180
     26 H          -7.8780  -18.0254   20.1915 H       1  UNL1        0.1482
     27 C          -5.7751  -18.1477   20.7001 C.3     1  UNL1        0.0882
     28 C          -4.9382  -18.7413   21.7943 C.3     1  UNL1        0.0212
     29 C          -3.7149  -20.3771   20.1886 C.3     1  UNL1        0.0001
     30 C          -3.7354  -19.5700   21.4529 C.3     1  UNL1        0.0017
@<TRIPOS>BOND
     1    29    30    1
     2    30    28    1
     3    28    27    1
     4    27    25    1
     5    25     1    1
     6     1     2   ar
     7     2     3   ar
     8     3     4    1
     9     3     5   ar
    10     5     6   ar
    11     6     7   ar
    12     7     8   ar
    13     8     9   ar
    14     9    10   ar
    15    10    14    1
    16    14    15    2
    17    14    16   am
    18    16    17    1
    19    16    18    1
    20    18    19    1
    21    19    20   ar
    22    20    21   ar
    23    21    22   ar
    24    22    23   ar
    25    23    24   ar
    26    10    11   ar
    27    11     1   ar
    28    11     6   ar
    29    24    19   ar
    30    25    26    1
    31     4    12    1
    32     4    13    1
@<TRIPOS>MOLECULE
*****
 30 32 0 0 0
SMALL
GASTEIGER

@<TRIPOS>ATOM
      1 C           6.8578   -5.3869   25.9225 C.ar    1  UNL1        0.1329
      2 N           6.7773   -6.5864   26.8195 N.ar    1  UNL1       -0.1993
      3 C           7.3849   -7.8880   26.3876 C.ar    1  UNL1        0.2148
      4 N           7.3044   -9.0875   27.2847 N.pl3   1  UNL1       -0.3274
      5 N           8.0730   -7.9902   25.0587 N.ar    1  UNL1       -0.2139
      6 C           8.1536   -6.7906   24.1616 C.ar    1  UNL1        0.0870
      7 C           8.8417   -6.8928   22.8327 C.ar    1  UNL1        0.0193
      8 C           8.9222   -5.6933   21.9357 C.ar    1  UNL1        0.0017
      9 C           8.3146   -4.3917   22.3676 C.ar    1  UNL1        0.0047
     10 C           7.6265   -4.2895   23.6965 C.ar    1  UNL1        0.0577
     11 C           7.5460   -5.4890   24.5935 C.ar    1  UNL1        0.0536
     12 H           6.8527   -9.0205   28.1569 H       1  UNL1        0.1452
     13 H           7.7032   -9.9419   27.0013 H       1  UNL1        0.1452
     14 C           7.0188   -2.9879   24.1283 C.2     1  UNL1        0.2494
     15 O           7.7920   -2.0565   25.0142 O.2     1  UNL1       -0.2699
     16 N           5.6380   -2.6175   23.6743 N.am    1  UNL1       -0.2702
     17 C           5.0304   -1.3159   24.1062 C.3     1  UNL1        0.1155
     18 C           4.8648   -3.5489   22.7884 C.3     1  UNL1        0.1205
     19 C           4.9765   -3.4312   21.2972 C.ar    1  UNL1       -0.0023
     20 C           5.8401   -2.3646   20.6917 C.ar    1  UNL1       -0.0026
     21 C           5.9518   -2.2469   19.2005 C.ar    1  UNL1       -0.0003
     22 C           5.2000   -3.1958   18.3148 C.ar    1  UNL1       -0.0000
     23 C           4.3365   -4.2624   18.9203 C.ar    1  UNL1       -0.0003
     24 C           4.2247   -4.3801   20.4116 C.ar    1  UNL1       -0.0026
     25 N           6.2502   -4.0852   26.3543 N.pl3   1  UNL1       -0.3180
     26 H           5.8584   -3.4788   25.6850 H       1  UNL1        0.1482
     27 C           6.2395   -3.7075   27.8059 C.3     1  UNL1        0.0882
     28 C           7.5331   -3.5092   28.5388 C.3     1  UNL1        0.0212
     29 C           6.9426   -5.4197   30.1975 C.3     1  UNL1        0.0001
     30 C           7.9509   -4.4835   29.6001 C.3     1  UNL1        0.0017
@<TRIPOS>BOND
     1    29    30    1
     2    30    28    1
     3    28    27    1
     4    27    25    1
     5    25     1    1
     6     1     2   ar
     7     2     3   ar
     8     3     4    1
     9     3     5   ar
    10     5     6   ar
    11     6     7   ar
    12     7     8   ar
    13     8     9   ar
    14     9    10   ar
    15    10    14    1
    16    14    15    2
    17    14    16   am
    18    16    17    1
    19    16    18    1
    20    18    19    1
    21    19    20   ar
    22    20    21   ar
    23    21    22   ar
    24    22    23   ar
    25    23    24   ar
    26    10    11   ar
    27    11     1   ar
    28    11     6   ar
    29    24    19   ar
    30    25    26    1
    31     4    12    1
    32     4    13    1
