@<TRIPOS>MOLECULE
*****
 32 34 0 0 0
SMALL
GASTEIGER

@<TRIPOS>ATOM
      1 C          -7.5495  -19.0300   19.9996 C.ar    1  UNL1        0.0505
      2 C          -8.0464  -19.6975   18.7515 C.ar    1  UNL1        0.0170
      3 C          -9.4851  -20.1077   18.6423 C.ar    1  UNL1        0.0306
      4 C         -10.4269  -19.8504   19.7811 C.ar    1  UNL1        0.1380
      5 F         -11.8655  -20.2606   19.6719 F       1  UNL1       -0.2044
      6 C          -9.9299  -19.1829   21.0291 C.ar    1  UNL1        0.0293
      7 C          -8.4913  -18.7727   21.1383 C.ar    1  UNL1        0.0145
      8 C         -10.8717  -18.9256   22.1679 C.3     1  UNL1        0.1432
      9 C         -10.0455  -20.0300   22.7576 C.3     1  UNL1        0.0321
     10 N         -11.3709  -17.9106   21.1828 N.2     1  UNL1       -0.2214
     11 C         -12.5249  -17.0219   21.5412 C.2     1  UNL1        0.2769
     12 N         -13.0240  -16.0068   20.5560 N.pl3   1  UNL1       -0.3133
     13 O         -13.1797  -17.1481   22.8848 O.2     1  UNL1       -0.4480
     14 C         -12.6805  -18.1632   23.8700 C.3     1  UNL1        0.2383
     15 C         -11.5266  -19.0519   23.5115 C.3     1  UNL1        0.2277
     16 F         -11.0274  -20.0669   24.4967 F       1  UNL1       -0.2309
     17 H         -12.5942  -15.9240   19.6741 H       1  UNL1        0.1466
     18 H         -13.7814  -15.4235   20.7912 H       1  UNL1        0.1466
     19 C         -13.3354  -18.2895   25.2135 C.3     1  UNL1        0.2394
     20 F         -14.7981  -18.6076   25.3080 F       1  UNL1       -0.2302
     21 C          -5.0404  -19.6636   20.2295 C.2     1  UNL1        0.2688
     22 O          -5.4087  -21.1176   20.2411 O.2     1  UNL1       -0.2681
     23 N          -6.1108  -18.6198   20.1088 N.am    1  UNL1       -0.2791
     24 H          -5.8691  -17.6654   20.1012 H       1  UNL1        0.1552
     25 C          -0.7244  -18.4329   20.5572 C.ar    1  UNL1        0.2449
     26 C          -1.4910  -18.1517   19.2989 C.ar    1  UNL1        0.1565
     27 N          -2.9297  -18.5619   19.1897 N.ar    1  UNL1       -0.2328
     28 C          -3.6017  -19.2534   20.3387 C.ar    1  UNL1        0.1541
     29 C          -2.8351  -19.5346   21.5970 C.ar    1  UNL1        0.1258
     30 N          -1.3964  -19.1243   21.7062 N.ar    1  UNL1       -0.2071
     31 C           1.2243  -16.8573   19.8716 C.3     1  UNL1        0.2543
     32 O           0.7143  -18.0227   20.6664 O.3     1  UNL1       -0.4551
@<TRIPOS>BOND
     1    31    32    1
     2    32    25    1
     3    25    26   ar
     4    26    27   ar
     5    27    28   ar
     6    28    21    1
     7    21    22    2
     8    21    23   am
     9    23     1    1
    10     1     2   ar
    11     2     3   ar
    12     3     4   ar
    13     4     5    1
    14     4     6   ar
    15     6     8    1
    16     8     9    1
    17     8    10    1
    18    10    11    2
    19    11    12    1
    20    11    13    1
    21    13    14    1
    22    14    19    1
    23    19    20    1
    24    14    15    1
    25    15    16    1
    26     6     7   ar
    27    28    29   ar
    28    29    30   ar
    29    30    25   ar
    30     7     1   ar
    31    15     8    1
    32    23    24    1
    33    12    17    1
    34    12    18    1
@<TRIPOS>MOLECULE
*****
 32 34 0 0 0
SMALL
GASTEIGER

@<TRIPOS>ATOM
      1 C          -7.7858  -18.9319   20.0268 C.ar    1  UNL1        0.0505
      2 C          -8.2765  -19.6250   18.7903 C.ar    1  UNL1        0.0170
      3 C          -9.7190  -20.0199   18.6743 C.ar    1  UNL1        0.0306
      4 C         -10.6707  -19.7216   19.7948 C.ar    1  UNL1        0.1380
      5 F         -12.1131  -20.1165   19.6788 F       1  UNL1       -0.2044
      6 C         -10.1799  -19.0286   21.0312 C.ar    1  UNL1        0.0293
      7 C          -8.7375  -18.6337   21.1472 C.ar    1  UNL1        0.0145
      8 C         -11.1316  -18.7304   22.1516 C.3     1  UNL1        0.1432
      9 C         -11.6773  -17.8153   21.0958 C.3     1  UNL1        0.0321
     10 N         -10.2554  -19.7490   22.8184 N.2     1  UNL1       -0.2214
     11 C         -10.5203  -20.1517   24.2388 C.2     1  UNL1        0.2769
     12 N          -9.6441  -21.1704   24.9055 N.pl3   1  UNL1       -0.3133
     13 O         -11.6615  -19.5357   24.9925 O.2     1  UNL1       -0.4480
     14 C         -12.5378  -18.5170   24.3258 C.3     1  UNL1        0.2383
     15 C         -12.2728  -18.1144   22.9054 C.3     1  UNL1        0.2277
     16 F         -13.1490  -17.0957   22.2386 F       1  UNL1       -0.2309
     17 H          -8.8950  -21.5747   24.4108 H       1  UNL1        0.1466
     18 H          -9.8180  -21.4346   25.8378 H       1  UNL1        0.1466
     19 C         -13.6790  -17.9010   25.0796 C.3     1  UNL1        0.2394
     20 F         -14.3729  -18.6794   26.1577 F       1  UNL1       -0.2302
     21 C          -5.2809  -19.5927   20.2229 C.2     1  UNL1        0.2688
     22 O          -5.6608  -21.0433   20.1870 O.2     1  UNL1       -0.2681
     23 N          -6.3434  -18.5370   20.1428 N.am    1  UNL1       -0.2791
     24 H          -6.0940  -17.5849   20.1663 H       1  UNL1        0.1552
     25 C          -0.9536  -18.4081   20.5709 C.ar    1  UNL1        0.2449
     26 C          -1.8083  -17.8170   19.4893 C.ar    1  UNL1        0.1565
     27 N          -3.2507  -18.2119   19.3733 N.ar    1  UNL1       -0.2328
     28 C          -3.8384  -19.1978   20.3389 C.ar    1  UNL1        0.1541
     29 C          -2.9837  -19.7889   21.4206 C.ar    1  UNL1        0.1258
     30 N          -1.5412  -19.3940   21.5365 N.ar    1  UNL1       -0.2071
     31 C           1.0342  -16.9058   19.8347 C.3     1  UNL1        0.2543
     32 O           0.4889  -18.0132   20.6869 O.3     1  UNL1       -0.4551
@<TRIPOS>BOND
     1    31    32    1
     2    32    25    1
     3    25    26   ar
     4    26    27   ar
     5    27    28   ar
     6    28    21    1
     7    21    22    2
     8    21    23   am
     9    23     1    1
    10     1     2   ar
    11     2     3   ar
    12     3     4   ar
    13     4     5    1
    14     4     6   ar
    15     6     8    1
    16     8     9    1
    17     8    10    1
    18    10    11    2
    19    11    12    1
    20    11    13    1
    21    13    14    1
    22    14    19    1
    23    19    20    1
    24    14    15    1
    25    15    16    1
    26     6     7   ar
    27    28    29   ar
    28    29    30   ar
    29    30    25   ar
    30     7     1   ar
    31    15     8    1
    32    23    24    1
    33    12    17    1
    34    12    18    1
@<TRIPOS>MOLECULE
*****
 32 34 0 0 0
SMALL
GASTEIGER

@<TRIPOS>ATOM
      1 C           0.7635    0.6958   19.9801 C.ar    1  UNL1        0.0505
      2 C           1.1653    1.0895   18.5896 C.ar    1  UNL1        0.0170
      3 C           2.4490    0.5775   18.0065 C.ar    1  UNL1        0.0306
      4 C           3.3308   -0.3283   18.8141 C.ar    1  UNL1        0.1380
      5 F           4.6145   -0.8403   18.2311 F       1  UNL1       -0.2044
      6 C           2.9290   -0.7219   20.2046 C.ar    1  UNL1        0.0293
      7 C           1.6453   -0.2099   20.7876 C.ar    1  UNL1        0.0145
      8 C           3.8108   -1.6276   21.0120 C.3     1  UNL1        0.1432
      9 C           3.8830   -0.3827   21.8457 C.3     1  UNL1        0.0321
     10 N           3.4324   -2.5580   19.8980 N.2     1  UNL1       -0.2214
     11 C           3.9609   -3.9617   19.8809 C.2     1  UNL1        0.2769
     12 N           3.5825   -4.8921   18.7668 N.pl3   1  UNL1       -0.3133
     13 O           4.8678   -4.4351   20.9779 O.2     1  UNL1       -0.4480
     14 C           5.2462   -3.5047   22.0920 C.3     1  UNL1        0.2383
     15 C           4.7177   -2.1010   22.1090 C.3     1  UNL1        0.2277
     16 F           5.0961   -1.1706   23.2232 F       1  UNL1       -0.2309
     17 H           2.9872   -4.5814   18.0468 H       1  UNL1        0.1466
     18 H           3.9293   -5.8134   18.7556 H       1  UNL1        0.1466
     19 C           6.1531   -3.9780   23.1890 C.3     1  UNL1        0.2394
     20 F           5.7744   -3.7563   24.6233 F       1  UNL1       -0.2302
     21 C          -0.6294    2.6405   20.9941 C.2     1  UNL1        0.2688
     22 O           0.5450    3.5610   20.8420 O.2     1  UNL1       -0.2681
     23 N          -0.5202    1.2079   20.5632 N.am    1  UNL1       -0.2791
     24 H          -1.2911    0.6037   20.6630 H       1  UNL1        0.1552
     25 C          -4.4805    4.1767   22.7432 C.ar    1  UNL1        0.2449
     26 C          -4.5008    3.3649   21.4820 C.ar    1  UNL1        0.1565
     27 N          -3.2171    2.8529   20.8990 N.ar    1  UNL1       -0.2328
     28 C          -1.9131    3.1525   21.5771 C.ar    1  UNL1        0.1541
     29 C          -1.8929    3.9643   22.8383 C.ar    1  UNL1        0.1258
     30 N          -3.1766    4.4763   23.4213 N.ar    1  UNL1       -0.2071
     31 C          -7.0760    4.2908   22.7172 C.3     1  UNL1        0.2543
     32 O          -5.7642    4.6887   23.3262 O.3     1  UNL1       -0.4551
@<TRIPOS>BOND
     1    31    32    1
     2    32    25    1
     3    25    26   ar
     4    26    27   ar
     5    27    28   ar
     6    28    21    1
     7    21    22    2
     8    21    23   am
     9    23     1    1
    10     1     2   ar
    11     2     3   ar
    12     3     4   ar
    13     4     5    1
    14     4     6   ar
    15     6     8    1
    16     8     9    1
    17     8    10    1
    18    10    11    2
    19    11    12    1
    20    11    13    1
    21    13    14    1
    22    14    19    1
    23    19    20    1
    24    14    15    1
    25    15    16    1
    26     6     7   ar
    27    28    29   ar
    28    29    30   ar
    29    30    25   ar
    30     7     1   ar
    31    15     8    1
    32    23    24    1
    33    12    17    1
    34    12    18    1
@<TRIPOS>MOLECULE
*****
 32 34 0 0 0
SMALL
GASTEIGER

@<TRIPOS>ATOM
      1 C           5.5671   -2.0328   20.2200 C.ar    1  UNL1        0.0505
      2 C           5.6797   -2.9189   19.0149 C.ar    1  UNL1        0.0170
      3 C           5.0202   -2.5216   17.7276 C.ar    1  UNL1        0.0306
      4 C           4.2480   -1.2382   17.6454 C.ar    1  UNL1        0.1380
      5 F           3.5884   -0.8408   16.3582 F       1  UNL1       -0.2044
      6 C           4.1354   -0.3522   18.8505 C.ar    1  UNL1        0.0293
      7 C           4.7949   -0.7495   20.1378 C.ar    1  UNL1        0.0145
      8 C           3.3632    0.9312   18.7683 C.3     1  UNL1        0.1432
      9 C           4.6559    1.3645   18.1429 C.3     1  UNL1        0.0321
     10 N           2.3386    0.0523   19.4223 N.2     1  UNL1       -0.2214
     11 C           0.9909    0.6071   19.7768 C.2     1  UNL1        0.2769
     12 N          -0.0337   -0.2719   20.4308 N.pl3   1  UNL1       -0.3133
     13 O           0.6677    2.0409   19.4774 O.2     1  UNL1       -0.4480
     14 C           1.6923    2.9199   18.8234 C.3     1  UNL1        0.2383
     15 C           3.0400    2.3650   18.4689 C.3     1  UNL1        0.2277
     16 F           4.0646    3.2440   17.8149 F       1  UNL1       -0.2309
     17 H           0.1785   -1.2130   20.6273 H       1  UNL1        0.1466
     18 H          -0.9182    0.0922   20.6635 H       1  UNL1        0.1466
     19 C           1.3691    4.3537   18.5240 C.3     1  UNL1        0.2394
     20 F           1.2902    4.8236   17.1018 F       1  UNL1       -0.2302
     21 C           5.6962   -3.5915   22.2945 C.2     1  UNL1        0.2688
     22 O           4.5062   -4.3556   21.7945 O.2     1  UNL1       -0.2681
     23 N           6.2266   -2.4302   21.5073 N.am    1  UNL1       -0.2791
     24 H           7.0077   -1.9287   21.8355 H       1  UNL1        0.1552
     25 C           7.6749   -4.7835   26.1564 C.ar    1  UNL1        0.2449
     26 C           7.9004   -5.5963   24.9161 C.ar    1  UNL1        0.1565
     27 N           7.2409   -5.1989   23.6288 N.ar    1  UNL1       -0.2328
     28 C           6.3558   -3.9889   23.5818 C.ar    1  UNL1        0.1541
     29 C           6.1302   -3.1761   24.8222 C.ar    1  UNL1        0.1258
     30 N           6.7898   -3.5735   26.1095 N.ar    1  UNL1       -0.2071
     31 C           7.5173   -5.7727   28.5536 C.3     1  UNL1        0.2543
     32 O           8.3344   -5.1809   27.4437 O.3     1  UNL1       -0.4551
@<TRIPOS>BOND
     1    31    32    1
     2    32    25    1
     3    25    26   ar
     4    26    27   ar
     5    27    28   ar
     6    28    21    1
     7    21    22    2
     8    21    23   am
     9    23     1    1
    10     1     2   ar
    11     2     3   ar
    12     3     4   ar
    13     4     5    1
    14     4     6   ar
    15     6     8    1
    16     8     9    1
    17     8    10    1
    18    10    11    2
    19    11    12    1
    20    11    13    1
    21    13    14    1
    22    14    19    1
    23    19    20    1
    24    14    15    1
    25    15    16    1
    26     6     7   ar
    27    28    29   ar
    28    29    30   ar
    29    30    25   ar
    30     7     1   ar
    31    15     8    1
    32    23    24    1
    33    12    17    1
    34    12    18    1
@<TRIPOS>MOLECULE
*****
 32 34 0 0 0
SMALL
GASTEIGER

@<TRIPOS>ATOM
      1 C           5.3976   -2.0644   20.4175 C.ar    1  UNL1        0.0505
      2 C           5.7771   -2.6273   19.0799 C.ar    1  UNL1        0.0170
      3 C           5.0359   -2.1988   17.8482 C.ar    1  UNL1        0.0306
      4 C           3.9152   -1.2073   17.9542 C.ar    1  UNL1        0.1380
      5 F           3.1740   -0.7788   16.7225 F       1  UNL1       -0.2044
      6 C           3.5358   -0.6444   19.2918 C.ar    1  UNL1        0.0293
      7 C           4.2770   -1.0729   20.5234 C.ar    1  UNL1        0.0145
      8 C           2.4152    0.3470   19.3977 C.3     1  UNL1        0.1432
      9 C           1.7409   -0.8692   19.9598 C.3     1  UNL1        0.0321
     10 N           3.4786    1.2190   18.7987 N.2     1  UNL1       -0.2214
     11 C           3.1873    2.6599   18.5009 C.2     1  UNL1        0.2769
     12 N           4.2507    3.5319   17.9020 N.pl3   1  UNL1       -0.3133
     13 O           1.8325    3.2290   18.8021 O.2     1  UNL1       -0.4480
     14 C           0.7690    2.3570   19.4010 C.3     1  UNL1        0.2383
     15 C           1.0604    0.9160   19.6988 C.3     1  UNL1        0.2277
     16 F          -0.0031    0.0441   20.2978 F       1  UNL1       -0.2309
     17 H           5.1399    3.1585   17.7043 H       1  UNL1        0.1466
     18 H           4.0595    4.4777   17.7065 H       1  UNL1        0.1466
     19 C          -0.5858    2.9260   19.7022 C.3     1  UNL1        0.2394
     20 F          -1.2908    2.5524   20.9723 F       1  UNL1       -0.2302
     21 C           5.7297   -3.7403   22.3747 C.2     1  UNL1        0.2688
     22 O           4.5795   -4.5593   21.8686 O.2     1  UNL1       -0.2681
     23 N           6.1388   -2.4929   21.6492 N.am    1  UNL1       -0.2791
     24 H           6.8938   -1.9554   21.9813 H       1  UNL1        0.1552
     25 C           7.9533   -5.0259   26.0697 C.ar    1  UNL1        0.2449
     26 C           8.1199   -5.7905   24.7901 C.ar    1  UNL1        0.1565
     27 N           7.3787   -5.3620   23.5584 N.ar    1  UNL1       -0.2328
     28 C           6.4709   -4.1689   23.6064 C.ar    1  UNL1        0.1541
     29 C           6.3043   -3.4043   24.8861 C.ar    1  UNL1        0.1258
     30 N           7.0455   -3.8328   26.1177 N.ar    1  UNL1       -0.2071
     31 C           8.0298   -6.3520   28.3025 C.3     1  UNL1        0.2543
     32 O           8.6945   -5.4544   27.3014 O.3     1  UNL1       -0.4551
@<TRIPOS>BOND
     1    31    32    1
     2    32    25    1
     3    25    26   ar
     4    26    27   ar
     5    27    28   ar
     6    28    21    1
     7    21    22    2
     8    21    23   am
     9    23     1    1
    10     1     2   ar
    11     2     3   ar
    12     3     4   ar
    13     4     5    1
    14     4     6   ar
    15     6     8    1
    16     8     9    1
    17     8    10    1
    18    10    11    2
    19    11    12    1
    20    11    13    1
    21    13    14    1
    22    14    19    1
    23    19    20    1
    24    14    15    1
    25    15    16    1
    26     6     7   ar
    27    28    29   ar
    28    29    30   ar
    29    30    25   ar
    30     7     1   ar
    31    15     8    1
    32    23    24    1
    33    12    17    1
    34    12    18    1
@<TRIPOS>MOLECULE
*****
 32 34 0 0 0
SMALL
GASTEIGER

@<TRIPOS>ATOM
      1 C           1.2017    2.6110   18.5923 C.ar    1  UNL1        0.0505
      2 C           2.1985    3.7002   18.3275 C.ar    1  UNL1        0.0170
      3 C           3.6642    3.3832   18.2923 C.ar    1  UNL1        0.0306
      4 C           4.1331    1.9770   18.5219 C.ar    1  UNL1        0.1380
      5 F           5.5988    1.6600   18.4867 F       1  UNL1       -0.2044
      6 C           3.1364    0.8878   18.7868 C.ar    1  UNL1        0.0293
      7 C           1.6707    1.2048   18.8220 C.ar    1  UNL1        0.0145
      8 C           3.6053   -0.5183   19.0165 C.3     1  UNL1        0.1432
      9 C           3.8349   -0.4054   17.5384 C.3     1  UNL1        0.0321
     10 N           3.2130   -0.1430   20.4147 N.2     1  UNL1       -0.2214
     11 C           3.3693   -1.1346   21.5293 C.2     1  UNL1        0.2769
     12 N           2.9769   -0.7592   22.9276 N.pl3   1  UNL1       -0.3133
     13 O           3.9180   -2.5015   21.2457 O.2     1  UNL1       -0.4480
     14 C           4.3103   -2.8769   19.8474 C.3     1  UNL1        0.2383
     15 C           4.1540   -1.8852   18.7328 C.3     1  UNL1        0.2277
     16 F           4.5464   -2.2606   17.3345 F       1  UNL1       -0.2309
     17 H           2.6168    0.1379   23.1138 H       1  UNL1        0.1466
     18 H           3.0795   -1.4100   23.6592 H       1  UNL1        0.1466
     19 C           4.8590   -4.2438   19.5637 C.3     1  UNL1        0.2394
     20 F           4.3670   -5.0180   18.3770 F       1  UNL1       -0.2302
     21 C          -0.9381    3.2145   19.9365 C.2     1  UNL1        0.2688
     22 O          -0.1465    3.1841   21.2102 O.2     1  UNL1       -0.2681
     23 N          -0.2640    2.9280   18.6275 N.am    1  UNL1       -0.2791
     24 H          -0.7835    2.9479   17.7915 H       1  UNL1        0.1552
     25 C          -5.3352    4.1655   20.0421 C.ar    1  UNL1        0.2449
     26 C          -4.7575    3.1798   21.0140 C.ar    1  UNL1        0.1565
     27 N          -3.2918    2.8628   20.9788 N.ar    1  UNL1       -0.2328
     28 C          -2.4038    3.5315   19.9717 C.ar    1  UNL1        0.1541
     29 C          -2.9815    4.5172   18.9998 C.ar    1  UNL1        0.1258
     30 N          -4.4472    4.8342   19.0350 N.ar    1  UNL1       -0.2071
     31 C          -7.5113    4.8863   18.8195 C.3     1  UNL1        0.2543
     32 O          -6.8009    4.4825   20.0773 O.3     1  UNL1       -0.4551
@<TRIPOS>BOND
     1    31    32    1
     2    32    25    1
     3    25    26   ar
     4    26    27   ar
     5    27    28   ar
     6    28    21    1
     7    21    22    2
     8    21    23   am
     9    23     1    1
    10     1     2   ar
    11     2     3   ar
    12     3     4   ar
    13     4     5    1
    14     4     6   ar
    15     6     8    1
    16     8     9    1
    17     8    10    1
    18    10    11    2
    19    11    12    1
    20    11    13    1
    21    13    14    1
    22    14    19    1
    23    19    20    1
    24    14    15    1
    25    15    16    1
    26     6     7   ar
    27    28    29   ar
    28    29    30   ar
    29    30    25   ar
    30     7     1   ar
    31    15     8    1
    32    23    24    1
    33    12    17    1
    34    12    18    1
@<TRIPOS>MOLECULE
*****
 32 34 0 0 0
SMALL
GASTEIGER

@<TRIPOS>ATOM
      1 C           4.4818   -2.9160   21.6041 C.ar    1  UNL1        0.0505
      2 C           5.0166   -3.8073   20.5225 C.ar    1  UNL1        0.0170
      3 C           4.7976   -3.4523   19.0816 C.ar    1  UNL1        0.0306
      4 C           4.0440   -2.2061   18.7223 C.ar    1  UNL1        0.1380
      5 F           3.8250   -1.8511   17.2815 F       1  UNL1       -0.2044
      6 C           3.5092   -1.3149   19.8039 C.ar    1  UNL1        0.0293
      7 C           3.7282   -1.6699   21.2448 C.ar    1  UNL1        0.0145
      8 C           2.7556   -0.0688   19.4447 C.3     1  UNL1        0.1432
      9 C           1.6211   -0.9359   19.9040 C.3     1  UNL1        0.0321
     10 N           4.1517    0.3657   19.1100 N.2     1  UNL1       -0.2214
     11 C           4.4002    1.7450   18.5757 C.2     1  UNL1        0.2769
     12 N           5.7965    2.1794   18.2410 N.pl3   1  UNL1       -0.3133
     13 O           3.2526    2.6900   18.3759 O.2     1  UNL1       -0.4480
     14 C           1.8564    2.2556   18.7106 C.3     1  UNL1        0.2383
     15 C           1.6080    0.8762   19.2449 C.3     1  UNL1        0.2277
     16 F           0.2118    0.4418   19.5796 F       1  UNL1       -0.2309
     17 H           6.5497    1.5592   18.3721 H       1  UNL1        0.1466
     18 H           5.9596    3.0848   17.8903 H       1  UNL1        0.1466
     19 C           0.7088    3.2006   18.5108 C.3     1  UNL1        0.2394
     20 F          -0.3872    2.8562   17.5464 F       1  UNL1       -0.2302
     21 C           5.8766   -2.7071   23.7860 C.2     1  UNL1        0.2688
     22 O           6.8336   -1.7882   23.0862 O.2     1  UNL1       -0.2681
     23 N           4.7008   -3.2710   23.0449 N.am    1  UNL1       -0.2791
     24 H           4.0726   -3.8741   23.5042 H       1  UNL1        0.1552
     25 C           6.5334   -3.7720   28.1085 C.ar    1  UNL1        0.2449
     26 C           5.8261   -2.4991   27.7488 C.ar    1  UNL1        0.1565
     27 N           5.6072   -2.1441   26.3079 N.ar    1  UNL1       -0.2328
     28 C           6.0956   -3.0620   25.2268 C.ar    1  UNL1        0.1541
     29 C           6.8029   -4.3349   25.5865 C.ar    1  UNL1        0.1258
     30 N           7.0218   -4.6899   27.0274 N.ar    1  UNL1       -0.2071
     31 C           6.8834   -5.5648   29.9560 C.3     1  UNL1        0.2543
     32 O           6.7524   -4.1269   29.5494 O.3     1  UNL1       -0.4551
@<TRIPOS>BOND
     1    31    32    1
     2    32    25    1
     3    25    26   ar
     4    26    27   ar
     5    27    28   ar
     6    28    21    1
     7    21    22    2
     8    21    23   am
     9    23     1    1
    10     1     2   ar
    11     2     3   ar
    12     3     4   ar
    13     4     5    1
    14     4     6   ar
    15     6     8    1
    16     8     9    1
    17     8    10    1
    18    10    11    2
    19    11    12    1
    20    11    13    1
    21    13    14    1
    22    14    19    1
    23    19    20    1
    24    14    15    1
    25    15    16    1
    26     6     7   ar
    27    28    29   ar
    28    29    30   ar
    29    30    25   ar
    30     7     1   ar
    31    15     8    1
    32    23    24    1
    33    12    17    1
    34    12    18    1
@<TRIPOS>MOLECULE
*****
 32 34 0 0 0
SMALL
GASTEIGER

@<TRIPOS>ATOM
      1 C           0.8600    1.8285   21.2523 C.ar    1  UNL1        0.0505
      2 C           1.7638    2.9016   21.7829 C.ar    1  UNL1        0.0170
      3 C           3.2359    2.6452   21.9141 C.ar    1  UNL1        0.0306
      4 C           3.8041    1.3156   21.5148 C.ar    1  UNL1        0.1380
      5 F           5.2762    1.0591   21.6460 F       1  UNL1       -0.2044
      6 C           2.9003    0.2425   20.9842 C.ar    1  UNL1        0.0293
      7 C           1.4282    0.4990   20.8529 C.ar    1  UNL1        0.0145
      8 C           3.4685   -1.0870   20.5849 C.3     1  UNL1        0.1432
      9 C           3.2640   -1.3213   22.0523 C.3     1  UNL1        0.0321
     10 N           3.4758   -0.3911   19.2562 N.2     1  UNL1       -0.2214
     11 C           3.9802   -1.1059   18.0378 C.2     1  UNL1        0.2769
     12 N           3.9874   -0.4099   16.7090 N.pl3   1  UNL1       -0.3133
     13 O           4.4774   -2.5168   18.1481 O.2     1  UNL1       -0.4480
     14 C           4.4701   -3.2128   19.4768 C.3     1  UNL1        0.2383
     15 C           3.9657   -2.4979   20.6952 C.3     1  UNL1        0.2277
     16 F           3.9585   -3.1939   22.0240 F       1  UNL1       -0.2309
     17 H           3.6610    0.5161   16.6366 H       1  UNL1        0.1466
     18 H           4.3184   -0.8791   15.9093 H       1  UNL1        0.1466
     19 C           4.9673   -4.6237   19.5871 C.3     1  UNL1        0.2394
     20 F           4.7585   -5.5833   18.4534 F       1  UNL1       -0.2302
     21 C          -1.1135    3.0796   20.1165 C.2     1  UNL1        0.2688
     22 O          -0.1428    3.8179   19.2432 O.2     1  UNL1       -0.2681
     23 N          -0.6121    2.0849   21.1210 N.am    1  UNL1       -0.2791
     24 H          -1.2492    1.6003   21.6942 H       1  UNL1        0.1552
     25 C          -5.5297    3.8489   19.7227 C.ar    1  UNL1        0.2449
     26 C          -4.9908    3.1867   20.9560 C.ar    1  UNL1        0.1565
     27 N          -3.5187    2.9303   21.0872 N.ar    1  UNL1       -0.2328
     28 C          -2.5856    3.3360   19.9852 C.ar    1  UNL1        0.1541
     29 C          -3.1245    3.9982   18.7519 C.ar    1  UNL1        0.1258
     30 N          -4.5966    4.2547   18.6207 N.ar    1  UNL1       -0.2071
     31 C          -7.4909    5.4415   19.1168 C.3     1  UNL1        0.2543
     32 O          -7.0018    4.1053   19.5914 O.3     1  UNL1       -0.4551
@<TRIPOS>BOND
     1    31    32    1
     2    32    25    1
     3    25    26   ar
     4    26    27   ar
     5    27    28   ar
     6    28    21    1
     7    21    22    2
     8    21    23   am
     9    23     1    1
    10     1     2   ar
    11     2     3   ar
    12     3     4   ar
    13     4     5    1
    14     4     6   ar
    15     6     8    1
    16     8     9    1
    17     8    10    1
    18    10    11    2
    19    11    12    1
    20    11    13    1
    21    13    14    1
    22    14    19    1
    23    19    20    1
    24    14    15    1
    25    15    16    1
    26     6     7   ar
    27    28    29   ar
    28    29    30   ar
    29    30    25   ar
    30     7     1   ar
    31    15     8    1
    32    23    24    1
    33    12    17    1
    34    12    18    1
@<TRIPOS>MOLECULE
*****
 32 34 0 0 0
SMALL
GASTEIGER

@<TRIPOS>ATOM
      1 C           3.4508    0.7690   33.2549 C.ar    1  UNL1        0.0505
      2 C           4.2330   -0.5097   33.3107 C.ar    1  UNL1        0.0170
      3 C           4.9651   -0.8870   34.5644 C.ar    1  UNL1        0.0306
      4 C           4.9149    0.0144   35.7623 C.ar    1  UNL1        0.1380
      5 F           5.6470   -0.3629   37.0160 F       1  UNL1       -0.2044
      6 C           4.1327    1.2931   35.7065 C.ar    1  UNL1        0.0293
      7 C           3.4007    1.6704   34.4528 C.ar    1  UNL1        0.0145
      8 C           4.0826    2.1944   36.9044 C.3     1  UNL1        0.1432
      9 C           5.0283    2.9690   36.0351 C.3     1  UNL1        0.0321
     10 N           3.1543    1.1069   37.3578 N.2     1  UNL1       -0.2214
     11 C           2.5044    1.1897   38.7071 C.2     1  UNL1        0.2769
     12 N           1.5761    0.1022   39.1605 N.pl3   1  UNL1       -0.3133
     13 O           2.7827    2.3601   39.6031 O.2     1  UNL1       -0.4480
     14 C           3.7110    3.4477   39.1497 C.3     1  UNL1        0.2383
     15 C           4.3609    3.3648   37.8004 C.3     1  UNL1        0.2277
     16 F           5.2892    4.4523   37.3471 F       1  UNL1       -0.2309
     17 H           1.3934   -0.6660   38.5724 H       1  UNL1        0.1466
     18 H           1.1495    0.1565   40.0461 H       1  UNL1        0.1466
     19 C           3.9893    4.6180   40.0457 C.3     1  UNL1        0.2394
     20 F           3.6458    4.5445   41.5040 F       1  UNL1       -0.2302
     21 C           2.3177    0.0861   31.0190 C.2     1  UNL1        0.2688
     22 O           2.6488   -1.3515   31.2903 O.2     1  UNL1       -0.2681
     23 N           2.7187    1.1463   32.0013 N.am    1  UNL1       -0.2791
     24 H           2.5014    2.0899   31.8232 H       1  UNL1        0.1552
     25 C           0.1216    1.2180   27.2579 C.ar    1  UNL1        0.2449
     26 C          -0.5284    0.3135   28.2625 C.ar    1  UNL1        0.1565
     27 N           0.2037   -0.0638   29.5162 N.ar    1  UNL1       -0.2328
     28 C           1.5857    0.4634   29.7653 C.ar    1  UNL1        0.1541
     29 C           2.2356    1.3679   28.7606 C.ar    1  UNL1        0.1258
     30 N           1.5036    1.7452   27.5069 N.ar    1  UNL1       -0.2071
     31 C          -0.1940    2.8102   25.2293 C.3     1  UNL1        0.2543
     32 O          -0.6105    1.5953   26.0042 O.3     1  UNL1       -0.4551
@<TRIPOS>BOND
     1    31    32    1
     2    32    25    1
     3    25    26   ar
     4    26    27   ar
     5    27    28   ar
     6    28    21    1
     7    21    22    2
     8    21    23   am
     9    23     1    1
    10     1     2   ar
    11     2     3   ar
    12     3     4   ar
    13     4     5    1
    14     4     6   ar
    15     6     8    1
    16     8     9    1
    17     8    10    1
    18    10    11    2
    19    11    12    1
    20    11    13    1
    21    13    14    1
    22    14    19    1
    23    19    20    1
    24    14    15    1
    25    15    16    1
    26     6     7   ar
    27    28    29   ar
    28    29    30   ar
    29    30    25   ar
    30     7     1   ar
    31    15     8    1
    32    23    24    1
    33    12    17    1
    34    12    18    1
