@<TRIPOS>MOLECULE
*****
 33 38 0 0 0
SMALL
GASTEIGER

@<TRIPOS>ATOM
      1 N          -4.9656  -16.5124   24.4921 N.ar    1  UNL1       -0.2104
      2 N          -4.6330  -15.9743   25.8522 N.ar    1  UNL1       -0.0596
      3 N          -5.9003  -15.4637   26.4713 N.ar    1  UNL1       -0.1276
      4 C          -7.0161  -15.6863   25.4938 C.ar    1  UNL1        0.1326
      5 C          -8.4836  -15.3825   25.5594 C.ar    1  UNL1        0.0786
      6 CL         -9.0612  -14.7343   26.7827 Cl      1  UNL1       -0.0806
      7 C          -9.3733  -15.7269   24.4020 C.ar    1  UNL1        0.0146
      8 C          -8.7956  -16.3750   23.1788 C.ar    1  UNL1        0.0198
      9 C          -7.3282  -16.6788   23.1131 C.ar    1  UNL1        0.0223
     10 C          -6.4384  -16.3344   24.2706 C.ar    1  UNL1        0.1046
     11 O           0.6915  -17.1993   19.0931 O.2     1  UNL1       -0.2484
     12 C          -0.4002  -17.3554   20.1099 C.2     1  UNL1        0.3478
     13 N          -1.0022  -18.6516   20.5652 N.am    1  UNL1       -0.1594
     14 C          -2.0557  -18.3401   21.5866 C.ar    1  UNL1        0.0904
     15 C          -2.9765  -19.2197   22.3792 C.ar    1  UNL1        0.0195
     16 C          -3.9465  -18.6105   23.3477 C.ar    1  UNL1        0.0206
     17 C          -3.9956  -17.1216   23.5236 C.ar    1  UNL1        0.0858
     18 C          -3.0747  -16.2420   22.7310 C.ar    1  UNL1        0.0372
     19 C          -2.1048  -16.8512   21.7625 C.ar    1  UNL1        0.0918
     20 N          -1.0816  -16.2427   20.8498 N.am    1  UNL1       -0.1593
     21 C          -9.6854  -16.7194   22.0214 C.ar    1  UNL1        0.0799
     22 C         -10.6116  -15.7777   21.3105 C.ar    1  UNL1        0.0412
     23 C         -11.3039  -16.5423   20.2214 C.ar    1  UNL1        0.1217
     24 N         -10.8055  -17.9566   20.2592 N.ar    1  UNL1       -0.1673
     25 N          -9.8053  -18.0661   21.3716 N.ar    1  UNL1       -0.2448
     26 C          -9.0563  -19.3047   21.7652 C.3     1  UNL1        0.1727
     27 C          -7.7157  -19.5952   21.1583 C.ar    1  UNL1        0.0837
     28 C          -6.9905  -20.8597   21.5119 C.ar    1  UNL1        0.0176
     29 C          -5.6499  -21.1502   20.9051 C.ar    1  UNL1        0.0142
     30 C          -5.0344  -20.1761   19.9446 C.ar    1  UNL1        0.0768
     31 CL         -3.6938  -20.4666   19.3378 Cl      1  UNL1       -0.0806
     32 C          -5.7596  -18.9116   19.5911 C.ar    1  UNL1        0.1098
     33 N          -7.1003  -18.6211   20.1979 N.ar    1  UNL1       -0.2453
@<TRIPOS>BOND
     1    11    12    2
     2    12    13    1
     3    13    14    2
     4    14    15   ar
     5    15    16   ar
     6    16    17   ar
     7    17     1    1
     8     1     2   ar
     9     2     3   ar
    10     3     4   ar
    11     4     5   ar
    12     5     6    1
    13     5     7   ar
    14     7     8   ar
    15     8    21    1
    16    21    22   ar
    17    22    23   ar
    18    23    24   ar
    19    24    25   ar
    20    25    26    1
    21    26    27    1
    22    27    28   ar
    23    28    29   ar
    24    29    30   ar
    25    30    31    1
    26    30    32   ar
    27    32    33   ar
    28     8     9   ar
    29     9    10   ar
    30    17    18   ar
    31    18    19   ar
    32    19    20    2
    33    20    12    1
    34    19    14   ar
    35    10     1   ar
    36    10     4   ar
    37    25    21   ar
    38    33    27   ar
@<TRIPOS>MOLECULE
*****
 33 38 0 0 0
SMALL
GASTEIGER

@<TRIPOS>ATOM
      1 N         -18.3244   -5.4733   19.4650 N.ar    1  UNL1       -0.2104
      2 N         -19.4772   -6.2589   20.0162 N.ar    1  UNL1       -0.0596
      3 N         -19.0757   -7.7036   20.0583 N.ar    1  UNL1       -0.1276
      4 C         -17.6747   -7.8107   19.5331 C.ar    1  UNL1        0.1326
      5 C         -16.7617   -8.9853   19.3414 C.ar    1  UNL1        0.0786
      6 CL        -17.2261  -10.3638   19.7081 Cl      1  UNL1       -0.0806
      7 C         -15.3846   -8.7816   18.7830 C.ar    1  UNL1        0.0146
      8 C         -14.9203   -7.4031   18.4163 C.ar    1  UNL1        0.0198
      9 C         -15.8332   -6.2285   18.6080 C.ar    1  UNL1        0.0223
     10 C         -17.2104   -6.4323   19.1664 C.ar    1  UNL1        0.1046
     11 O         -19.0240    2.2346   20.7774 O.2     1  UNL1       -0.2484
     12 C         -18.7992    0.8426   20.2657 C.2     1  UNL1        0.3478
     13 N         -18.2987    0.4753   18.9002 N.am    1  UNL1       -0.1594
     14 C         -18.2256   -1.0208   18.8202 C.ar    1  UNL1        0.0904
     15 C         -17.8032   -1.9476   17.7191 C.ar    1  UNL1        0.0195
     16 C         -17.8362   -3.4317   17.9340 C.ar    1  UNL1        0.0206
     17 C         -18.2915   -3.9890   19.2501 C.ar    1  UNL1        0.0858
     18 C         -18.7138   -3.0622   20.3513 C.ar    1  UNL1        0.0372
     19 C         -18.6809   -1.5781   20.1363 C.ar    1  UNL1        0.0918
     20 N         -19.0354   -0.4265   21.0297 N.am    1  UNL1       -0.1593
     21 C         -13.5431   -7.1995   17.8580 C.ar    1  UNL1        0.0799
     22 C         -12.9584   -7.9087   16.6725 C.ar    1  UNL1        0.0412
     23 C         -11.5626   -7.3983   16.4690 C.ar    1  UNL1        0.1217
     24 N         -11.2847   -6.3736   17.5286 N.ar    1  UNL1       -0.1673
     25 N         -12.5086   -6.2507   18.3871 N.ar    1  UNL1       -0.2448
     26 C         -12.6699   -5.3391   19.5673 C.3     1  UNL1        0.1727
     27 C         -13.1960   -3.9478   19.3740 C.ar    1  UNL1        0.0837
     28 C         -14.3095   -3.4399   20.2412 C.ar    1  UNL1        0.0176
     29 C         -14.8357   -2.0486   20.0480 C.ar    1  UNL1        0.0142
     30 C         -14.2483   -1.1651   18.9875 C.ar    1  UNL1        0.0768
     31 CL        -14.7744    0.2262   18.7942 Cl      1  UNL1       -0.0806
     32 C         -13.1348   -1.6731   18.1203 C.ar    1  UNL1        0.1098
     33 N         -12.6086   -3.0645   18.3136 N.ar    1  UNL1       -0.2453
@<TRIPOS>BOND
     1    11    12    2
     2    12    13    1
     3    13    14    2
     4    14    15   ar
     5    15    16   ar
     6    16    17   ar
     7    17     1    1
     8     1     2   ar
     9     2     3   ar
    10     3     4   ar
    11     4     5   ar
    12     5     6    1
    13     5     7   ar
    14     7     8   ar
    15     8    21    1
    16    21    22   ar
    17    22    23   ar
    18    23    24   ar
    19    24    25   ar
    20    25    26    1
    21    26    27    1
    22    27    28   ar
    23    28    29   ar
    24    29    30   ar
    25    30    31    1
    26    30    32   ar
    27    32    33   ar
    28     8     9   ar
    29     9    10   ar
    30    17    18   ar
    31    18    19   ar
    32    19    20    2
    33    20    12    1
    34    19    14   ar
    35    10     1   ar
    36    10     4   ar
    37    25    21   ar
    38    33    27   ar
@<TRIPOS>MOLECULE
*****
 33 38 0 0 0
SMALL
GASTEIGER

@<TRIPOS>ATOM
      1 N           7.7993   -4.9390   21.9020 N.ar    1  UNL1       -0.2104
      2 N           8.4345   -6.2935   21.7928 N.ar    1  UNL1       -0.0596
      3 N           8.5081   -6.8834   23.1700 N.ar    1  UNL1       -0.1276
      4 C           7.9183   -5.8934   24.1303 C.ar    1  UNL1        0.1326
      5 C           7.7235   -5.9310   25.6172 C.ar    1  UNL1        0.0786
      6 CL          8.1615   -7.1327   26.4008 Cl      1  UNL1       -0.0806
      7 C           7.0908   -4.7669   26.3203 C.ar    1  UNL1        0.0146
      8 C           6.6527   -3.5652   25.5367 C.ar    1  UNL1        0.0198
      9 C           6.8475   -3.5276   24.0498 C.ar    1  UNL1        0.0223
     10 C           7.4803   -4.6917   23.3467 C.ar    1  UNL1        0.1046
     11 O           3.9987   -0.9241   16.3290 O.2     1  UNL1       -0.2484
     12 C           4.9570   -1.5500   17.2985 C.2     1  UNL1        0.3478
     13 N           6.4280   -1.2710   17.3887 N.am    1  UNL1       -0.1594
     14 C           6.9927   -2.1134   18.4939 C.ar    1  UNL1        0.0904
     15 C           8.3836   -2.2555   19.0371 C.ar    1  UNL1        0.0195
     16 C           8.6525   -3.1974   20.1731 C.ar    1  UNL1        0.0206
     17 C           7.5304   -3.9971   20.7660 C.ar    1  UNL1        0.0858
     18 C           6.1395   -3.8549   20.2228 C.ar    1  UNL1        0.0372
     19 C           5.8706   -2.9130   19.0868 C.ar    1  UNL1        0.0918
     20 N           4.6125   -2.5649   18.3479 N.am    1  UNL1       -0.1593
     21 C           6.0200   -2.4012   26.2399 C.ar    1  UNL1        0.0799
     22 C           5.4392   -2.4161   27.6229 C.ar    1  UNL1        0.0412
     23 C           4.9172   -1.0419   27.9213 C.ar    1  UNL1        0.1217
     24 N           5.1753   -0.1776   26.7227 N.ar    1  UNL1       -0.1673
     25 N           5.8568   -1.0177   25.6836 N.ar    1  UNL1       -0.2448
     26 C           6.2977   -0.5554   24.3264 C.3     1  UNL1        0.1727
     27 C           5.3132   -0.5011   23.1961 C.ar    1  UNL1        0.0837
     28 C           3.9474   -1.0988   23.3617 C.ar    1  UNL1        0.0176
     29 C           2.9629   -1.0444   22.2314 C.ar    1  UNL1        0.0142
     30 C           3.3440   -0.3923   20.9354 C.ar    1  UNL1        0.0768
     31 CL          2.3595   -0.3379   19.8051 Cl      1  UNL1       -0.0806
     32 C           4.7098    0.2055   20.7698 C.ar    1  UNL1        0.1098
     33 N           5.6944    0.1511   21.9002 N.ar    1  UNL1       -0.2453
@<TRIPOS>BOND
     1    11    12    2
     2    12    13    1
     3    13    14    2
     4    14    15   ar
     5    15    16   ar
     6    16    17   ar
     7    17     1    1
     8     1     2   ar
     9     2     3   ar
    10     3     4   ar
    11     4     5   ar
    12     5     6    1
    13     5     7   ar
    14     7     8   ar
    15     8    21    1
    16    21    22   ar
    17    22    23   ar
    18    23    24   ar
    19    24    25   ar
    20    25    26    1
    21    26    27    1
    22    27    28   ar
    23    28    29   ar
    24    29    30   ar
    25    30    31    1
    26    30    32   ar
    27    32    33   ar
    28     8     9   ar
    29     9    10   ar
    30    17    18   ar
    31    18    19   ar
    32    19    20    2
    33    20    12    1
    34    19    14   ar
    35    10     1   ar
    36    10     4   ar
    37    25    21   ar
    38    33    27   ar
@<TRIPOS>MOLECULE
*****
 33 38 0 0 0
SMALL
GASTEIGER

@<TRIPOS>ATOM
      1 N         -12.7161   -1.2499   17.9806 N.ar    1  UNL1       -0.2104
      2 N         -11.9185    0.0142   17.8549 N.ar    1  UNL1       -0.0596
      3 N         -12.8016    1.1608   18.2492 N.ar    1  UNL1       -0.1276
      4 C         -14.1452    0.6052   18.6186 C.ar    1  UNL1        0.1326
      5 C         -15.4099    1.2634   19.0846 C.ar    1  UNL1        0.0786
      6 CL        -15.4627    2.7533   19.2506 Cl      1  UNL1       -0.0806
      7 C         -16.6216    0.4319   19.3847 C.ar    1  UNL1        0.0146
      8 C         -16.5687   -1.0580   19.2187 C.ar    1  UNL1        0.0198
      9 C         -15.3040   -1.7163   18.7526 C.ar    1  UNL1        0.0223
     10 C         -14.0923   -0.8847   18.4526 C.ar    1  UNL1        0.1046
     11 O          -9.0551   -8.1498   18.7627 O.2     1  UNL1       -0.2484
     12 C          -9.8412   -6.9375   18.3599 C.2     1  UNL1        0.3478
     13 N         -10.6086   -6.7686   17.0822 N.am    1  UNL1       -0.1594
     14 C         -11.2397   -5.4079   17.0968 C.ar    1  UNL1        0.0904
     15 C         -12.1091   -4.6941   16.1046 C.ar    1  UNL1        0.0195
     16 C         -12.6013   -3.3081   16.3992 C.ar    1  UNL1        0.0206
     17 C         -12.2239   -2.6359   17.6860 C.ar    1  UNL1        0.0858
     18 C         -11.3545   -3.3498   18.6782 C.ar    1  UNL1        0.0372
     19 C         -10.8623   -4.7357   18.3835 C.ar    1  UNL1        0.0918
     20 N          -9.9981   -5.6811   19.1642 N.am    1  UNL1       -0.1593
     21 C         -17.7805   -1.8895   19.5188 C.ar    1  UNL1        0.0799
     22 C         -19.2067   -1.4833   19.2926 C.ar    1  UNL1        0.0412
     23 C         -20.0865   -2.6160   19.7318 C.ar    1  UNL1        0.1217
     24 N         -19.2041   -3.7223   20.2295 N.ar    1  UNL1       -0.1673
     25 N         -17.7790   -3.2733   20.0978 N.ar    1  UNL1       -0.2448
     26 C         -16.5653   -4.0684   20.4784 C.3     1  UNL1        0.1727
     27 C         -16.2018   -5.2996   19.7027 C.ar    1  UNL1        0.0837
     28 C         -14.8552   -5.4047   19.0503 C.ar    1  UNL1        0.0176
     29 C         -14.4916   -6.6359   18.2746 C.ar    1  UNL1        0.0142
     30 C         -15.4747   -7.7622   18.1512 C.ar    1  UNL1        0.0768
     31 CL        -15.1111   -8.9935   17.3755 Cl      1  UNL1       -0.0806
     32 C         -16.8213   -7.6572   18.8036 C.ar    1  UNL1        0.1098
     33 N         -17.1848   -6.4258   19.5793 N.ar    1  UNL1       -0.2453
@<TRIPOS>BOND
     1    11    12    2
     2    12    13    1
     3    13    14    2
     4    14    15   ar
     5    15    16   ar
     6    16    17   ar
     7    17     1    1
     8     1     2   ar
     9     2     3   ar
    10     3     4   ar
    11     4     5   ar
    12     5     6    1
    13     5     7   ar
    14     7     8   ar
    15     8    21    1
    16    21    22   ar
    17    22    23   ar
    18    23    24   ar
    19    24    25   ar
    20    25    26    1
    21    26    27    1
    22    27    28   ar
    23    28    29   ar
    24    29    30   ar
    25    30    31    1
    26    30    32   ar
    27    32    33   ar
    28     8     9   ar
    29     9    10   ar
    30    17    18   ar
    31    18    19   ar
    32    19    20    2
    33    20    12    1
    34    19    14   ar
    35    10     1   ar
    36    10     4   ar
    37    25    21   ar
    38    33    27   ar
@<TRIPOS>MOLECULE
*****
 33 38 0 0 0
SMALL
GASTEIGER

@<TRIPOS>ATOM
      1 N           0.1401    2.1693   20.8348 N.ar    1  UNL1       -0.2104
      2 N          -0.7169    3.1213   20.0543 N.ar    1  UNL1       -0.0596
      3 N          -1.5548    3.8957   21.0280 N.ar    1  UNL1       -0.1276
      4 C          -1.2155    3.4223   22.4104 C.ar    1  UNL1        0.1326
      5 C          -1.7251    3.8250   23.7625 C.ar    1  UNL1        0.0786
      6 CL         -2.7727    4.8920   23.8819 Cl      1  UNL1       -0.0806
      7 C          -1.1872    3.1608   24.9951 C.ar    1  UNL1        0.0146
      8 C          -0.1397    2.0938   24.8757 C.ar    1  UNL1        0.0198
      9 C           0.3699    1.6911   23.5236 C.ar    1  UNL1        0.0223
     10 C          -0.1680    2.3554   22.2909 C.ar    1  UNL1        0.1046
     11 O           6.4077   -0.6731   17.0583 O.2     1  UNL1       -0.2484
     12 C           5.1491   -0.4069   17.8298 C.2     1  UNL1        0.3478
     13 N           4.2497   -1.4439   18.4345 N.am    1  UNL1       -0.1594
     14 C           3.1137   -0.7349   19.1105 C.ar    1  UNL1        0.0904
     15 C           1.9251   -1.2420   19.8721 C.ar    1  UNL1        0.0195
     16 C           0.9340   -0.2740   20.4468 C.ar    1  UNL1        0.0206
     17 C           1.1314    1.2012   20.2600 C.ar    1  UNL1        0.0858
     18 C           2.3200    1.7083   19.4984 C.ar    1  UNL1        0.0372
     19 C           3.3112    0.7402   18.9237 C.ar    1  UNL1        0.0918
     20 N           4.5691    0.9429   18.1322 N.am    1  UNL1       -0.1593
     21 C           0.3982    1.4296   26.1083 C.ar    1  UNL1        0.0799
     22 C          -0.3837    1.1012   27.3456 C.ar    1  UNL1        0.0412
     23 C           0.5474    0.4458   28.3221 C.ar    1  UNL1        0.1217
     24 N           1.9047    0.3691   27.6883 N.ar    1  UNL1       -0.1673
     25 N           1.8126    0.9771   26.3202 N.ar    1  UNL1       -0.2448
     26 C           2.9373    1.1093   25.3365 C.3     1  UNL1        0.1727
     27 C           3.5838   -0.1185   24.7670 C.ar    1  UNL1        0.0837
     28 C           3.2086   -0.5961   23.3954 C.ar    1  UNL1        0.0176
     29 C           3.8551   -1.8239   22.8259 C.ar    1  UNL1        0.0142
     30 C           4.8769   -2.5741   23.6278 C.ar    1  UNL1        0.0768
     31 CL          5.5235   -3.8019   23.0582 Cl      1  UNL1       -0.0806
     32 C           5.2522   -2.0965   24.9993 C.ar    1  UNL1        0.1098
     33 N           4.6056   -0.8686   25.5689 N.ar    1  UNL1       -0.2453
@<TRIPOS>BOND
     1    11    12    2
     2    12    13    1
     3    13    14    2
     4    14    15   ar
     5    15    16   ar
     6    16    17   ar
     7    17     1    1
     8     1     2   ar
     9     2     3   ar
    10     3     4   ar
    11     4     5   ar
    12     5     6    1
    13     5     7   ar
    14     7     8   ar
    15     8    21    1
    16    21    22   ar
    17    22    23   ar
    18    23    24   ar
    19    24    25   ar
    20    25    26    1
    21    26    27    1
    22    27    28   ar
    23    28    29   ar
    24    29    30   ar
    25    30    31    1
    26    30    32   ar
    27    32    33   ar
    28     8     9   ar
    29     9    10   ar
    30    17    18   ar
    31    18    19   ar
    32    19    20    2
    33    20    12    1
    34    19    14   ar
    35    10     1   ar
    36    10     4   ar
    37    25    21   ar
    38    33    27   ar
@<TRIPOS>MOLECULE
*****
 33 38 0 0 0
SMALL
GASTEIGER

@<TRIPOS>ATOM
      1 N           2.0619    0.9019   23.2716 N.ar    1  UNL1       -0.2104
      2 N           1.3265    2.1732   22.9663 N.ar    1  UNL1       -0.0596
      3 N           1.1688    2.2715   21.4779 N.ar    1  UNL1       -0.1276
      4 C           1.8067    1.0609   20.8633 C.ar    1  UNL1        0.1326
      5 C           1.9563    0.6200   19.4374 C.ar    1  UNL1        0.0786
      6 CL          1.4043    1.4665   18.3288 Cl      1  UNL1       -0.0806
      7 C           2.6578   -0.6673   19.1201 C.ar    1  UNL1        0.0146
      8 C           3.2098   -1.5137   20.2287 C.ar    1  UNL1        0.0198
      9 C           3.0602   -1.0728   21.6545 C.ar    1  UNL1        0.0223
     10 C           2.3586    0.2145   21.9718 C.ar    1  UNL1        0.1046
     11 O           2.2431    0.0726   31.0756 O.2     1  UNL1       -0.2484
     12 C           2.4090    0.0245   29.5856 C.2     1  UNL1        0.3478
     13 N           3.3427   -0.8749   28.8310 N.am    1  UNL1       -0.1594
     14 C           3.1811   -0.5880   27.3676 C.ar    1  UNL1        0.0904
     15 C           3.8416   -1.1681   26.1522 C.ar    1  UNL1        0.0195
     16 C           3.4685   -0.6714   24.7869 C.ar    1  UNL1        0.0206
     17 C           2.4350    0.4053   24.6370 C.ar    1  UNL1        0.0858
     18 C           1.7745    0.9853   25.8524 C.ar    1  UNL1        0.0372
     19 C           2.1476    0.4887   27.2177 C.ar    1  UNL1        0.0918
     20 N           1.6704    0.8672   28.5885 N.am    1  UNL1       -0.1593
     21 C           3.9112   -2.8010   19.9112 C.ar    1  UNL1        0.0799
     22 C           3.3102   -3.9832   19.2104 C.ar    1  UNL1        0.0412
     23 C           4.3645   -5.0450   19.1050 C.ar    1  UNL1        0.1217
     24 N           5.6172   -4.5189   19.7407 N.ar    1  UNL1       -0.1673
     25 N           5.3371   -3.1321   20.2390 N.ar    1  UNL1       -0.2448
     26 C           6.3117   -2.2341   20.9417 C.3     1  UNL1        0.1727
     27 C           6.5735   -2.4127   22.4078 C.ar    1  UNL1        0.0837
     28 C           5.8809   -3.5064   23.1656 C.ar    1  UNL1        0.0176
     29 C           6.1428   -3.6850   24.6317 C.ar    1  UNL1        0.0142
     30 C           7.0973   -2.7699   25.3400 C.ar    1  UNL1        0.0768
     31 CL          7.3592   -2.9486   26.8061 Cl      1  UNL1       -0.0806
     32 C           7.7899   -1.6763   24.5822 C.ar    1  UNL1        0.1098
     33 N           7.5280   -1.4977   23.1161 N.ar    1  UNL1       -0.2453
@<TRIPOS>BOND
     1    11    12    2
     2    12    13    1
     3    13    14    2
     4    14    15   ar
     5    15    16   ar
     6    16    17   ar
     7    17     1    1
     8     1     2   ar
     9     2     3   ar
    10     3     4   ar
    11     4     5   ar
    12     5     6    1
    13     5     7   ar
    14     7     8   ar
    15     8    21    1
    16    21    22   ar
    17    22    23   ar
    18    23    24   ar
    19    24    25   ar
    20    25    26    1
    21    26    27    1
    22    27    28   ar
    23    28    29   ar
    24    29    30   ar
    25    30    31    1
    26    30    32   ar
    27    32    33   ar
    28     8     9   ar
    29     9    10   ar
    30    17    18   ar
    31    18    19   ar
    32    19    20    2
    33    20    12    1
    34    19    14   ar
    35    10     1   ar
    36    10     4   ar
    37    25    21   ar
    38    33    27   ar
@<TRIPOS>MOLECULE
*****
 33 38 0 0 0
SMALL
GASTEIGER

@<TRIPOS>ATOM
      1 N           2.7919    0.1326   24.9174 N.ar    1  UNL1       -0.2104
      2 N           3.2740    0.1531   26.3377 N.ar    1  UNL1       -0.0596
      3 N           4.3388   -0.8936   26.4809 N.ar    1  UNL1       -0.1276
      4 C           4.5147   -1.5611   25.1491 C.ar    1  UNL1        0.1326
      5 C           5.4219   -2.6645   24.6914 C.ar    1  UNL1        0.0786
      6 CL          6.3779   -3.2988   25.6578 Cl      1  UNL1       -0.0806
      7 C           5.3730   -3.1336   23.2676 C.ar    1  UNL1        0.0146
      8 C           4.4170   -2.4994   22.3013 C.ar    1  UNL1        0.0198
      9 C           3.5098   -1.3960   22.7589 C.ar    1  UNL1        0.0223
     10 C           3.5586   -0.9268   24.1828 C.ar    1  UNL1        0.1046
     11 O          -3.7097    4.4825   24.2608 O.2     1  UNL1       -0.2484
     12 C          -2.4243    3.7241   24.1110 C.2     1  UNL1        0.3478
     13 N          -1.5864    3.6456   22.8693 N.am    1  UNL1       -0.1594
     14 C          -0.3953    2.7840   23.1675 C.ar    1  UNL1        0.0904
     15 C           0.7688    2.3542   22.3248 C.ar    1  UNL1        0.0195
     16 C           1.8311    1.4705   22.9081 C.ar    1  UNL1        0.0206
     17 C           1.7294    1.0165   24.3341 C.ar    1  UNL1        0.0858
     18 C           0.5654    1.4462   25.1768 C.ar    1  UNL1        0.0372
     19 C          -0.4970    2.3300   24.5935 C.ar    1  UNL1        0.0918
     20 N          -1.7509    2.9110   25.1766 N.am    1  UNL1       -0.1593
     21 C           4.3682   -2.9686   20.8774 C.ar    1  UNL1        0.0799
     22 C           4.2018   -4.3880   20.4219 C.ar    1  UNL1        0.0412
     23 C           4.2080   -4.3973   18.9219 C.ar    1  UNL1        0.1217
     24 N           4.3784   -2.9836   18.4504 N.ar    1  UNL1       -0.1673
     25 N           4.4773   -2.1006   19.6589 N.ar    1  UNL1       -0.2448
     26 C           4.6544   -0.6111   19.6504 C.3     1  UNL1        0.1727
     27 C           3.5029    0.2790   19.2873 C.ar    1  UNL1        0.0837
     28 C           2.0977   -0.2374   19.3794 C.ar    1  UNL1        0.0176
     29 C           0.9462    0.6527   19.0163 C.ar    1  UNL1        0.0142
     30 C           1.2000    2.0593   18.5611 C.ar    1  UNL1        0.0768
     31 CL          0.0486    2.9494   18.1981 Cl      1  UNL1       -0.0806
     32 C           2.6053    2.5757   18.4691 C.ar    1  UNL1        0.1098
     33 N           3.7568    1.6855   18.8322 N.ar    1  UNL1       -0.2453
@<TRIPOS>BOND
     1    11    12    2
     2    12    13    1
     3    13    14    2
     4    14    15   ar
     5    15    16   ar
     6    16    17   ar
     7    17     1    1
     8     1     2   ar
     9     2     3   ar
    10     3     4   ar
    11     4     5   ar
    12     5     6    1
    13     5     7   ar
    14     7     8   ar
    15     8    21    1
    16    21    22   ar
    17    22    23   ar
    18    23    24   ar
    19    24    25   ar
    20    25    26    1
    21    26    27    1
    22    27    28   ar
    23    28    29   ar
    24    29    30   ar
    25    30    31    1
    26    30    32   ar
    27    32    33   ar
    28     8     9   ar
    29     9    10   ar
    30    17    18   ar
    31    18    19   ar
    32    19    20    2
    33    20    12    1
    34    19    14   ar
    35    10     1   ar
    36    10     4   ar
    37    25    21   ar
    38    33    27   ar
@<TRIPOS>MOLECULE
*****
 33 38 0 0 0
SMALL
GASTEIGER

@<TRIPOS>ATOM
      1 N           1.8631   -0.2341   20.4453 N.ar    1  UNL1       -0.2104
      2 N           0.3834   -0.2529   20.6907 N.ar    1  UNL1       -0.0596
      3 N          -0.2025    0.9885   20.0859 N.ar    1  UNL1       -0.1276
      4 C           0.9151    1.7744   19.4667 C.ar    1  UNL1        0.1326
      5 C           0.9353    3.0805   18.7294 C.ar    1  UNL1        0.0786
      6 CL         -0.3414    3.8361   18.5073 Cl      1  UNL1       -0.0806
      7 C           2.2319    3.6309   18.2141 C.ar    1  UNL1        0.0146
      8 C           3.5086    2.8753   18.4362 C.ar    1  UNL1        0.0198
      9 C           3.4884    1.5692   19.1736 C.ar    1  UNL1        0.0223
     10 C           2.1917    1.0188   19.6889 C.ar    1  UNL1        0.1046
     11 O           6.7486   -4.4213   24.9423 O.2     1  UNL1       -0.2484
     12 C           5.8889   -3.8083   23.8769 C.2     1  UNL1        0.3478
     13 N           5.7632   -4.2876   22.4611 N.am    1  UNL1       -0.1594
     14 C           4.8005   -3.3838   21.7494 C.ar    1  UNL1        0.0904
     15 C           4.2906   -3.3719   20.3388 C.ar    1  UNL1        0.0195
     16 C           3.3115   -2.3221   19.9041 C.ar    1  UNL1        0.0206
     17 C           2.8423   -1.2841   20.8800 C.ar    1  UNL1        0.0858
     18 C           3.3522   -1.2960   22.2906 C.ar    1  UNL1        0.0372
     19 C           4.3313   -2.3459   22.7253 C.ar    1  UNL1        0.0918
     20 N           5.0039   -2.6082   24.0401 N.am    1  UNL1       -0.1593
     21 C           4.8052    3.4258   17.9209 C.ar    1  UNL1        0.0799
     22 C           5.2722    4.8458   18.0462 C.ar    1  UNL1        0.0412
     23 C           6.6182    4.9505   17.3925 C.ar    1  UNL1        0.1217
     24 N           6.9832    3.5952   16.8633 N.ar    1  UNL1       -0.1673
     25 N           5.8627    2.6529   17.1898 N.ar    1  UNL1       -0.2448
     26 C           5.8091    1.1939   16.8458 C.3     1  UNL1        0.1727
     27 C           6.4312    0.1836   17.7635 C.ar    1  UNL1        0.0837
     28 C           6.9447    0.6072   19.1077 C.ar    1  UNL1        0.0176
     29 C           7.5667   -0.4032   20.0254 C.ar    1  UNL1        0.0142
     30 C           7.6752   -1.8372   19.5989 C.ar    1  UNL1        0.0768
     31 CL          8.2972   -2.8476   20.5167 Cl      1  UNL1       -0.0806
     32 C           7.1617   -2.2608   18.2548 C.ar    1  UNL1        0.1098
     33 N           6.5396   -1.2504   17.3370 N.ar    1  UNL1       -0.2453
@<TRIPOS>BOND
     1    11    12    2
     2    12    13    1
     3    13    14    2
     4    14    15   ar
     5    15    16   ar
     6    16    17   ar
     7    17     1    1
     8     1     2   ar
     9     2     3   ar
    10     3     4   ar
    11     4     5   ar
    12     5     6    1
    13     5     7   ar
    14     7     8   ar
    15     8    21    1
    16    21    22   ar
    17    22    23   ar
    18    23    24   ar
    19    24    25   ar
    20    25    26    1
    21    26    27    1
    22    27    28   ar
    23    28    29   ar
    24    29    30   ar
    25    30    31    1
    26    30    32   ar
    27    32    33   ar
    28     8     9   ar
    29     9    10   ar
    30    17    18   ar
    31    18    19   ar
    32    19    20    2
    33    20    12    1
    34    19    14   ar
    35    10     1   ar
    36    10     4   ar
    37    25    21   ar
    38    33    27   ar
@<TRIPOS>MOLECULE
*****
 33 38 0 0 0
SMALL
GASTEIGER

@<TRIPOS>ATOM
      1 N           2.4562   -0.4692   19.4655 N.ar    1  UNL1       -0.2104
      2 N           1.9385   -0.0230   18.1302 N.ar    1  UNL1       -0.0596
      3 N           0.9024    1.0360   18.3651 N.ar    1  UNL1       -0.1276
      4 C           0.7798    1.2442   19.8456 C.ar    1  UNL1        0.1326
      5 C          -0.0821    2.1606   20.6623 C.ar    1  UNL1        0.0786
      6 CL         -1.0425    3.0909   19.9822 Cl      1  UNL1       -0.0806
      7 C           0.0161    2.1469   22.1589 C.ar    1  UNL1        0.0146
      8 C           0.9765    1.2166   22.8390 C.ar    1  UNL1        0.0198
      9 C           1.8384    0.3001   22.0223 C.ar    1  UNL1        0.0223
     10 C           1.7401    0.3139   20.5256 C.ar    1  UNL1        0.1046
     11 O           9.3724   -3.8148   21.0770 O.2     1  UNL1       -0.2484
     12 C           7.9576   -3.4465   20.7411 C.2     1  UNL1        0.3478
     13 N           6.8417   -4.4062   20.4516 N.am    1  UNL1       -0.1594
     14 C           5.6048   -3.6067   20.1674 C.ar    1  UNL1        0.0904
     15 C           4.2039   -4.0147   19.8196 C.ar    1  UNL1        0.0195
     16 C           3.1544   -2.9689   19.5857 C.ar    1  UNL1        0.0206
     17 C           3.5058   -1.5151   19.6994 C.ar    1  UNL1        0.0858
     18 C           4.9067   -1.1071   20.0472 C.ar    1  UNL1        0.0372
     19 C           5.9562   -2.1529   20.2812 C.ar    1  UNL1        0.0918
     20 N           7.4103   -2.0539   20.6357 N.am    1  UNL1       -0.1593
     21 C           1.0747    1.2028   24.3357 C.ar    1  UNL1        0.0799
     22 C          -0.0723    1.3158   25.2958 C.ar    1  UNL1        0.0412
     23 C           0.4814    1.2565   26.6886 C.ar    1  UNL1        0.1217
     24 N           1.9706    1.1069   26.5893 N.ar    1  UNL1       -0.1673
     25 N           2.3373    1.0738   25.1353 N.ar    1  UNL1       -0.2448
     26 C           3.7233    0.9358   24.5784 C.3     1  UNL1        0.1727
     27 C           4.4526   -0.3696   24.6967 C.ar    1  UNL1        0.0837
     28 C           4.2384   -1.4439   23.6720 C.ar    1  UNL1        0.0176
     29 C           4.9677   -2.7493   23.7903 C.ar    1  UNL1        0.0142
     30 C           5.9112   -2.9804   24.9334 C.ar    1  UNL1        0.0768
     31 CL          6.6405   -4.2858   25.0517 Cl      1  UNL1       -0.0806
     32 C           6.1253   -1.9061   25.9581 C.ar    1  UNL1        0.1098
     33 N           5.3960   -0.6007   25.8397 N.ar    1  UNL1       -0.2453
@<TRIPOS>BOND
     1    11    12    2
     2    12    13    1
     3    13    14    2
     4    14    15   ar
     5    15    16   ar
     6    16    17   ar
     7    17     1    1
     8     1     2   ar
     9     2     3   ar
    10     3     4   ar
    11     4     5   ar
    12     5     6    1
    13     5     7   ar
    14     7     8   ar
    15     8    21    1
    16    21    22   ar
    17    22    23   ar
    18    23    24   ar
    19    24    25   ar
    20    25    26    1
    21    26    27    1
    22    27    28   ar
    23    28    29   ar
    24    29    30   ar
    25    30    31    1
    26    30    32   ar
    27    32    33   ar
    28     8     9   ar
    29     9    10   ar
    30    17    18   ar
    31    18    19   ar
    32    19    20    2
    33    20    12    1
    34    19    14   ar
    35    10     1   ar
    36    10     4   ar
    37    25    21   ar
    38    33    27   ar
