@<TRIPOS>MOLECULE
*****
 29 31 0 0 0
SMALL
GASTEIGER

@<TRIPOS>ATOM
      1 C         -13.6756  -18.4327   24.3502 C.ar    1  UNL1        0.1384
      2 C         -13.8252  -18.0388   22.9106 C.ar    1  UNL1        0.0366
      3 C         -12.6568  -18.1519   21.9767 C.ar    1  UNL1        0.0001
      4 C         -11.3388  -18.6589   22.4825 C.ar    1  UNL1       -0.0080
      5 C         -11.1892  -19.0528   23.9220 C.ar    1  UNL1       -0.0199
      6 C         -12.3576  -18.9397   24.8559 C.ar    1  UNL1        0.0324
      7 C          -9.8712  -19.5599   24.4278 C.3     1  UNL1        0.0477
      8 C          -8.7028  -19.6730   23.4940 C.3     1  UNL1        0.0984
      9 N          -8.8524  -19.2791   22.0543 N.am    1  UNL1       -0.2760
     10 C          -7.6841  -19.3922   21.1205 C.2     1  UNL1        0.2420
     11 O          -7.8336  -18.9983   19.6809 O.2     1  UNL1       -0.2734
     12 C         -10.1704  -18.7720   21.5486 C.3     1  UNL1        0.0975
     13 C         -10.3200  -18.3781   20.1091 C.3     1  UNL1        0.0224
     14 C         -10.4061  -19.4344   19.0475 C.3     1  UNL1        0.0021
     15 C         -10.3835  -16.9279   19.7310 C.3     1  UNL1        0.0021
     16 C         -14.6371  -18.4524   26.7637 C.3     1  UNL1        0.2525
     17 O         -14.8440  -18.3196   25.2840 O.3     1  UNL1       -0.4714
     18 C          -6.3660  -19.8993   21.6263 C.3     1  UNL1        0.1552
     19 N          -5.3777  -18.9463   22.2305 N.3     1  UNL1       -0.2879
     20 H          -5.7570  -18.6622   23.1338 H       1  UNL1        0.1238
     21 C          -3.9642  -19.3855   22.4732 C.3     1  UNL1        0.0961
     22 C          -2.8702  -18.9358   21.5509 C.3     1  UNL1        0.1027
     23 O          -3.0069  -20.3647   21.1155 O.3     1  UNL1       -0.3854
     24 C          -3.1134  -17.6631   22.3066 C.3     1  UNL1        0.0283
     25 C          -2.3100  -16.4369   21.9887 C.3     1  UNL1        0.0024
     26 C          -1.2635  -16.4833   20.9152 C.3     1  UNL1        0.0002
     27 C          -1.0203  -17.7560   20.1595 C.3     1  UNL1        0.0024
     28 C          -1.8237  -18.9822   20.4773 C.3     1  UNL1        0.0283
     29 H          -3.6990  -20.7975   21.6395 H       1  UNL1        0.2103
@<TRIPOS>BOND
     1    16    17    1
     2    17     1    1
     3     1     2   ar
     4     2     3   ar
     5     3     4   ar
     6     4     5   ar
     7     5     6   ar
     8     5     7    1
     9     7     8    1
    10     8     9    1
    11     9    10   am
    12    10    11    2
    13    10    18    1
    14    18    19    1
    15    19    21    1
    16    21    22    1
    17    22    23    1
    18    22    24    1
    19    24    25    1
    20    25    26    1
    21    26    27    1
    22    27    28    1
    23     9    12    1
    24    12    13    1
    25    13    14    1
    26    13    15    1
    27     6     1   ar
    28    28    22    1
    29    12     4    1
    30    19    20    1
    31    23    29    1
@<TRIPOS>MOLECULE
*****
 29 31 0 0 0
SMALL
GASTEIGER

@<TRIPOS>ATOM
      1 C          -1.5435  -18.6740   20.6108 C.ar    1  UNL1        0.1384
      2 C          -2.3091  -19.5161   19.6338 C.ar    1  UNL1        0.0366
      3 C          -3.7891  -19.6968   19.7978 C.ar    1  UNL1        0.0001
      4 C          -4.5035  -19.0355   20.9390 C.ar    1  UNL1       -0.0080
      5 C          -3.7379  -18.1934   21.9160 C.ar    1  UNL1       -0.0199
      6 C          -2.2579  -18.0127   21.7520 C.ar    1  UNL1        0.0324
      7 C          -4.4523  -17.5320   23.0573 C.3     1  UNL1        0.0477
      8 C          -5.9323  -17.7128   23.2213 C.3     1  UNL1        0.0984
      9 N          -6.6979  -18.5550   22.2442 N.am    1  UNL1       -0.2760
     10 C          -8.1779  -18.7357   22.4083 C.2     1  UNL1        0.2420
     11 O          -8.9435  -19.5778   21.4312 O.2     1  UNL1       -0.2734
     12 C          -5.9835  -19.2163   21.1031 C.3     1  UNL1        0.0975
     13 C          -6.7491  -20.0584   20.1260 C.3     1  UNL1        0.0224
     14 C          -7.6767  -19.4093   19.1420 C.3     1  UNL1        0.0021
     15 C          -6.5873  -21.5496   20.1330 C.3     1  UNL1        0.0021
     16 C           0.4882  -17.1606   20.0350 C.3     1  UNL1        0.2525
     17 O          -0.0635  -18.4932   20.4467 O.3     1  UNL1       -0.4714
     18 C          -8.8923  -18.0743   23.5495 C.3     1  UNL1        0.1552
     19 N          -9.5645  -16.7488   23.3464 N.3     1  UNL1       -0.2879
     20 H         -10.5679  -16.9293   23.3147 H       1  UNL1        0.1238
     21 C          -9.3546  -15.6419   24.3366 C.3     1  UNL1        0.0961
     22 C          -7.9795  -15.3586   24.8646 C.3     1  UNL1        0.1027
     23 O          -7.8394  -14.8211   23.4712 O.3     1  UNL1       -0.3854
     24 C          -8.5972  -15.9946   26.0745 C.3     1  UNL1        0.0283
     25 C          -7.7911  -16.1606   27.3286 C.3     1  UNL1        0.0024
     26 C          -6.3674  -15.6906   27.3728 C.3     1  UNL1        0.0002
     27 C          -5.7496  -15.0547   26.1628 C.3     1  UNL1        0.0024
     28 C          -6.5557  -14.8887   24.9087 C.3     1  UNL1        0.0283
     29 H          -8.6756  -14.9384   22.9938 H       1  UNL1        0.2103
@<TRIPOS>BOND
     1    16    17    1
     2    17     1    1
     3     1     2   ar
     4     2     3   ar
     5     3     4   ar
     6     4     5   ar
     7     5     6   ar
     8     5     7    1
     9     7     8    1
    10     8     9    1
    11     9    10   am
    12    10    11    2
    13    10    18    1
    14    18    19    1
    15    19    21    1
    16    21    22    1
    17    22    23    1
    18    22    24    1
    19    24    25    1
    20    25    26    1
    21    26    27    1
    22    27    28    1
    23     9    12    1
    24    12    13    1
    25    13    14    1
    26    13    15    1
    27     6     1   ar
    28    28    22    1
    29    12     4    1
    30    19    20    1
    31    23    29    1
@<TRIPOS>MOLECULE
*****
 29 31 0 0 0
SMALL
GASTEIGER

@<TRIPOS>ATOM
      1 C          -2.4759  -18.4689   21.6517 C.ar    1  UNL1        0.1384
      2 C          -2.6416  -17.1461   22.3391 C.ar    1  UNL1        0.0366
      3 C          -3.9713  -16.7628   22.9177 C.ar    1  UNL1        0.0001
      4 C          -5.1355  -17.7024   22.8089 C.ar    1  UNL1       -0.0080
      5 C          -4.9698  -19.0253   22.1215 C.ar    1  UNL1       -0.0199
      6 C          -3.6401  -19.4085   21.5429 C.ar    1  UNL1        0.0324
      7 C          -6.1340  -19.9649   22.0126 C.3     1  UNL1        0.0477
      8 C          -7.4638  -19.5817   22.5912 C.3     1  UNL1        0.0984
      9 N          -7.6294  -18.2588   23.2787 N.am    1  UNL1       -0.2760
     10 C          -8.9592  -17.8755   23.8573 C.2     1  UNL1        0.2420
     11 O          -9.1249  -16.5527   24.5447 O.2     1  UNL1       -0.2734
     12 C          -6.4653  -17.3192   23.3875 C.3     1  UNL1        0.0975
     13 C          -6.6309  -15.9963   24.0749 C.3     1  UNL1        0.0224
     14 C          -6.2463  -15.8471   25.5171 C.3     1  UNL1        0.0021
     15 C          -7.1813  -14.8226   23.3202 C.3     1  UNL1        0.0021
     16 C          -0.5685  -18.0646   19.9346 C.3     1  UNL1        0.2525
     17 O          -1.1461  -18.8522   21.0731 O.3     1  UNL1       -0.4714
     18 C         -10.1234  -18.8152   23.7484 C.3     1  UNL1        0.1552
     19 N         -11.4719  -18.4008   24.2581 N.3     1  UNL1       -0.2879
     20 H         -11.3227  -17.5925   24.8621 H       1  UNL1        0.1238
     21 C         -12.5559  -18.0250   23.2918 C.3     1  UNL1        0.0961
     22 C         -12.2176  -17.2650   22.0436 C.3     1  UNL1        0.1027
     23 O         -12.7308  -16.1451   22.8995 O.3     1  UNL1       -0.3854
     24 C         -11.8219  -18.6488   21.6213 C.3     1  UNL1        0.0283
     25 C         -11.2661  -18.8837   20.2480 C.3     1  UNL1        0.0024
     26 C         -11.1061  -17.7348   19.2970 C.3     1  UNL1        0.0002
     27 C         -11.5018  -16.3509   19.7194 C.3     1  UNL1        0.0024
     28 C         -12.0576  -16.1161   21.0927 C.3     1  UNL1        0.0283
     29 H         -12.9957  -16.4947   23.7647 H       1  UNL1        0.2103
@<TRIPOS>BOND
     1    16    17    1
     2    17     1    1
     3     1     2   ar
     4     2     3   ar
     5     3     4   ar
     6     4     5   ar
     7     5     6   ar
     8     5     7    1
     9     7     8    1
    10     8     9    1
    11     9    10   am
    12    10    11    2
    13    10    18    1
    14    18    19    1
    15    19    21    1
    16    21    22    1
    17    22    23    1
    18    22    24    1
    19    24    25    1
    20    25    26    1
    21    26    27    1
    22    27    28    1
    23     9    12    1
    24    12    13    1
    25    13    14    1
    26    13    15    1
    27     6     1   ar
    28    28    22    1
    29    12     4    1
    30    19    20    1
    31    23    29    1
@<TRIPOS>MOLECULE
*****
 29 31 0 0 0
SMALL
GASTEIGER

@<TRIPOS>ATOM
      1 C           0.8807    0.5351   21.3191 C.ar    1  UNL1        0.1384
      2 C           0.9040   -0.2676   20.0522 C.ar    1  UNL1        0.0366
      3 C           1.9935   -1.2723   19.8209 C.ar    1  UNL1        0.0001
      4 C           3.0596   -1.4744   20.8565 C.ar    1  UNL1       -0.0080
      5 C           3.0363   -0.6717   22.1234 C.ar    1  UNL1       -0.0199
      6 C           1.9468    0.3331   22.3547 C.ar    1  UNL1        0.0324
      7 C           4.1025   -0.8737   23.1590 C.3     1  UNL1        0.0477
      8 C           5.1919   -1.8784   22.9277 C.3     1  UNL1        0.0984
      9 N           5.2152   -2.6812   21.6607 N.am    1  UNL1       -0.2760
     10 C           6.3047   -3.6859   21.4294 C.2     1  UNL1        0.2420
     11 O           6.3281   -4.4886   20.1625 O.2     1  UNL1       -0.2734
     12 C           4.1491   -2.4791   20.6252 C.3     1  UNL1        0.0975
     13 C           4.1724   -3.2818   19.3583 C.3     1  UNL1        0.0224
     14 C           3.4243   -4.5795   19.2787 C.3     1  UNL1        0.0021
     15 C           4.9439   -2.7869   18.1708 C.3     1  UNL1        0.0021
     16 C          -0.5245    2.5598   20.4969 C.3     1  UNL1        0.2525
     17 O          -0.2088    1.5399   21.5504 O.3     1  UNL1       -0.4714
     18 C           7.3709   -3.8879   22.4651 C.3     1  UNL1        0.1552
     19 N           7.3113   -5.0740   23.3814 N.3     1  UNL1       -0.2879
     20 H           8.1683   -5.6061   23.2305 H       1  UNL1        0.1238
     21 C           7.1820   -4.8722   24.8621 C.3     1  UNL1        0.0961
     22 C           7.4013   -6.0237   25.7980 C.3     1  UNL1        0.1027
     23 O           6.2503   -5.3474   26.4822 O.3     1  UNL1       -0.3854
     24 C           8.4760   -6.2999   24.7888 C.3     1  UNL1        0.0283
     25 C           9.3704   -7.4929   24.9531 C.3     1  UNL1        0.0024
     26 C           9.1900   -8.4096   26.1266 C.3     1  UNL1        0.0002
     27 C           8.1152   -8.1333   27.1358 C.3     1  UNL1        0.0024
     28 C           7.2209   -6.9403   26.9715 C.3     1  UNL1        0.0283
     29 H           5.9902   -4.5615   25.9766 H       1  UNL1        0.2103
@<TRIPOS>BOND
     1    16    17    1
     2    17     1    1
     3     1     2   ar
     4     2     3   ar
     5     3     4   ar
     6     4     5   ar
     7     5     6   ar
     8     5     7    1
     9     7     8    1
    10     8     9    1
    11     9    10   am
    12    10    11    2
    13    10    18    1
    14    18    19    1
    15    19    21    1
    16    21    22    1
    17    22    23    1
    18    22    24    1
    19    24    25    1
    20    25    26    1
    21    26    27    1
    22    27    28    1
    23     9    12    1
    24    12    13    1
    25    13    14    1
    26    13    15    1
    27     6     1   ar
    28    28    22    1
    29    12     4    1
    30    19    20    1
    31    23    29    1
@<TRIPOS>MOLECULE
*****
 29 31 0 0 0
SMALL
GASTEIGER

@<TRIPOS>ATOM
      1 C          -5.8004  -15.5340   24.8520 C.ar    1  UNL1        0.1384
      2 C          -4.8520  -16.6205   24.4397 C.ar    1  UNL1        0.0366
      3 C          -5.2380  -17.5808   23.3540 C.ar    1  UNL1        0.0001
      4 C          -6.5723  -17.4546   22.6805 C.ar    1  UNL1       -0.0080
      5 C          -7.5207  -16.3681   23.0928 C.ar    1  UNL1       -0.0199
      6 C          -7.1347  -15.4078   24.1785 C.ar    1  UNL1        0.0324
      7 C          -8.8551  -16.2418   22.4193 C.3     1  UNL1        0.0477
      8 C          -9.2411  -17.2021   21.3336 C.3     1  UNL1        0.0984
      9 N          -8.2926  -18.2887   20.9213 N.am    1  UNL1       -0.2760
     10 C          -8.6786  -19.2490   19.8356 C.2     1  UNL1        0.2420
     11 O          -7.7302  -20.3355   19.4233 O.2     1  UNL1       -0.2734
     12 C          -6.9583  -18.4149   21.5948 C.3     1  UNL1        0.0975
     13 C          -6.0099  -19.5014   21.1825 C.3     1  UNL1        0.0224
     14 C          -6.0806  -20.8479   21.8397 C.3     1  UNL1        0.0021
     15 C          -4.9908  -19.2414   20.1130 C.3     1  UNL1        0.0021
     16 C          -6.1783  -14.5544   27.2285 C.3     1  UNL1        0.2525
     17 O          -5.4144  -14.5736   25.9377 O.3     1  UNL1       -0.4714
     18 C         -10.0130  -19.1228   19.1621 C.3     1  UNL1        0.1552
     19 N         -11.2733  -19.2337   19.9680 N.3     1  UNL1       -0.2879
     20 H         -11.9818  -19.6340   19.3530 H       1  UNL1        0.1238
     21 C         -11.2876  -20.0442   21.2301 C.3     1  UNL1        0.0961
     22 C         -11.3200  -19.3565   22.5627 C.3     1  UNL1        0.1027
     23 O         -12.4123  -18.6088   21.8571 O.3     1  UNL1       -0.3854
     24 C         -10.2165  -20.3430   22.8055 C.3     1  UNL1        0.0283
     25 C          -9.5248  -20.3822   24.1359 C.3     1  UNL1        0.0024
     26 C          -9.9365  -19.4348   25.2235 C.3     1  UNL1        0.0002
     27 C         -11.0400  -18.4483   24.9807 C.3     1  UNL1        0.0024
     28 C         -11.7318  -18.4091   23.6503 C.3     1  UNL1        0.0283
     29 H         -12.5102  -18.9538   20.9558 H       1  UNL1        0.2103
@<TRIPOS>BOND
     1    16    17    1
     2    17     1    1
     3     1     2   ar
     4     2     3   ar
     5     3     4   ar
     6     4     5   ar
     7     5     6   ar
     8     5     7    1
     9     7     8    1
    10     8     9    1
    11     9    10   am
    12    10    11    2
    13    10    18    1
    14    18    19    1
    15    19    21    1
    16    21    22    1
    17    22    23    1
    18    22    24    1
    19    24    25    1
    20    25    26    1
    21    26    27    1
    22    27    28    1
    23     9    12    1
    24    12    13    1
    25    13    14    1
    26    13    15    1
    27     6     1   ar
    28    28    22    1
    29    12     4    1
    30    19    20    1
    31    23    29    1
@<TRIPOS>MOLECULE
*****
 29 31 0 0 0
SMALL
GASTEIGER

@<TRIPOS>ATOM
      1 C         -13.7269  -18.5695   24.5247 C.ar    1  UNL1        0.1384
      2 C         -13.9272  -18.2116   23.0819 C.ar    1  UNL1        0.0366
      3 C         -12.7641  -18.2349   22.1349 C.ar    1  UNL1        0.0001
      4 C         -11.4008  -18.6162   22.6307 C.ar    1  UNL1       -0.0080
      5 C         -11.2005  -18.9740   24.0736 C.ar    1  UNL1       -0.0199
      6 C         -12.3635  -18.9507   25.0205 C.ar    1  UNL1        0.0324
      7 C          -9.8371  -19.3553   24.5695 C.3     1  UNL1        0.0477
      8 C          -8.6740  -19.3787   23.6225 C.3     1  UNL1        0.0984
      9 N          -8.8744  -19.0208   22.1796 N.am    1  UNL1       -0.2760
     10 C          -7.7113  -19.0441   21.2326 C.2     1  UNL1        0.2420
     11 O          -7.9116  -18.6862   19.7898 O.2     1  UNL1       -0.2734
     12 C         -10.2377  -18.6395   21.6838 C.3     1  UNL1        0.0975
     13 C         -10.4380  -18.2816   20.2410 C.3     1  UNL1        0.0224
     14 C         -10.5414  -19.3636   19.2072 C.3     1  UNL1        0.0021
     15 C         -10.5349  -16.8417   19.8318 C.3     1  UNL1        0.0021
     16 C         -14.6730  -18.2123   26.9179 C.3     1  UNL1        0.2525
     17 O         -14.8899  -18.5461   25.4717 O.3     1  UNL1       -0.4714
     18 C          -6.3479  -19.4254   21.7285 C.3     1  UNL1        0.1552
     19 N          -5.4659  -18.3930   22.3659 N.3     1  UNL1       -0.2879
     20 H          -4.6483  -18.2923   21.7643 H       1  UNL1        0.1238
     21 C          -5.9907  -17.0107   22.6182 C.3     1  UNL1        0.0961
     22 C          -5.7674  -16.3548   23.9486 C.3     1  UNL1        0.1027
     23 O          -4.3483  -16.4831   23.4799 O.3     1  UNL1       -0.3854
     24 C          -7.2641  -16.4543   23.9552 C.3     1  UNL1        0.0283
     25 C          -8.0446  -15.9426   25.1295 C.3     1  UNL1        0.0024
     26 C          -7.3284  -15.3313   26.2971 C.3     1  UNL1        0.0002
     27 C          -5.8317  -15.2318   26.2906 C.3     1  UNL1        0.0024
     28 C          -5.0512  -15.7436   25.1162 C.3     1  UNL1        0.0283
     29 H          -4.3332  -16.9030   22.6056 H       1  UNL1        0.2103
@<TRIPOS>BOND
     1    16    17    1
     2    17     1    1
     3     1     2   ar
     4     2     3   ar
     5     3     4   ar
     6     4     5   ar
     7     5     6   ar
     8     5     7    1
     9     7     8    1
    10     8     9    1
    11     9    10   am
    12    10    11    2
    13    10    18    1
    14    18    19    1
    15    19    21    1
    16    21    22    1
    17    22    23    1
    18    22    24    1
    19    24    25    1
    20    25    26    1
    21    26    27    1
    22    27    28    1
    23     9    12    1
    24    12    13    1
    25    13    14    1
    26    13    15    1
    27     6     1   ar
    28    28    22    1
    29    12     4    1
    30    19    20    1
    31    23    29    1
@<TRIPOS>MOLECULE
*****
 29 31 0 0 0
SMALL
GASTEIGER

@<TRIPOS>ATOM
      1 C          -5.7815  -15.4163   25.3611 C.ar    1  UNL1        0.1384
      2 C          -4.4856  -16.0571   24.9612 C.ar    1  UNL1        0.0366
      3 C          -4.4525  -17.0380   23.8268 C.ar    1  UNL1        0.0001
      4 C          -5.7153  -17.3780   23.0923 C.ar    1  UNL1       -0.0080
      5 C          -7.0113  -16.7372   23.4922 C.ar    1  UNL1       -0.0199
      6 C          -7.0443  -15.7564   24.6265 C.ar    1  UNL1        0.0324
      7 C          -8.2742  -17.0773   22.7577 C.3     1  UNL1        0.0477
      8 C          -8.2411  -18.0582   21.6233 C.3     1  UNL1        0.0984
      9 N          -6.9451  -18.6990   21.2234 N.am    1  UNL1       -0.2760
     10 C          -6.9120  -19.6799   20.0891 C.2     1  UNL1        0.2420
     11 O          -5.6161  -20.3207   19.6892 O.2     1  UNL1       -0.2734
     12 C          -5.6823  -18.3589   21.9579 C.3     1  UNL1        0.0975
     13 C          -4.3863  -18.9997   21.5581 C.3     1  UNL1        0.0224
     14 C          -3.9150  -20.2394   22.2588 C.3     1  UNL1        0.0021
     15 C          -3.5617  -18.4008   20.4575 C.3     1  UNL1        0.0021
     16 C          -6.7593  -14.6457   27.6414 C.3     1  UNL1        0.2525
     17 O          -5.8146  -14.4354   26.4954 O.3     1  UNL1       -0.4714
     18 C          -8.1749  -20.0199   19.3545 C.3     1  UNL1        0.1552
     19 N          -9.2666  -18.9991   19.2272 N.3     1  UNL1       -0.2879
     20 H          -9.2857  -18.7088   18.2496 H       1  UNL1        0.1238
     21 C         -10.6747  -19.3563   19.6005 C.3     1  UNL1        0.0961
     22 C         -11.2880  -18.7871   20.8454 C.3     1  UNL1        0.1027
     23 O         -11.0494  -20.1984   21.2943 O.3     1  UNL1       -0.3854
     24 C         -11.3136  -17.5736   19.9642 C.3     1  UNL1        0.0283
     25 C         -11.8697  -16.2810   20.4838 C.3     1  UNL1        0.0024
     26 C         -12.4001  -16.2019   21.8846 C.3     1  UNL1        0.0002
     27 C         -12.3745  -17.4155   22.7659 C.3     1  UNL1        0.0024
     28 C         -11.8185  -18.7081   22.2463 C.3     1  UNL1        0.0283
     29 H         -10.6440  -20.7032   20.5720 H       1  UNL1        0.2103
@<TRIPOS>BOND
     1    16    17    1
     2    17     1    1
     3     1     2   ar
     4     2     3   ar
     5     3     4   ar
     6     4     5   ar
     7     5     6   ar
     8     5     7    1
     9     7     8    1
    10     8     9    1
    11     9    10   am
    12    10    11    2
    13    10    18    1
    14    18    19    1
    15    19    21    1
    16    21    22    1
    17    22    23    1
    18    22    24    1
    19    24    25    1
    20    25    26    1
    21    26    27    1
    22    27    28    1
    23     9    12    1
    24    12    13    1
    25    13    14    1
    26    13    15    1
    27     6     1   ar
    28    28    22    1
    29    12     4    1
    30    19    20    1
    31    23    29    1
@<TRIPOS>MOLECULE
*****
 29 31 0 0 0
SMALL
GASTEIGER

@<TRIPOS>ATOM
      1 C           0.5497    0.8210   20.7966 C.ar    1  UNL1        0.1384
      2 C           0.8389    0.0801   19.5249 C.ar    1  UNL1        0.0366
      3 C           1.9145   -0.9648   19.4936 C.ar    1  UNL1        0.0001
      4 C           2.7011   -1.2689   20.7341 C.ar    1  UNL1       -0.0080
      5 C           2.4119   -0.5280   22.0059 C.ar    1  UNL1       -0.0199
      6 C           1.3363    0.5169   22.0371 C.ar    1  UNL1        0.0324
      7 C           3.1985   -0.8321   23.2464 C.3     1  UNL1        0.0477
      8 C           4.2741   -1.8771   23.2152 C.3     1  UNL1        0.0984
      9 N           4.5632   -2.6180   21.9433 N.am    1  UNL1       -0.2760
     10 C           5.6389   -3.6630   21.9120 C.2     1  UNL1        0.2420
     11 O           5.9280   -4.4039   20.6403 O.2     1  UNL1       -0.2734
     12 C           3.7767   -2.3139   20.7028 C.3     1  UNL1        0.0975
     13 C           4.0658   -3.0548   19.4310 C.3     1  UNL1        0.0224
     14 C           5.0925   -2.5277   18.4728 C.3     1  UNL1        0.0021
     15 C           3.3283   -4.3228   19.1175 C.3     1  UNL1        0.0021
     16 C          -0.3945    3.1030   19.9897 C.3     1  UNL1        0.2525
     17 O          -0.5259    1.8660   20.8279 O.3     1  UNL1       -0.4714
     18 C           6.4254   -3.9670   23.1526 C.3     1  UNL1        0.1552
     19 N           7.4752   -5.0383   23.1313 N.3     1  UNL1       -0.2879
     20 H           8.3535   -4.5850   22.8795 H       1  UNL1        0.1238
     21 C           7.7443   -5.8492   24.3642 C.3     1  UNL1        0.0961
     22 C           8.2364   -5.1768   25.6115 C.3     1  UNL1        0.1027
     23 O           9.3495   -4.8251   24.6695 O.3     1  UNL1       -0.3854
     24 C           6.9524   -5.7621   26.1203 C.3     1  UNL1        0.0283
     25 C           6.5471   -5.5528   27.5493 C.3     1  UNL1        0.0024
     26 C           7.4257   -4.7583   28.4694 C.3     1  UNL1        0.0002
     27 C           8.7097   -4.1731   27.9606 C.3     1  UNL1        0.0024
     28 C           9.1150   -4.3823   26.5316 C.3     1  UNL1        0.0283
     29 H           9.1651   -5.2033   23.7955 H       1  UNL1        0.2103
@<TRIPOS>BOND
     1    16    17    1
     2    17     1    1
     3     1     2   ar
     4     2     3   ar
     5     3     4   ar
     6     4     5   ar
     7     5     6   ar
     8     5     7    1
     9     7     8    1
    10     8     9    1
    11     9    10   am
    12    10    11    2
    13    10    18    1
    14    18    19    1
    15    19    21    1
    16    21    22    1
    17    22    23    1
    18    22    24    1
    19    24    25    1
    20    25    26    1
    21    26    27    1
    22    27    28    1
    23     9    12    1
    24    12    13    1
    25    13    14    1
    26    13    15    1
    27     6     1   ar
    28    28    22    1
    29    12     4    1
    30    19    20    1
    31    23    29    1
@<TRIPOS>MOLECULE
*****
 29 31 0 0 0
SMALL
GASTEIGER

@<TRIPOS>ATOM
      1 C           4.2133   -2.5933   21.2631 C.ar    1  UNL1        0.1384
      2 C           4.2090   -1.9707   22.6277 C.ar    1  UNL1        0.0366
      3 C           3.2917   -0.8218   22.9250 C.ar    1  UNL1        0.0001
      4 C           2.3787   -0.2954   21.8576 C.ar    1  UNL1       -0.0080
      5 C           2.3830   -0.9180   20.4930 C.ar    1  UNL1       -0.0199
      6 C           3.3003   -2.0670   20.1957 C.ar    1  UNL1        0.0324
      7 C           1.4700   -0.3916   19.4255 C.3     1  UNL1        0.0477
      8 C           0.5527    0.7574   19.7228 C.3     1  UNL1        0.0984
      9 N           0.5484    1.3800   21.0876 N.am    1  UNL1       -0.2760
     10 C          -0.3689    2.5290   21.3849 C.2     1  UNL1        0.2420
     11 O          -0.3732    3.1516   22.7495 O.2     1  UNL1       -0.2734
     12 C           1.4614    0.8536   22.1549 C.3     1  UNL1        0.0975
     13 C           1.4571    1.4762   23.5196 C.3     1  UNL1        0.0224
     14 C           0.5229    0.9632   24.5751 C.3     1  UNL1        0.0021
     15 C           2.3870    2.6119   23.8288 C.3     1  UNL1        0.0021
     16 C           6.3563   -3.5263   20.1285 C.3     1  UNL1        0.2525
     17 O           5.1306   -3.7423   20.9658 O.3     1  UNL1       -0.4714
     18 C          -1.2819    3.0554   20.3174 C.3     1  UNL1        0.1552
     19 N          -2.7592    2.8114   20.4068 N.3     1  UNL1       -0.2879
     20 H          -2.8855    1.9745   20.9761 H       1  UNL1        0.1238
     21 C          -3.6601    3.8649   20.9798 C.3     1  UNL1        0.0961
     22 C          -4.2933    3.6601   22.3241 C.3     1  UNL1        0.1027
     23 O          -4.7124    2.3913   21.6427 O.3     1  UNL1       -0.3854
     24 C          -3.6543    5.0001   22.5386 C.3     1  UNL1        0.0283
     25 C          -3.7940    5.6947   23.8608 C.3     1  UNL1        0.0024
     26 C          -4.5728    5.0492   24.9684 C.3     1  UNL1        0.0002
     27 C          -5.2118    3.7092   24.7539 C.3     1  UNL1        0.0024
     28 C          -5.0720    3.0146   23.4317 C.3     1  UNL1        0.0283
     29 H          -4.3656    2.3810   20.7369 H       1  UNL1        0.2103
@<TRIPOS>BOND
     1    16    17    1
     2    17     1    1
     3     1     2   ar
     4     2     3   ar
     5     3     4   ar
     6     4     5   ar
     7     5     6   ar
     8     5     7    1
     9     7     8    1
    10     8     9    1
    11     9    10   am
    12    10    11    2
    13    10    18    1
    14    18    19    1
    15    19    21    1
    16    21    22    1
    17    22    23    1
    18    22    24    1
    19    24    25    1
    20    25    26    1
    21    26    27    1
    22    27    28    1
    23     9    12    1
    24    12    13    1
    25    13    14    1
    26    13    15    1
    27     6     1   ar
    28    28    22    1
    29    12     4    1
    30    19    20    1
    31    23    29    1
