@<TRIPOS>MOLECULE
*****
 36 39 0 0 0
SMALL
GASTEIGER

@<TRIPOS>ATOM
      1 C         -10.8358  -18.3379   25.0164 C.3     1  UNL1        0.1153
      2 N          -9.6827  -18.2493   24.0610 N.am    1  UNL1       -0.2714
      3 C          -9.2524  -19.4620   23.2903 C.2     1  UNL1        0.2661
      4 O          -9.9751  -20.7634   23.4749 O.2     1  UNL1       -0.2710
      5 C          -8.0993  -19.3734   22.3349 C.3     1  UNL1        0.2415
      6 C          -8.3500  -19.3593   20.8561 C.3     1  UNL1        0.0579
      7 C          -7.1969  -19.2706   19.9009 C.3     1  UNL1        0.0337
      8 C          -5.7932  -19.1961   20.4244 C.ar    1  UNL1        0.0117
      9 C          -4.6402  -19.1075   19.4690 C.ar    1  UNL1       -0.0041
     10 C          -3.2365  -19.0330   19.9926 C.ar    1  UNL1       -0.0049
     11 C          -2.9859  -19.0471   21.4715 C.ar    1  UNL1        0.0002
     12 C          -4.1389  -19.1357   22.4267 C.ar    1  UNL1        0.0363
     13 C          -5.5426  -19.2102   21.9032 C.ar    1  UNL1        0.1350
     14 O          -6.6956  -19.2989   22.8585 O.3     1  UNL1       -0.4703
     15 C          -2.0834  -18.9443   19.0373 C.3     1  UNL1        0.1173
     16 N          -1.2222  -17.7163   19.0130 N.3     1  UNL1       -0.1788
     17 H          -1.8262  -16.9285   19.2473 H       1  UNL1        0.1488
     18 S          -0.0226  -17.6238   19.9087 S.O2    1  UNL1        0.0429
     19 C           1.1770  -17.5312   20.8044 C.3     1  UNL1        0.1957
     20 O          -0.4212  -16.2313   20.2986 O.2     1  UNL1       -0.1574
     21 O           0.3759  -19.0163   19.5189 O.2     1  UNL1       -0.1574
     22 C          -8.9601  -16.9479   23.8764 C.3     1  UNL1        0.1139
     23 C          -8.1464  -16.3760   24.9994 C.ar    1  UNL1       -0.0029
     24 C          -6.8079  -15.7602   24.7178 C.ar    1  UNL1       -0.0026
     25 C          -5.9943  -15.1883   25.8406 C.ar    1  UNL1       -0.0003
     26 C          -6.5191  -15.2323   27.2451 C.ar    1  UNL1       -0.0000
     27 C          -7.8575  -15.8481   27.5267 C.ar    1  UNL1       -0.0003
     28 C          -8.6712  -16.4199   26.4039 C.ar    1  UNL1       -0.0026
     29 C          -9.0510  -16.2184   22.5690 C.3     1  UNL1        0.0968
     30 N         -10.3420  -16.2060   21.8053 N.3     1  UNL1       -0.2689
     31 C         -11.6605  -16.7282   22.2939 C.3     1  UNL1        0.0748
     32 C         -12.6746  -16.5142   21.2094 C.3     1  UNL1        0.0480
     33 C         -11.9827  -15.8596   20.0506 C.3     1  UNL1        0.1278
     34 O         -12.6204  -15.4649   18.7516 O.3     1  UNL1       -0.3830
     35 C         -10.5411  -15.6692   20.4188 C.3     1  UNL1        0.1017
     36 H         -11.9540  -15.0614   18.1737 H       1  UNL1        0.2104
@<TRIPOS>BOND
     1     1     2    1
     2     2     3   am
     3     3     4    2
     4     5     3    1
     5     5     6    1
     6     6     7    1
     7     7     8    1
     8     8     9   ar
     9     9    10   ar
    10    10    15    1
    11    15    16    1
    12    16    18    1
    13    18    19    1
    14    18    20    2
    15    18    21    2
    16    10    11   ar
    17    11    12   ar
    18    12    13   ar
    19    13    14    1
    20     2    22    1
    21    22    29    1
    22    29    30    1
    23    30    31    1
    24    31    32    1
    25    32    33    1
    26    33    34    1
    27    33    35    1
    28    22    23    1
    29    23    24   ar
    30    24    25   ar
    31    25    26   ar
    32    26    27   ar
    33    27    28   ar
    34    14     5    1
    35    35    30    1
    36    28    23   ar
    37    13     8   ar
    38    16    17    1
    39    34    36    1
@<TRIPOS>MOLECULE
*****
 36 39 0 0 0
SMALL
GASTEIGER

@<TRIPOS>ATOM
      1 C         -12.0794  -18.5875   24.8043 C.3     1  UNL1        0.1153
      2 N         -10.9306  -18.4343   23.8520 N.am    1  UNL1       -0.2714
      3 C         -10.1894  -19.6459   23.3698 C.2     1  UNL1        0.2661
      4 O         -10.5970  -21.0108   23.8399 O.2     1  UNL1       -0.2710
      5 C          -9.0406  -19.4927   22.4174 C.3     1  UNL1        0.2415
      6 C          -9.2987  -19.1523   20.9796 C.3     1  UNL1        0.0579
      7 C          -8.1500  -18.9991   20.0273 C.3     1  UNL1        0.0337
      8 C          -6.7431  -19.1864   20.5129 C.ar    1  UNL1        0.0117
      9 C          -5.5944  -19.0332   19.5606 C.ar    1  UNL1       -0.0041
     10 C          -4.1875  -19.2204   20.0461 C.ar    1  UNL1       -0.0049
     11 C          -3.9295  -19.5609   21.4841 C.ar    1  UNL1        0.0002
     12 C          -5.0782  -19.7141   22.4363 C.ar    1  UNL1        0.0363
     13 C          -6.4851  -19.5268   21.9508 C.ar    1  UNL1        0.1350
     14 O          -7.6338  -19.6800   22.9030 O.3     1  UNL1       -0.4703
     15 C          -3.0388  -19.0672   19.0939 C.3     1  UNL1        0.1173
     16 N          -2.1538  -17.8588   19.1745 N.3     1  UNL1       -0.1788
     17 H          -2.5724  -17.1467   18.5761 H       1  UNL1        0.1488
     18 S          -1.8900  -17.2094   20.5006 S.O2    1  UNL1        0.0429
     19 C          -1.6263  -16.5600   21.8268 C.3     1  UNL1        0.1957
     20 O          -0.8788  -18.2705   20.8191 O.2     1  UNL1       -0.1574
     21 O          -2.9013  -16.1483   20.1822 O.2     1  UNL1       -0.1574
     22 C         -10.5231  -17.0694   23.3818 C.3     1  UNL1        0.1139
     23 C         -10.8478  -16.6293   21.9851 C.ar    1  UNL1       -0.0029
     24 C         -12.0399  -17.2012   21.2766 C.ar    1  UNL1       -0.0026
     25 C         -12.3646  -16.7611   19.8799 C.ar    1  UNL1       -0.0003
     26 C         -11.4973  -15.7493   19.1916 C.ar    1  UNL1       -0.0000
     27 C         -10.3052  -15.1774   19.9001 C.ar    1  UNL1       -0.0003
     28 C          -9.9804  -15.6175   21.2968 C.ar    1  UNL1       -0.0026
     29 C          -9.7909  -16.1446   24.3084 C.3     1  UNL1        0.0968
     30 N          -8.2910  -16.1264   24.3191 N.3     1  UNL1       -0.2689
     31 C          -7.3971  -16.4367   23.1552 C.3     1  UNL1        0.0748
     32 C          -5.9754  -16.2968   23.6124 C.3     1  UNL1        0.0480
     33 C          -5.9905  -15.8999   25.0589 C.3     1  UNL1        0.1278
     34 O          -4.7861  -15.6519   25.9178 O.3     1  UNL1       -0.3830
     35 C          -7.4217  -15.7947   25.4957 C.3     1  UNL1        0.1017
     36 H          -5.0714  -15.4093   26.8126 H       1  UNL1        0.2104
@<TRIPOS>BOND
     1     1     2    1
     2     2     3   am
     3     3     4    2
     4     5     3    1
     5     5     6    1
     6     6     7    1
     7     7     8    1
     8     8     9   ar
     9     9    10   ar
    10    10    15    1
    11    15    16    1
    12    16    18    1
    13    18    19    1
    14    18    20    2
    15    18    21    2
    16    10    11   ar
    17    11    12   ar
    18    12    13   ar
    19    13    14    1
    20     2    22    1
    21    22    29    1
    22    29    30    1
    23    30    31    1
    24    31    32    1
    25    32    33    1
    26    33    34    1
    27    33    35    1
    28    22    23    1
    29    23    24   ar
    30    24    25   ar
    31    25    26   ar
    32    26    27   ar
    33    27    28   ar
    34    14     5    1
    35    35    30    1
    36    28    23   ar
    37    13     8   ar
    38    16    17    1
    39    34    36    1
@<TRIPOS>MOLECULE
*****
 36 39 0 0 0
SMALL
GASTEIGER

@<TRIPOS>ATOM
      1 C           6.7741    1.0288   18.8336 C.3     1  UNL1        0.1153
      2 N           6.6710   -0.1193   19.7935 N.am    1  UNL1       -0.2714
      3 C           7.9154   -0.7575   20.3358 C.2     1  UNL1        0.2661
      4 O           9.2629   -0.2476   19.9183 O.2     1  UNL1       -0.2710
      5 C           7.8124   -1.9056   21.2957 C.3     1  UNL1        0.2415
      6 C           8.1353   -3.2971   20.8381 C.3     1  UNL1        0.0579
      7 C           8.0322   -4.4451   21.7980 C.3     1  UNL1        0.0337
      8 C           7.6062   -4.2016   23.2154 C.ar    1  UNL1        0.0117
      9 C           7.5032   -5.3497   24.1753 C.ar    1  UNL1       -0.0041
     10 C           7.0772   -5.1062   25.5928 C.ar    1  UNL1       -0.0049
     11 C           6.7543   -3.7147   26.0504 C.ar    1  UNL1        0.0002
     12 C           6.8573   -2.5667   25.0905 C.ar    1  UNL1        0.0363
     13 C           7.2833   -2.8101   23.6731 C.ar    1  UNL1        0.1350
     14 O           7.3864   -1.6621   22.7132 O.3     1  UNL1       -0.4703
     15 C           6.9741   -6.2543   26.5527 C.3     1  UNL1        0.1173
     16 N           6.4310   -6.0313   27.9331 N.3     1  UNL1       -0.1788
     17 H           5.7553   -6.7752   28.1073 H       1  UNL1        0.1488
     18 S           7.3608   -6.0066   29.1099 S.O2    1  UNL1        0.0429
     19 C           8.2906   -5.9819   30.2867 C.3     1  UNL1        0.1957
     20 O           8.1971   -7.0757   28.4716 O.2     1  UNL1       -0.1574
     21 O           6.5245   -4.9374   29.7482 O.2     1  UNL1       -0.1574
     22 C           5.3235   -0.6291   20.2111 C.3     1  UNL1        0.1139
     23 C           4.9481   -2.0576   19.9494 C.ar    1  UNL1       -0.0029
     24 C           4.3898   -2.9013   21.0569 C.ar    1  UNL1       -0.0026
     25 C           4.0143   -4.3297   20.7953 C.ar    1  UNL1       -0.0003
     26 C           4.1971   -4.9145   19.4262 C.ar    1  UNL1       -0.0000
     27 C           4.7554   -4.0709   18.3187 C.ar    1  UNL1       -0.0003
     28 C           5.1309   -2.6424   18.5803 C.ar    1  UNL1       -0.0026
     29 C           4.3515    0.2895   20.8902 C.3     1  UNL1        0.0968
     30 N           2.9518    0.4199   20.3671 N.3     1  UNL1       -0.2689
     31 C           1.7266   -0.2104   20.9601 C.3     1  UNL1        0.0748
     32 C           0.5490    0.1835   20.1186 C.3     1  UNL1        0.0480
     33 C           1.0464    1.0574   19.0055 C.3     1  UNL1        0.1278
     34 O           0.2064    1.6764   17.9280 O.3     1  UNL1       -0.3830
     35 C           2.5314    1.2034   19.1591 C.3     1  UNL1        0.1017
     36 H           0.7723    2.1942   17.3342 H       1  UNL1        0.2104
@<TRIPOS>BOND
     1     1     2    1
     2     2     3   am
     3     3     4    2
     4     5     3    1
     5     5     6    1
     6     6     7    1
     7     7     8    1
     8     8     9   ar
     9     9    10   ar
    10    10    15    1
    11    15    16    1
    12    16    18    1
    13    18    19    1
    14    18    20    2
    15    18    21    2
    16    10    11   ar
    17    11    12   ar
    18    12    13   ar
    19    13    14    1
    20     2    22    1
    21    22    29    1
    22    29    30    1
    23    30    31    1
    24    31    32    1
    25    32    33    1
    26    33    34    1
    27    33    35    1
    28    22    23    1
    29    23    24   ar
    30    24    25   ar
    31    25    26   ar
    32    26    27   ar
    33    27    28   ar
    34    14     5    1
    35    35    30    1
    36    28    23   ar
    37    13     8   ar
    38    16    17    1
    39    34    36    1
@<TRIPOS>MOLECULE
*****
 36 39 0 0 0
SMALL
GASTEIGER

@<TRIPOS>ATOM
      1 C           5.8090   -0.9293   28.8639 C.3     1  UNL1        0.1153
      2 N           5.5905   -1.0176   27.3824 N.am    1  UNL1       -0.2714
      3 C           4.2154   -1.2748   26.8411 C.2     1  UNL1        0.2661
      4 O           3.0588   -1.4439   27.7812 O.2     1  UNL1       -0.2710
      5 C           3.9969   -1.3631   25.3597 C.3     1  UNL1        0.2415
      6 C           3.1678   -0.3268   24.6608 C.3     1  UNL1        0.0579
      7 C           2.9493   -0.4151   23.1795 C.3     1  UNL1        0.0337
      8 C           3.5600   -1.5397   22.3970 C.ar    1  UNL1        0.0117
      9 C           3.3415   -1.6280   20.9156 C.ar    1  UNL1       -0.0041
     10 C           3.9522   -2.7526   20.1331 C.ar    1  UNL1       -0.0049
     11 C           4.7814   -3.7890   20.8321 C.ar    1  UNL1        0.0002
     12 C           4.9998   -3.7007   22.3134 C.ar    1  UNL1        0.0363
     13 C           4.3892   -2.5761   23.0959 C.ar    1  UNL1        0.1350
     14 O           4.6076   -2.4878   24.5773 O.3     1  UNL1       -0.4703
     15 C           3.7338   -2.8409   18.6518 C.3     1  UNL1        0.1173
     16 N           4.8357   -2.4618   17.7072 N.3     1  UNL1       -0.1788
     17 H           4.6270   -2.9114   16.8157 H       1  UNL1        0.1488
     18 S           5.1052   -1.0164   17.4107 S.O2    1  UNL1        0.0429
     19 C           5.3747    0.4291   17.1141 C.3     1  UNL1        0.1957
     20 O           4.0098   -1.0224   16.3860 O.2     1  UNL1       -0.1574
     21 O           6.2006   -1.0104   18.4354 O.2     1  UNL1       -0.1574
     22 C           6.7471   -0.8485   26.4424 C.3     1  UNL1        0.1139
     23 C           6.7738    0.3070   25.4863 C.ar    1  UNL1       -0.0029
     24 C           7.0650    0.0720   24.0337 C.ar    1  UNL1       -0.0026
     25 C           7.0917    1.2275   23.0776 C.ar    1  UNL1       -0.0003
     26 C           6.8272    2.6180   23.5741 C.ar    1  UNL1       -0.0000
     27 C           6.5360    2.8530   25.0267 C.ar    1  UNL1       -0.0003
     28 C           6.5092    1.6975   25.9828 C.ar    1  UNL1       -0.0026
     29 C           7.8769   -1.8350   26.4584 C.3     1  UNL1        0.0968
     30 N           7.6262   -3.2685   26.0947 N.3     1  UNL1       -0.2689
     31 C           7.8528   -3.8890   24.7480 C.3     1  UNL1        0.0748
     32 C           7.4716   -5.3372   24.8349 C.3     1  UNL1        0.0480
     33 C           7.0093   -5.6116   26.2352 C.3     1  UNL1        0.1278
     34 O           6.5348   -6.9326   26.7641 O.3     1  UNL1       -0.3830
     35 C           7.1049   -4.3331   27.0138 C.3     1  UNL1        0.1017
     36 H           6.2944   -6.8390   27.6992 H       1  UNL1        0.2104
@<TRIPOS>BOND
     1     1     2    1
     2     2     3   am
     3     3     4    2
     4     5     3    1
     5     5     6    1
     6     6     7    1
     7     7     8    1
     8     8     9   ar
     9     9    10   ar
    10    10    15    1
    11    15    16    1
    12    16    18    1
    13    18    19    1
    14    18    20    2
    15    18    21    2
    16    10    11   ar
    17    11    12   ar
    18    12    13   ar
    19    13    14    1
    20     2    22    1
    21    22    29    1
    22    29    30    1
    23    30    31    1
    24    31    32    1
    25    32    33    1
    26    33    34    1
    27    33    35    1
    28    22    23    1
    29    23    24   ar
    30    24    25   ar
    31    25    26   ar
    32    26    27   ar
    33    27    28   ar
    34    14     5    1
    35    35    30    1
    36    28    23   ar
    37    13     8   ar
    38    16    17    1
    39    34    36    1
@<TRIPOS>MOLECULE
*****
 36 39 0 0 0
SMALL
GASTEIGER

@<TRIPOS>ATOM
      1 C           7.4807   -3.9731   20.8973 C.3     1  UNL1        0.1153
      2 N           6.4801   -2.8843   21.1494 N.am    1  UNL1       -0.2714
      3 C           5.0448   -3.2310   21.4129 C.2     1  UNL1        0.2661
      4 O           4.6099   -4.6666   21.4244 O.2     1  UNL1       -0.2710
      5 C           4.0443   -2.1422   21.6651 C.3     1  UNL1        0.2415
      6 C           3.8799   -1.5798   23.0458 C.3     1  UNL1        0.0579
      7 C           2.8794   -0.4910   23.2979 C.3     1  UNL1        0.0337
      8 C           2.0433    0.0353   22.1692 C.ar    1  UNL1        0.0117
      9 C           1.0428    1.1241   22.4214 C.ar    1  UNL1       -0.0041
     10 C           0.2066    1.6504   21.2927 C.ar    1  UNL1       -0.0049
     11 C           0.3710    1.0878   19.9119 C.ar    1  UNL1        0.0002
     12 C           1.3715   -0.0009   19.6598 C.ar    1  UNL1        0.0363
     13 C           2.2077   -0.5272   20.7885 C.ar    1  UNL1        0.1350
     14 O           3.2081   -1.6160   20.5364 O.3     1  UNL1       -0.4703
     15 C          -0.7939    2.7391   21.5448 C.3     1  UNL1        0.1173
     16 N          -1.4350    3.4505   20.3902 N.3     1  UNL1       -0.1788
     17 H          -1.0576    3.0319   19.5401 H       1  UNL1        0.1488
     18 S          -2.9280    3.4524   20.2461 S.O2    1  UNL1        0.0429
     19 C          -4.4211    3.4542   20.1019 C.3     1  UNL1        0.1957
     20 O          -3.0683    3.0846   21.6935 O.2     1  UNL1       -0.1574
     21 O          -2.7878    3.8202   18.7987 O.2     1  UNL1       -0.1574
     22 C           6.9151   -1.4488   21.1380 C.3     1  UNL1        0.1139
     23 C           7.0763   -0.7037   22.4299 C.ar    1  UNL1       -0.0029
     24 C           6.8220    0.7737   22.4803 C.ar    1  UNL1       -0.0026
     25 C           6.9832    1.5188   23.7721 C.ar    1  UNL1       -0.0003
     26 C           7.3989    0.7865   25.0134 C.ar    1  UNL1       -0.0000
     27 C           7.6532   -0.6909   24.9630 C.ar    1  UNL1       -0.0003
     28 C           7.4920   -1.4360   23.6712 C.ar    1  UNL1       -0.0026
     29 C           7.1887   -0.7584   19.8348 C.3     1  UNL1        0.0968
     30 N           6.0673   -0.5014   18.8722 N.3     1  UNL1       -0.2689
     31 C           5.3128    0.7862   18.7210 C.3     1  UNL1        0.0748
     32 C           4.2827    0.5966   17.6472 C.3     1  UNL1        0.0480
     33 C           4.4005   -0.8083   17.1349 C.3     1  UNL1        0.1278
     34 O           3.5626   -1.4261   16.0550 O.3     1  UNL1       -0.3830
     35 C           5.5035   -1.4868   17.8920 C.3     1  UNL1        0.1017
     36 H           3.8420   -2.3443   15.9145 H       1  UNL1        0.2104
@<TRIPOS>BOND
     1     1     2    1
     2     2     3   am
     3     3     4    2
     4     5     3    1
     5     5     6    1
     6     6     7    1
     7     7     8    1
     8     8     9   ar
     9     9    10   ar
    10    10    15    1
    11    15    16    1
    12    16    18    1
    13    18    19    1
    14    18    20    2
    15    18    21    2
    16    10    11   ar
    17    11    12   ar
    18    12    13   ar
    19    13    14    1
    20     2    22    1
    21    22    29    1
    22    29    30    1
    23    30    31    1
    24    31    32    1
    25    32    33    1
    26    33    34    1
    27    33    35    1
    28    22    23    1
    29    23    24   ar
    30    24    25   ar
    31    25    26   ar
    32    26    27   ar
    33    27    28   ar
    34    14     5    1
    35    35    30    1
    36    28    23   ar
    37    13     8   ar
    38    16    17    1
    39    34    36    1
@<TRIPOS>MOLECULE
*****
 36 39 0 0 0
SMALL
GASTEIGER

@<TRIPOS>ATOM
      1 C           6.3668   -0.2624   17.8632 C.3     1  UNL1        0.1153
      2 N           5.7550   -0.2559   19.2328 N.am    1  UNL1       -0.2714
      3 C           5.9581    0.9217   20.1393 C.2     1  UNL1        0.2661
      4 O           6.7729    2.0929   19.6763 O.2     1  UNL1       -0.2710
      5 C           5.3463    0.9282   21.5089 C.3     1  UNL1        0.2415
      6 C           6.2012    0.6673   22.7135 C.3     1  UNL1        0.0579
      7 C           5.5894    0.6738   24.0830 C.3     1  UNL1        0.0337
      8 C           4.1227    0.9412   24.2480 C.ar    1  UNL1        0.0117
      9 C           3.5109    0.9477   25.6176 C.ar    1  UNL1       -0.0041
     10 C           2.0442    1.2152   25.7825 C.ar    1  UNL1       -0.0049
     11 C           1.1893    1.4761   24.5779 C.ar    1  UNL1        0.0002
     12 C           1.8010    1.4696   23.2084 C.ar    1  UNL1        0.0363
     13 C           3.2678    1.2022   23.0434 C.ar    1  UNL1        0.1350
     14 O           3.8796    1.1956   21.6739 O.3     1  UNL1       -0.4703
     15 C           1.4324    1.2217   27.1521 C.3     1  UNL1        0.1173
     16 N           1.1635   -0.0734   27.8596 N.3     1  UNL1       -0.1788
     17 H           1.4367   -0.8202   27.2207 H       1  UNL1        0.1488
     18 S           1.8278   -0.3625   29.1730 S.O2    1  UNL1        0.0429
     19 C           2.4922   -0.6516   30.4864 C.3     1  UNL1        0.1957
     20 O           2.8841   -1.1570   28.4638 O.2     1  UNL1       -0.1574
     21 O           0.7715    0.4320   29.8821 O.2     1  UNL1       -0.1574
     22 C           4.9402   -1.4271   19.6958 C.3     1  UNL1        0.1139
     23 C           5.4536   -2.3108   20.7938 C.ar    1  UNL1       -0.0029
     24 C           4.5837   -2.6203   21.9760 C.ar    1  UNL1       -0.0026
     25 C           5.0970   -3.5039   23.0740 C.ar    1  UNL1       -0.0003
     26 C           6.4802   -4.0780   22.9899 C.ar    1  UNL1       -0.0000
     27 C           7.3501   -3.7684   21.8078 C.ar    1  UNL1       -0.0003
     28 C           6.8368   -2.8849   20.7097 C.ar    1  UNL1       -0.0026
     29 C           3.6120   -1.7147   19.0607 C.3     1  UNL1        0.0968
     30 N           2.5134   -0.6954   19.1253 N.3     1  UNL1       -0.2689
     31 C           2.3078    0.4410   18.1681 C.3     1  UNL1        0.0748
     32 C           1.0948    1.2052   18.6096 C.3     1  UNL1        0.0480
     33 C           0.5509    0.5410   19.8396 C.3     1  UNL1        0.1278
     34 O          -0.6577    0.9752   20.6148 O.3     1  UNL1       -0.3830
     35 C           1.4276   -0.6336   20.1583 C.3     1  UNL1        0.1017
     36 H          -0.7928    0.3759   21.3654 H       1  UNL1        0.2104
@<TRIPOS>BOND
     1     1     2    1
     2     2     3   am
     3     3     4    2
     4     5     3    1
     5     5     6    1
     6     6     7    1
     7     7     8    1
     8     8     9   ar
     9     9    10   ar
    10    10    15    1
    11    15    16    1
    12    16    18    1
    13    18    19    1
    14    18    20    2
    15    18    21    2
    16    10    11   ar
    17    11    12   ar
    18    12    13   ar
    19    13    14    1
    20     2    22    1
    21    22    29    1
    22    29    30    1
    23    30    31    1
    24    31    32    1
    25    32    33    1
    26    33    34    1
    27    33    35    1
    28    22    23    1
    29    23    24   ar
    30    24    25   ar
    31    25    26   ar
    32    26    27   ar
    33    27    28   ar
    34    14     5    1
    35    35    30    1
    36    28    23   ar
    37    13     8   ar
    38    16    17    1
    39    34    36    1
@<TRIPOS>MOLECULE
*****
 36 39 0 0 0
SMALL
GASTEIGER

@<TRIPOS>ATOM
      1 C           1.0064    1.6052   18.3514 C.3     1  UNL1        0.1153
      2 N           1.9046    1.0382   19.4106 N.am    1  UNL1       -0.2714
      3 C           1.3239    0.2283   20.5316 C.2     1  UNL1        0.2661
      4 O          -0.1550   -0.0146   20.5936 O.2     1  UNL1       -0.2710
      5 C           2.2221   -0.3387   21.5908 C.3     1  UNL1        0.2415
      6 C           2.2609    0.2855   22.9542 C.3     1  UNL1        0.0579
      7 C           3.1591   -0.2815   24.0133 C.3     1  UNL1        0.0337
      8 C           4.0184   -1.4727   23.7091 C.ar    1  UNL1        0.0117
      9 C           4.9166   -2.0397   24.7683 C.ar    1  UNL1       -0.0041
     10 C           5.7759   -3.2309   24.4640 C.ar    1  UNL1       -0.0049
     11 C           5.7370   -3.8552   23.1006 C.ar    1  UNL1        0.0002
     12 C           4.8389   -3.2881   22.0415 C.ar    1  UNL1        0.0363
     13 C           3.9796   -2.0969   22.3457 C.ar    1  UNL1        0.1350
     14 O           3.0814   -1.5299   21.2866 O.3     1  UNL1       -0.4703
     15 C           6.6741   -3.7979   25.5231 C.3     1  UNL1        0.1173
     16 N           6.1617   -3.9830   26.9208 N.3     1  UNL1       -0.1788
     17 H           5.1690   -4.2041   26.8436 H       1  UNL1        0.1488
     18 S           6.7698   -5.0263   27.8105 S.O2    1  UNL1        0.0429
     19 C           7.3780   -6.0696   28.7002 C.3     1  UNL1        0.1957
     20 O           6.9963   -3.9899   28.8710 O.2     1  UNL1       -0.1574
     21 O           6.5434   -6.0626   26.7500 O.2     1  UNL1       -0.1574
     22 C           3.3835    1.2811   19.3487 C.3     1  UNL1        0.1139
     23 C           4.0696    2.0185   20.4603 C.ar    1  UNL1       -0.0029
     24 C           3.5105    3.3198   20.9542 C.ar    1  UNL1       -0.0026
     25 C           4.1966    4.0572   22.0657 C.ar    1  UNL1       -0.0003
     26 C           5.4417    3.4932   22.6834 C.ar    1  UNL1       -0.0000
     27 C           6.0008    2.1919   22.1895 C.ar    1  UNL1       -0.0003
     28 C           5.3148    1.4545   21.0779 C.ar    1  UNL1       -0.0026
     29 C           4.1763    0.7867   18.1752 C.3     1  UNL1        0.0968
     30 N           4.7685   -0.5912   18.1972 N.3     1  UNL1       -0.2689
     31 C           6.2315   -0.9220   18.2097 C.3     1  UNL1        0.0748
     32 C           6.3689   -2.4156   18.2307 C.3     1  UNL1        0.0480
     33 C           4.9908   -3.0079   18.2311 C.3     1  UNL1        0.1278
     34 O           4.6599   -4.4708   18.2491 O.3     1  UNL1       -0.3830
     35 C           4.0017   -1.8803   18.2104 C.3     1  UNL1        0.1017
     36 H           3.6966   -4.5844   18.2453 H       1  UNL1        0.2104
@<TRIPOS>BOND
     1     1     2    1
     2     2     3   am
     3     3     4    2
     4     5     3    1
     5     5     6    1
     6     6     7    1
     7     7     8    1
     8     8     9   ar
     9     9    10   ar
    10    10    15    1
    11    15    16    1
    12    16    18    1
    13    18    19    1
    14    18    20    2
    15    18    21    2
    16    10    11   ar
    17    11    12   ar
    18    12    13   ar
    19    13    14    1
    20     2    22    1
    21    22    29    1
    22    29    30    1
    23    30    31    1
    24    31    32    1
    25    32    33    1
    26    33    34    1
    27    33    35    1
    28    22    23    1
    29    23    24   ar
    30    24    25   ar
    31    25    26   ar
    32    26    27   ar
    33    27    28   ar
    34    14     5    1
    35    35    30    1
    36    28    23   ar
    37    13     8   ar
    38    16    17    1
    39    34    36    1
@<TRIPOS>MOLECULE
*****
 36 39 0 0 0
SMALL
GASTEIGER

@<TRIPOS>ATOM
      1 C          -3.0449    4.6271   23.0866 C.3     1  UNL1        0.1153
      2 N          -1.9027    4.0220   22.3254 N.am    1  UNL1       -0.2714
      3 C          -2.1708    3.1922   21.1049 C.2     1  UNL1        0.2661
      4 O          -3.5810    2.9676   20.6455 O.2     1  UNL1       -0.2710
      5 C          -1.0287    2.5871   20.3436 C.3     1  UNL1        0.2415
      6 C          -0.4962    3.2722   19.1201 C.3     1  UNL1        0.0579
      7 C           0.6459    2.6670   18.3589 C.3     1  UNL1        0.0337
      8 C           1.2555    1.3768   18.8213 C.ar    1  UNL1        0.0117
      9 C           2.3976    0.7716   18.0601 C.ar    1  UNL1       -0.0041
     10 C           3.0072   -0.5186   18.5225 C.ar    1  UNL1       -0.0049
     11 C           2.4746   -1.2036   19.7461 C.ar    1  UNL1        0.0002
     12 C           1.3326   -0.5985   20.5072 C.ar    1  UNL1        0.0363
     13 C           0.7230    0.6917   20.0449 C.ar    1  UNL1        0.1350
     14 O          -0.4191    1.2969   20.8060 O.3     1  UNL1       -0.4703
     15 C           4.1493   -1.1237   17.7613 C.3     1  UNL1        0.1173
     16 N           4.6736   -2.4757   18.1450 N.3     1  UNL1       -0.1788
     17 H           4.6743   -3.0428   17.2971 H       1  UNL1        0.1488
     18 S           6.0383   -2.6058   18.7538 S.O2    1  UNL1        0.0429
     19 C           7.4029   -2.7359   19.3627 C.3     1  UNL1        0.1957
     20 O           6.6585   -2.1925   17.4521 O.2     1  UNL1       -0.1574
     21 O           5.4181   -3.0191   20.0556 O.2     1  UNL1       -0.1574
     22 C          -0.4926    4.2466   22.7847 C.3     1  UNL1        0.1139
     23 C           0.2694    3.1327   23.4394 C.ar    1  UNL1       -0.0029
     24 C           1.6757    2.8334   23.0118 C.ar    1  UNL1       -0.0026
     25 C           2.4376    1.7195   23.6665 C.ar    1  UNL1       -0.0003
     26 C           1.7933    0.9049   24.7487 C.ar    1  UNL1       -0.0000
     27 C           0.3871    1.2042   25.1763 C.ar    1  UNL1       -0.0003
     28 C          -0.3749    2.3181   24.5216 C.ar    1  UNL1       -0.0026
     29 C           0.1556    5.5851   22.5893 C.3     1  UNL1        0.0968
     30 N           0.5956    6.0128   21.2205 N.3     1  UNL1       -0.2689
     31 C          -0.2006    6.8430   20.2578 C.3     1  UNL1        0.0748
     32 C           0.6207    7.0286   19.0164 C.3     1  UNL1        0.0480
     33 C           1.9245    6.3131   19.2119 C.3     1  UNL1        0.1278
     34 O           3.0468    6.2385   18.2195 O.3     1  UNL1       -0.3830
     35 C           1.9089    5.6853   20.5741 C.3     1  UNL1        0.1017
     36 H           3.7741    5.7162   18.5925 H       1  UNL1        0.2104
@<TRIPOS>BOND
     1     1     2    1
     2     2     3   am
     3     3     4    2
     4     5     3    1
     5     5     6    1
     6     6     7    1
     7     7     8    1
     8     8     9   ar
     9     9    10   ar
    10    10    15    1
    11    15    16    1
    12    16    18    1
    13    18    19    1
    14    18    20    2
    15    18    21    2
    16    10    11   ar
    17    11    12   ar
    18    12    13   ar
    19    13    14    1
    20     2    22    1
    21    22    29    1
    22    29    30    1
    23    30    31    1
    24    31    32    1
    25    32    33    1
    26    33    34    1
    27    33    35    1
    28    22    23    1
    29    23    24   ar
    30    24    25   ar
    31    25    26   ar
    32    26    27   ar
    33    27    28   ar
    34    14     5    1
    35    35    30    1
    36    28    23   ar
    37    13     8   ar
    38    16    17    1
    39    34    36    1
@<TRIPOS>MOLECULE
*****
 36 39 0 0 0
SMALL
GASTEIGER

@<TRIPOS>ATOM
      1 C          -3.5664    4.5712   22.7673 C.3     1  UNL1        0.1153
      2 N          -2.3448    3.9764   22.1316 N.am    1  UNL1       -0.2714
      3 C          -2.4484    3.2972   20.7983 C.2     1  UNL1        0.2661
      4 O          -3.7735    3.2128   20.1005 O.2     1  UNL1       -0.2710
      5 C          -1.2268    2.7023   20.1626 C.3     1  UNL1        0.2415
      6 C          -0.5305    3.4293   19.0506 C.3     1  UNL1        0.0579
      7 C           0.6910    2.8344   18.4150 C.3     1  UNL1        0.0337
      8 C           1.2162    1.5126   18.8915 C.ar    1  UNL1        0.0117
      9 C           2.4378    0.9177   18.2558 C.ar    1  UNL1       -0.0041
     10 C           2.9630   -0.4041   18.7323 C.ar    1  UNL1       -0.0049
     11 C           2.2666   -1.1311   19.8443 C.ar    1  UNL1        0.0002
     12 C           1.0451   -0.5362   20.4799 C.ar    1  UNL1        0.0363
     13 C           0.5199    0.7856   20.0035 C.ar    1  UNL1        0.1350
     14 O          -0.7016    1.3805   20.6391 O.3     1  UNL1       -0.4703
     15 C           4.1845   -0.9990   18.0967 C.3     1  UNL1        0.1173
     16 N           4.3220   -2.4885   17.9850 N.3     1  UNL1       -0.1788
     17 H           4.7304   -2.6787   17.0699 H       1  UNL1        0.1488
     18 S           5.1406   -3.2436   18.9899 S.O2    1  UNL1        0.0429
     19 C           5.9592   -3.9986   19.9947 C.3     1  UNL1        0.1957
     20 O           4.2666   -4.4473   18.7974 O.2     1  UNL1       -0.1574
     21 O           6.0146   -2.0398   19.1824 O.2     1  UNL1       -0.1574
     22 C          -1.0196    4.0607   22.8294 C.3     1  UNL1        0.1139
     23 C          -0.7008    3.1162   23.9503 C.ar    1  UNL1       -0.0029
     24 C          -1.3079    3.3283   25.3054 C.ar    1  UNL1       -0.0026
     25 C          -0.9890    2.3839   26.4263 C.ar    1  UNL1       -0.0003
     26 C          -0.0631    1.2273   26.1920 C.ar    1  UNL1       -0.0000
     27 C           0.5441    1.0152   24.8368 C.ar    1  UNL1       -0.0003
     28 C           0.2252    1.9597   23.7160 C.ar    1  UNL1       -0.0026
     29 C          -0.0134    5.0896   22.4064 C.3     1  UNL1        0.0968
     30 N           1.4530    4.7921   22.5116 N.3     1  UNL1       -0.2689
     31 C           2.2719    4.0299   21.5123 C.3     1  UNL1        0.0748
     32 C           3.6830    3.9713   22.0176 C.3     1  UNL1        0.0480
     33 C           3.7363    4.6973   23.3291 C.3     1  UNL1        0.1278
     34 O           4.9539    4.8833   24.1851 O.3     1  UNL1       -0.3830
     35 C           2.3580    5.2045   23.6344 C.3     1  UNL1        0.1017
     36 H           4.7171    5.3881   24.9789 H       1  UNL1        0.2104
@<TRIPOS>BOND
     1     1     2    1
     2     2     3   am
     3     3     4    2
     4     5     3    1
     5     5     6    1
     6     6     7    1
     7     7     8    1
     8     8     9   ar
     9     9    10   ar
    10    10    15    1
    11    15    16    1
    12    16    18    1
    13    18    19    1
    14    18    20    2
    15    18    21    2
    16    10    11   ar
    17    11    12   ar
    18    12    13   ar
    19    13    14    1
    20     2    22    1
    21    22    29    1
    22    29    30    1
    23    30    31    1
    24    31    32    1
    25    32    33    1
    26    33    34    1
    27    33    35    1
    28    22    23    1
    29    23    24   ar
    30    24    25   ar
    31    25    26   ar
    32    26    27   ar
    33    27    28   ar
    34    14     5    1
    35    35    30    1
    36    28    23   ar
    37    13     8   ar
    38    16    17    1
    39    34    36    1
