@<TRIPOS>MOLECULE
*****
 18 19 0 0 0
SMALL
GASTEIGER

@<TRIPOS>ATOM
      1 C          -6.8561  -20.2926   22.2209 C.2     1  UNL1        0.0034
      2 C          -7.9342  -19.2631   22.3872 C.2     1  UNL1        0.0421
      3 C          -3.3301  -18.5378   21.7331 C.ar    1  UNL1        0.1387
      4 C          -2.8953  -19.1333   20.4269 C.ar    1  UNL1        0.0369
      5 C          -3.7809  -20.1153   19.7186 C.ar    1  UNL1        0.0031
      6 C          -5.1011  -20.5017   20.3166 C.ar    1  UNL1        0.0002
      7 C          -5.5358  -19.9062   21.6228 C.ar    1  UNL1        0.0031
      8 C          -4.6503  -18.9242   22.3311 C.ar    1  UNL1        0.0369
      9 C          -2.0865  -16.2572   21.7817 C.3     1  UNL1        0.2525
     10 O          -2.4445  -17.5559   22.4414 O.3     1  UNL1       -0.4714
     11 C          -9.2545  -19.6495   22.9852 C.2     1  UNL1        0.1971
     12 O          -9.3188  -20.7234   24.0306 O.2     1  UNL1       -0.2865
     13 C         -10.5104  -18.9622   22.5379 C.ar    1  UNL1        0.0581
     14 C         -11.5701  -18.6100   23.5394 C.ar    1  UNL1        0.0063
     15 C         -12.8260  -17.9226   23.0921 C.ar    1  UNL1        0.0208
     16 C         -13.0223  -17.5874   21.6432 C.ar    1  UNL1        0.0989
     17 N         -11.9626  -17.9395   20.6417 N.ar    1  UNL1       -0.2422
     18 C         -10.7066  -18.6269   21.0891 C.ar    1  UNL1        0.1020
@<TRIPOS>BOND
     1     9    10    1
     2    10     3    1
     3     3     4   ar
     4     4     5   ar
     5     5     6   ar
     6     6     7   ar
     7     7     1    1
     8     1     2    2
     9     2    11    1
    10    11    12    2
    11    11    13    1
    12    13    14   ar
    13    14    15   ar
    14    15    16   ar
    15    16    17   ar
    16    17    18   ar
    17     7     8   ar
    18     8     3   ar
    19    18    13   ar
@<TRIPOS>MOLECULE
*****
 18 19 0 0 0
SMALL
GASTEIGER

@<TRIPOS>ATOM
      1 C          -6.5812  -19.6012   20.0780 C.2     1  UNL1        0.0034
      2 C          -7.7998  -19.0358   20.7452 C.2     1  UNL1        0.0421
      3 C          -2.6811  -18.9014   20.3008 C.ar    1  UNL1        0.1387
      4 C          -2.4983  -18.7854   21.7851 C.ar    1  UNL1        0.0369
      5 C          -3.6764  -18.9413   22.7003 C.ar    1  UNL1        0.0031
      6 C          -5.0374  -19.2132   22.1313 C.ar    1  UNL1        0.0002
      7 C          -5.2202  -19.3293   20.6471 C.ar    1  UNL1        0.0031
      8 C          -4.0420  -19.1733   19.7318 C.ar    1  UNL1        0.0369
      9 C          -0.3462  -17.8817   19.7926 C.3     1  UNL1        0.2525
     10 O          -1.5029  -18.7455   19.3856 O.3     1  UNL1       -0.4714
     11 C          -9.1608  -19.3077   20.1761 C.2     1  UNL1        0.1971
     12 O          -9.3006  -20.1134   18.9186 O.2     1  UNL1       -0.2865
     13 C         -10.3819  -18.7740   20.8645 C.ar    1  UNL1        0.0581
     14 C         -10.6663  -19.1526   22.2878 C.ar    1  UNL1        0.0063
     15 C         -11.8874  -18.6188   22.9762 C.ar    1  UNL1        0.0208
     16 C         -12.8242  -17.7064   22.2413 C.ar    1  UNL1        0.0989
     17 N         -12.5398  -17.3278   20.8180 N.ar    1  UNL1       -0.2422
     18 C         -11.3186  -17.8616   20.1296 C.ar    1  UNL1        0.1020
@<TRIPOS>BOND
     1     9    10    1
     2    10     3    1
     3     3     4   ar
     4     4     5   ar
     5     5     6   ar
     6     6     7   ar
     7     7     1    1
     8     1     2    2
     9     2    11    1
    10    11    12    2
    11    11    13    1
    12    13    14   ar
    13    14    15   ar
    14    15    16   ar
    15    16    17   ar
    16    17    18   ar
    17     7     8   ar
    18     8     3   ar
    19    18    13   ar
@<TRIPOS>MOLECULE
*****
 18 19 0 0 0
SMALL
GASTEIGER

@<TRIPOS>ATOM
      1 C          -8.0702  -19.9074   22.5139 C.2     1  UNL1        0.0034
      2 C          -7.4324  -19.6130   21.1885 C.2     1  UNL1        0.0421
      3 C         -11.6566  -18.2801   22.0242 C.ar    1  UNL1        0.1387
      4 C         -12.1908  -18.3447   23.4243 C.ar    1  UNL1        0.0369
      5 C         -11.3515  -18.9303   24.5210 C.ar    1  UNL1        0.0031
      6 C          -9.9780  -19.4511   24.2175 C.ar    1  UNL1        0.0002
      7 C          -9.4438  -19.3865   22.8174 C.ar    1  UNL1        0.0031
      8 C         -10.2831  -18.8009   21.7207 C.ar    1  UNL1        0.0369
      9 C         -12.2644  -16.2822   20.4785 C.3     1  UNL1        0.2525
     10 O         -12.4960  -17.6945   20.9275 O.3     1  UNL1       -0.4714
     11 C          -6.0588  -20.1339   20.8850 C.2     1  UNL1        0.1971
     12 O          -5.8867  -21.5180   20.3331 O.2     1  UNL1       -0.2865
     13 C          -4.8575  -19.2707   21.1335 C.ar    1  UNL1        0.0581
     14 C          -4.4700  -18.9107   22.5371 C.ar    1  UNL1        0.0063
     15 C          -3.2687  -18.0475   22.7855 C.ar    1  UNL1        0.0208
     16 C          -2.4549  -17.5443   21.6303 C.ar    1  UNL1        0.0989
     17 N          -2.8424  -17.9043   20.2267 N.ar    1  UNL1       -0.2422
     18 C          -4.0438  -18.7675   19.9783 C.ar    1  UNL1        0.1020
@<TRIPOS>BOND
     1     9    10    1
     2    10     3    1
     3     3     4   ar
     4     4     5   ar
     5     5     6   ar
     6     6     7   ar
     7     7     1    1
     8     1     2    2
     9     2    11    1
    10    11    12    2
    11    11    13    1
    12    13    14   ar
    13    14    15   ar
    14    15    16   ar
    15    16    17   ar
    16    17    18   ar
    17     7     8   ar
    18     8     3   ar
    19    18    13   ar
@<TRIPOS>MOLECULE
*****
 18 19 0 0 0
SMALL
GASTEIGER

@<TRIPOS>ATOM
      1 C          -7.6910  -19.3274   21.8830 C.2     1  UNL1        0.0034
      2 C          -6.7352  -19.0539   20.7598 C.2     1  UNL1        0.0421
      3 C         -10.9756  -17.1671   21.3402 C.ar    1  UNL1        0.1387
      4 C         -11.0989  -16.4979   22.6769 C.ar    1  UNL1        0.0369
      5 C         -10.0862  -16.7719   23.7491 C.ar    1  UNL1        0.0031
      6 C          -8.9503  -17.7150   23.4844 C.ar    1  UNL1        0.0002
      7 C          -8.8270  -18.3842   22.1477 C.ar    1  UNL1        0.0031
      8 C          -9.8396  -18.1102   21.0756 C.ar    1  UNL1        0.0369
      9 C         -11.7858  -15.7485   19.3200 C.3     1  UNL1        0.2525
     10 O         -11.9882  -16.8931   20.2680 O.3     1  UNL1       -0.4714
     11 C          -5.5992  -19.9971   20.4951 C.2     1  UNL1        0.1971
     12 O          -5.8705  -21.4570   20.2831 O.2     1  UNL1       -0.2865
     13 C          -4.1921  -19.4803   20.4425 C.ar    1  UNL1        0.0581
     14 C          -3.7468  -18.6337   19.2871 C.ar    1  UNL1        0.0063
     15 C          -2.3396  -18.1169   19.2344 C.ar    1  UNL1        0.0208
     16 C          -1.3777  -18.4468   20.3371 C.ar    1  UNL1        0.0989
     17 N          -1.8230  -19.2934   21.4925 N.ar    1  UNL1       -0.2422
     18 C          -3.2302  -19.8102   21.5452 C.ar    1  UNL1        0.1020
@<TRIPOS>BOND
     1     9    10    1
     2    10     3    1
     3     3     4   ar
     4     4     5   ar
     5     5     6   ar
     6     6     7   ar
     7     7     1    1
     8     1     2    2
     9     2    11    1
    10    11    12    2
    11    11    13    1
    12    13    14   ar
    13    14    15   ar
    14    15    16   ar
    15    16    17   ar
    16    17    18   ar
    17     7     8   ar
    18     8     3   ar
    19    18    13   ar
@<TRIPOS>MOLECULE
*****
 18 19 0 0 0
SMALL
GASTEIGER

@<TRIPOS>ATOM
      1 C          -7.6917  -19.6188   21.3912 C.2     1  UNL1        0.0034
      2 C          -6.2349  -19.6563   21.7466 C.2     1  UNL1        0.0421
      3 C          -9.3742  -17.1728   24.0249 C.ar    1  UNL1        0.1387
      4 C         -10.6695  -17.8832   24.2843 C.ar    1  UNL1        0.0369
      5 C         -10.9723  -19.1722   23.5794 C.ar    1  UNL1        0.0031
      6 C          -9.9797  -19.7507   22.6150 C.ar    1  UNL1        0.0002
      7 C          -8.6843  -19.0403   22.3556 C.ar    1  UNL1        0.0031
      8 C          -8.3816  -17.7514   23.0606 C.ar    1  UNL1        0.0369
      9 C          -7.8353  -15.1097   24.3794 C.3     1  UNL1        0.2525
     10 O          -9.0714  -15.8839   24.7299 O.3     1  UNL1       -0.4714
     11 C          -5.2422  -20.2349   20.7822 C.2     1  UNL1        0.1971
     12 O          -5.5898  -21.4635   19.9950 O.2     1  UNL1       -0.2865
     13 C          -3.9021  -19.5848   20.6051 C.ar    1  UNL1        0.0581
     14 C          -3.6076  -18.8005   19.3608 C.ar    1  UNL1        0.0063
     15 C          -2.2675  -18.1504   19.1836 C.ar    1  UNL1        0.0208
     16 C          -1.2219  -18.2845   20.2508 C.ar    1  UNL1        0.0989
     17 N          -1.5164  -19.0688   21.4950 N.ar    1  UNL1       -0.2422
     18 C          -2.8566  -19.7189   21.6722 C.ar    1  UNL1        0.1020
@<TRIPOS>BOND
     1     9    10    1
     2    10     3    1
     3     3     4   ar
     4     4     5   ar
     5     5     6   ar
     6     6     7   ar
     7     7     1    1
     8     1     2    2
     9     2    11    1
    10    11    12    2
    11    11    13    1
    12    13    14   ar
    13    14    15   ar
    14    15    16   ar
    15    16    17   ar
    16    17    18   ar
    17     7     8   ar
    18     8     3   ar
    19    18    13   ar
@<TRIPOS>MOLECULE
*****
 18 19 0 0 0
SMALL
GASTEIGER

@<TRIPOS>ATOM
      1 C          -8.7833  -19.5241   20.3621 C.2     1  UNL1        0.0034
      2 C          -7.5592  -19.4428   21.2251 C.2     1  UNL1        0.0421
      3 C         -11.8501  -18.2712   22.5473 C.ar    1  UNL1        0.1387
      4 C         -12.5384  -17.3607   21.5741 C.ar    1  UNL1        0.0369
      5 C         -11.9750  -17.1713   20.1969 C.ar    1  UNL1        0.0031
      6 C         -10.7234  -17.8924   19.7929 C.ar    1  UNL1        0.0002
      7 C         -10.0350  -18.8029   20.7661 C.ar    1  UNL1        0.0031
      8 C         -10.5984  -18.9923   22.1433 C.ar    1  UNL1        0.0369
      9 C         -13.8496  -18.1265   24.1999 C.3     1  UNL1        0.2525
     10 O         -12.4134  -18.4606   23.9246 O.3     1  UNL1       -0.4714
     11 C          -6.3074  -20.1639   20.8211 C.2     1  UNL1        0.1971
     12 O          -6.3938  -21.4013   19.9777 O.2     1  UNL1       -0.2865
     13 C          -4.9694  -19.6476   21.2605 C.ar    1  UNL1        0.0581
     14 C          -3.7235  -20.0996   20.5581 C.ar    1  UNL1        0.0063
     15 C          -2.3855  -19.5834   20.9975 C.ar    1  UNL1        0.0208
     16 C          -2.2933  -18.6150   22.1394 C.ar    1  UNL1        0.0989
     17 N          -3.5392  -18.1630   22.8419 N.ar    1  UNL1       -0.2422
     18 C          -4.8773  -18.6794   22.4024 C.ar    1  UNL1        0.1020
@<TRIPOS>BOND
     1     9    10    1
     2    10     3    1
     3     3     4   ar
     4     4     5   ar
     5     5     6   ar
     6     6     7   ar
     7     7     1    1
     8     1     2    2
     9     2    11    1
    10    11    12    2
    11    11    13    1
    12    13    14   ar
    13    14    15   ar
    14    15    16   ar
    15    16    17   ar
    16    17    18   ar
    17     7     8   ar
    18     8     3   ar
    19    18    13   ar
@<TRIPOS>MOLECULE
*****
 18 19 0 0 0
SMALL
GASTEIGER

@<TRIPOS>ATOM
      1 C          -6.8602  -19.7051   21.2537 C.2     1  UNL1        0.0034
      2 C          -5.9383  -19.5377   20.0824 C.2     1  UNL1        0.0421
      3 C         -10.6712  -19.0255   22.1280 C.ar    1  UNL1        0.1387
      4 C         -11.2785  -19.0115   20.7565 C.ar    1  UNL1        0.0369
      5 C         -10.4131  -19.2287   19.5508 C.ar    1  UNL1        0.0031
      6 C          -8.9404  -19.4599   19.7165 C.ar    1  UNL1        0.0002
      7 C          -8.3330  -19.4739   21.0879 C.ar    1  UNL1        0.0031
      8 C          -9.1985  -19.2567   22.2937 C.ar    1  UNL1        0.0369
      9 C         -11.0186  -19.1481   24.6998 C.3     1  UNL1        0.2525
     10 O         -11.5367  -18.8083   23.3338 O.3     1  UNL1       -0.4714
     11 C          -4.4654  -19.7690   20.2481 C.2     1  UNL1        0.1971
     12 O          -3.8826  -21.1225   19.9683 O.2     1  UNL1       -0.2865
     13 C          -3.5755  -18.6467   20.6936 C.ar    1  UNL1        0.0581
     14 C          -3.6129  -18.1804   22.1188 C.ar    1  UNL1        0.0063
     15 C          -2.7230  -17.0581   22.5643 C.ar    1  UNL1        0.0208
     16 C          -1.7957  -16.4021   21.5846 C.ar    1  UNL1        0.0989
     17 N          -1.7583  -16.8683   20.1594 N.ar    1  UNL1       -0.2422
     18 C          -2.6483  -17.9907   19.7139 C.ar    1  UNL1        0.1020
@<TRIPOS>BOND
     1     9    10    1
     2    10     3    1
     3     3     4   ar
     4     4     5   ar
     5     5     6   ar
     6     6     7   ar
     7     7     1    1
     8     1     2    2
     9     2    11    1
    10    11    12    2
    11    11    13    1
    12    13    14   ar
    13    14    15   ar
    14    15    16   ar
    15    16    17   ar
    16    17    18   ar
    17     7     8   ar
    18     8     3   ar
    19    18    13   ar
@<TRIPOS>MOLECULE
*****
 18 19 0 0 0
SMALL
GASTEIGER

@<TRIPOS>ATOM
      1 C          -7.5054  -18.4121   22.5207 C.2     1  UNL1        0.0034
      2 C          -7.3274  -17.0662   23.1584 C.2     1  UNL1        0.0421
      3 C          -3.7858  -19.3671   21.5190 C.ar    1  UNL1        0.1387
      4 C          -4.0338  -20.4040   20.4639 C.ar    1  UNL1        0.0369
      5 C          -5.4389  -20.7769   20.0944 C.ar    1  UNL1        0.0031
      6 C          -6.5961  -20.1130   20.7799 C.ar    1  UNL1        0.0002
      7 C          -6.3481  -19.0761   21.8350 C.ar    1  UNL1        0.0031
      8 C          -4.9430  -18.7031   22.2046 C.ar    1  UNL1        0.0369
      9 C          -1.5032  -18.2962   20.8922 C.3     1  UNL1        0.2525
     10 O          -2.3807  -18.9941   21.8886 O.3     1  UNL1       -0.4714
     11 C          -8.4846  -16.4022   23.8441 C.2     1  UNL1        0.1971
     12 O          -8.2701  -15.1385   24.6233 O.2     1  UNL1       -0.2865
     13 C          -9.8563  -17.0018   23.7505 C.ar    1  UNL1        0.0581
     14 C         -10.8545  -16.4431   22.7802 C.ar    1  UNL1        0.0063
     15 C         -12.2262  -17.0427   22.6866 C.ar    1  UNL1        0.0208
     16 C         -12.5998  -18.2012   23.5633 C.ar    1  UNL1        0.0989
     17 N         -11.6016  -18.7599   24.5336 N.ar    1  UNL1       -0.2422
     18 C         -10.2299  -18.1602   24.6271 C.ar    1  UNL1        0.1020
@<TRIPOS>BOND
     1     9    10    1
     2    10     3    1
     3     3     4   ar
     4     4     5   ar
     5     5     6   ar
     6     6     7   ar
     7     7     1    1
     8     1     2    2
     9     2    11    1
    10    11    12    2
    11    11    13    1
    12    13    14   ar
    13    14    15   ar
    14    15    16   ar
    15    16    17   ar
    16    17    18   ar
    17     7     8   ar
    18     8     3   ar
    19    18    13   ar
@<TRIPOS>MOLECULE
*****
 18 19 0 0 0
SMALL
GASTEIGER

@<TRIPOS>ATOM
      1 C          -7.0641  -20.1292   20.7778 C.2     1  UNL1        0.0034
      2 C          -8.0203  -18.9940   20.9942 C.2     1  UNL1        0.0421
      3 C          -3.5845  -18.5676   21.8751 C.ar    1  UNL1        0.1387
      4 C          -2.6307  -19.4297   21.1025 C.ar    1  UNL1        0.0369
      5 C          -3.1546  -20.5250   20.2217 C.ar    1  UNL1        0.0031
      6 C          -4.6324  -20.7582   20.1134 C.ar    1  UNL1        0.0002
      7 C          -5.5862  -19.8961   20.8860 C.ar    1  UNL1        0.0031
      8 C          -5.0623  -18.8008   21.7668 C.ar    1  UNL1        0.0369
      9 C          -2.4163  -16.2629   22.1460 C.3     1  UNL1        0.2525
     10 O          -3.0606  -17.4724   22.7560 O.3     1  UNL1       -0.4714
     11 C          -9.4981  -19.2271   20.8860 C.2     1  UNL1        0.1971
     12 O         -10.0968  -19.6499   19.5773 O.2     1  UNL1       -0.2865
     13 C         -10.3772  -19.0375   22.0865 C.ar    1  UNL1        0.0581
     14 C         -11.6846  -18.3144   21.9521 C.ar    1  UNL1        0.0063
     15 C         -12.5637  -18.1248   23.1525 C.ar    1  UNL1        0.0208
     16 C         -12.1354  -18.6582   24.4875 C.ar    1  UNL1        0.0989
     17 N         -10.8281  -19.3812   24.6220 N.ar    1  UNL1       -0.2422
     18 C          -9.9490  -19.5709   23.4214 C.ar    1  UNL1        0.1020
@<TRIPOS>BOND
     1     9    10    1
     2    10     3    1
     3     3     4   ar
     4     4     5   ar
     5     5     6   ar
     6     6     7   ar
     7     7     1    1
     8     1     2    2
     9     2    11    1
    10    11    12    2
    11    11    13    1
    12    13    14   ar
    13    14    15   ar
    14    15    16   ar
    15    16    17   ar
    16    17    18   ar
    17     7     8   ar
    18     8     3   ar
    19    18    13   ar
