@<TRIPOS>MOLECULE
*****
 25 27 0 0 0
SMALL
GASTEIGER

@<TRIPOS>ATOM
      1 O         -11.5036  -17.4629   21.7693 O.2     1  UNL1       -0.2262
      2 C         -10.2428  -17.7541   22.5279 C.2     1  UNL1        0.4052
      3 N          -9.1165  -18.4845   21.8587 N.am    1  UNL1       -0.2460
      4 C          -7.8557  -18.7757   22.6173 C.3     1  UNL1        0.0968
      5 C          -6.7294  -19.5061   21.9480 C.3     1  UNL1        0.0234
      6 C          -6.8639  -19.9453   20.5200 C.3     1  UNL1        0.0230
      7 C          -8.1248  -19.6541   19.7614 C.3     1  UNL1        0.0234
      8 C          -9.2511  -18.9236   20.4307 C.3     1  UNL1        0.0968
      9 O         -10.1083  -17.3149   23.9559 O.3     1  UNL1       -0.4295
     10 C          -9.6244  -15.9309   24.2725 C.3     1  UNL1        0.2367
     11 C          -8.2965  -15.7355   24.9423 C.ar    1  UNL1        0.0213
     12 C          -7.0575  -15.5617   24.1148 C.ar    1  UNL1       -0.0007
     13 C          -5.7297  -15.3664   24.7846 C.ar    1  UNL1       -0.0002
     14 C          -5.6408  -15.3448   26.2818 C.ar    1  UNL1       -0.0000
     15 C          -6.8797  -15.5186   27.1092 C.ar    1  UNL1       -0.0002
     16 C          -8.2076  -15.7140   26.4395 C.ar    1  UNL1       -0.0007
     17 C          -5.7377  -20.6757   19.8507 C.3     1  UNL1        0.0883
     18 N          -4.3917  -20.7440   20.5094 N.pl3   1  UNL1       -0.3169
     19 H          -4.1566  -21.5188   21.0694 H       1  UNL1        0.1482
     20 C          -3.4041  -19.6320   20.3147 C.ar    1  UNL1        0.1479
     21 C          -2.1386  -19.6033   21.1196 C.ar    1  UNL1        0.1329
     22 N          -1.1510  -18.4912   20.9249 N.ar    1  UNL1       -0.2378
     23 C          -1.4289  -17.4078   19.9254 C.ar    1  UNL1        0.1196
     24 C          -2.6944  -17.4365   19.1206 C.ar    1  UNL1        0.1209
     25 N          -3.6820  -18.5485   19.3152 N.ar    1  UNL1       -0.2262
@<TRIPOS>BOND
     1     1     2    2
     2     2     9    1
     3     9    10    1
     4    10    11    1
     5    11    12   ar
     6    12    13   ar
     7    13    14   ar
     8    14    15   ar
     9    15    16   ar
    10     2     3   am
    11     3     4    1
    12     4     5    1
    13     5     6    1
    14     6    17    1
    15    17    18    1
    16    18    20    1
    17    20    21   ar
    18    21    22   ar
    19    22    23   ar
    20    23    24   ar
    21    24    25   ar
    22     6     7    1
    23     7     8    1
    24    16    11   ar
    25     8     3    1
    26    25    20   ar
    27    18    19    1
@<TRIPOS>MOLECULE
*****
 25 27 0 0 0
SMALL
GASTEIGER

@<TRIPOS>ATOM
      1 O         -10.8821  -17.2066   21.2869 O.2     1  UNL1       -0.2262
      2 C          -9.8573  -17.7329   22.2476 C.2     1  UNL1        0.4052
      3 N          -8.7340  -18.5930   21.7492 N.am    1  UNL1       -0.2460
      4 C          -7.7093  -19.1193   22.7098 C.3     1  UNL1        0.0968
      5 C          -6.5860  -19.9794   22.2114 C.3     1  UNL1        0.0234
      6 C          -6.4874  -20.3132   20.7523 C.3     1  UNL1        0.0230
      7 C          -7.5122  -19.7869   19.7916 C.3     1  UNL1        0.0234
      8 C          -8.6355  -18.9268   20.2901 C.3     1  UNL1        0.0968
      9 O          -9.9559  -17.3991   23.7067 O.3     1  UNL1       -0.4295
     10 C          -9.5589  -16.0368   24.1929 C.3     1  UNL1        0.2367
     11 C          -8.2265  -15.8344   24.8517 C.ar    1  UNL1        0.0213
     12 C          -6.9888  -15.7003   24.0151 C.ar    1  UNL1       -0.0007
     13 C          -5.6566  -15.4979   24.6739 C.ar    1  UNL1       -0.0002
     14 C          -5.5621  -15.4295   26.1694 C.ar    1  UNL1       -0.0000
     15 C          -6.7998  -15.5636   27.0060 C.ar    1  UNL1       -0.0002
     16 C          -8.1320  -15.7660   26.3471 C.ar    1  UNL1       -0.0007
     17 C          -5.3641  -21.1733   20.2539 C.3     1  UNL1        0.0883
     18 N          -4.1766  -20.5442   19.5876 N.pl3   1  UNL1       -0.3169
     19 H          -3.8529  -20.8939   18.7261 H       1  UNL1        0.1482
     20 C          -3.4821  -19.3823   20.2340 C.ar    1  UNL1        0.1479
     21 C          -3.2082  -18.1377   19.4429 C.ar    1  UNL1        0.1329
     22 N          -2.5137  -16.9758   20.0893 N.ar    1  UNL1       -0.2378
     23 C          -2.0931  -17.0586   21.5267 C.ar    1  UNL1        0.1196
     24 C          -2.3670  -18.3033   22.3178 C.ar    1  UNL1        0.1209
     25 N          -3.0615  -19.4651   21.6715 N.ar    1  UNL1       -0.2262
@<TRIPOS>BOND
     1     1     2    2
     2     2     9    1
     3     9    10    1
     4    10    11    1
     5    11    12   ar
     6    12    13   ar
     7    13    14   ar
     8    14    15   ar
     9    15    16   ar
    10     2     3   am
    11     3     4    1
    12     4     5    1
    13     5     6    1
    14     6    17    1
    15    17    18    1
    16    18    20    1
    17    20    21   ar
    18    21    22   ar
    19    22    23   ar
    20    23    24   ar
    21    24    25   ar
    22     6     7    1
    23     7     8    1
    24    16    11   ar
    25     8     3    1
    26    25    20   ar
    27    18    19    1
@<TRIPOS>MOLECULE
*****
 25 27 0 0 0
SMALL
GASTEIGER

@<TRIPOS>ATOM
      1 O          -6.5063  -14.5686   24.8814 O.2     1  UNL1       -0.2262
      2 C          -6.2037  -15.6596   23.8975 C.2     1  UNL1        0.4052
      3 N          -7.1921  -16.7662   23.6771 N.am    1  UNL1       -0.2460
      4 C          -6.8895  -17.8572   22.6932 C.3     1  UNL1        0.0968
      5 C          -7.8779  -18.9637   22.4727 C.3     1  UNL1        0.0234
      6 C          -9.1690  -18.9792   23.2362 C.3     1  UNL1        0.0230
      7 C          -9.4716  -17.8882   24.2202 C.3     1  UNL1        0.0234
      8 C          -8.4831  -16.7817   24.4406 C.3     1  UNL1        0.0968
      9 O          -4.9126  -15.6441   23.1340 O.3     1  UNL1       -0.4295
     10 C          -3.8163  -16.6022   23.4948 C.3     1  UNL1        0.2367
     11 C          -2.9799  -17.2254   22.4167 C.ar    1  UNL1        0.0213
     12 C          -2.0431  -16.3766   21.6094 C.ar    1  UNL1       -0.0007
     13 C          -1.2068  -16.9998   20.5314 C.ar    1  UNL1       -0.0002
     14 C          -1.3072  -18.4718   20.2608 C.ar    1  UNL1       -0.0000
     15 C          -2.2440  -19.3205   21.0682 C.ar    1  UNL1       -0.0002
     16 C          -3.0804  -18.6974   22.1461 C.ar    1  UNL1       -0.0007
     17 C         -10.1574  -20.0858   23.0158 C.3     1  UNL1        0.0883
     18 N         -11.1843  -19.9686   21.9287 N.pl3   1  UNL1       -0.3169
     19 H         -11.7103  -20.7567   21.6615 H       1  UNL1        0.1482
     20 C         -11.4097  -18.6508   21.2488 C.ar    1  UNL1        0.1479
     21 C         -10.6338  -18.3018   20.0134 C.ar    1  UNL1        0.1329
     22 N         -10.8592  -16.9838   19.3334 N.ar    1  UNL1       -0.2378
     23 C         -11.8605  -16.0149   19.8889 C.ar    1  UNL1        0.1196
     24 C         -12.6364  -16.3639   21.1243 C.ar    1  UNL1        0.1209
     25 N         -12.4110  -17.6818   21.8042 N.ar    1  UNL1       -0.2262
@<TRIPOS>BOND
     1     1     2    2
     2     2     9    1
     3     9    10    1
     4    10    11    1
     5    11    12   ar
     6    12    13   ar
     7    13    14   ar
     8    14    15   ar
     9    15    16   ar
    10     2     3   am
    11     3     4    1
    12     4     5    1
    13     5     6    1
    14     6    17    1
    15    17    18    1
    16    18    20    1
    17    20    21   ar
    18    21    22   ar
    19    22    23   ar
    20    23    24   ar
    21    24    25   ar
    22     6     7    1
    23     7     8    1
    24    16    11   ar
    25     8     3    1
    26    25    20   ar
    27    18    19    1
@<TRIPOS>MOLECULE
*****
 25 27 0 0 0
SMALL
GASTEIGER

@<TRIPOS>ATOM
      1 O          -9.6281  -16.0666   24.7283 O.2     1  UNL1       -0.2262
      2 C          -9.6631  -17.4958   24.2742 C.2     1  UNL1        0.4052
      3 N          -8.5224  -18.0582   23.4789 N.am    1  UNL1       -0.2460
      4 C          -8.5574  -19.4874   23.0248 C.3     1  UNL1        0.0968
      5 C          -7.4167  -20.0498   22.2296 C.3     1  UNL1        0.0234
      6 C          -6.2409  -19.1831   21.8885 C.3     1  UNL1        0.0230
      7 C          -6.2059  -17.7539   22.3426 C.3     1  UNL1        0.0234
      8 C          -7.3467  -17.1915   23.1379 C.3     1  UNL1        0.0968
      9 O         -10.8389  -18.3625   24.6153 O.3     1  UNL1       -0.4295
     10 C         -11.9968  -18.4631   23.6670 C.3     1  UNL1        0.2367
     11 C         -11.8620  -17.9548   22.2622 C.ar    1  UNL1        0.0213
     12 C         -11.2959  -18.8431   21.1943 C.ar    1  UNL1       -0.0007
     13 C         -11.1611  -18.3348   19.7895 C.ar    1  UNL1       -0.0002
     14 C         -11.5924  -16.9383   19.4526 C.ar    1  UNL1       -0.0000
     15 C         -12.1585  -16.0499   20.5205 C.ar    1  UNL1       -0.0002
     16 C         -12.2933  -16.5582   21.9252 C.ar    1  UNL1       -0.0007
     17 C          -5.1002  -19.7455   21.0933 C.3     1  UNL1        0.0883
     18 N          -4.5588  -18.9863   19.9183 N.pl3   1  UNL1       -0.3169
     19 H          -5.0866  -18.9193   19.0900 H       1  UNL1        0.1482
     20 C          -3.2132  -18.3293   20.0055 C.ar    1  UNL1        0.1479
     21 C          -2.1311  -18.7046   19.0367 C.ar    1  UNL1        0.1329
     22 N          -0.7855  -18.0475   19.1239 N.ar    1  UNL1       -0.2378
     23 C          -0.5219  -17.0152   20.1798 C.ar    1  UNL1        0.1196
     24 C          -1.6039  -16.6400   21.1485 C.ar    1  UNL1        0.1209
     25 N          -2.9495  -17.2970   21.0614 N.ar    1  UNL1       -0.2262
@<TRIPOS>BOND
     1     1     2    2
     2     2     9    1
     3     9    10    1
     4    10    11    1
     5    11    12   ar
     6    12    13   ar
     7    13    14   ar
     8    14    15   ar
     9    15    16   ar
    10     2     3   am
    11     3     4    1
    12     4     5    1
    13     5     6    1
    14     6    17    1
    15    17    18    1
    16    18    20    1
    17    20    21   ar
    18    21    22   ar
    19    22    23   ar
    20    23    24   ar
    21    24    25   ar
    22     6     7    1
    23     7     8    1
    24    16    11   ar
    25     8     3    1
    26    25    20   ar
    27    18    19    1
@<TRIPOS>MOLECULE
*****
 25 27 0 0 0
SMALL
GASTEIGER

@<TRIPOS>ATOM
      1 O          -8.9207  -14.9221   26.2619 O.2     1  UNL1       -0.2262
      2 C          -8.7437  -15.6655   24.9712 C.2     1  UNL1        0.4052
      3 N          -7.3768  -16.1118   24.5441 N.am    1  UNL1       -0.2460
      4 C          -7.1999  -16.8553   23.2534 C.3     1  UNL1        0.0968
      5 C          -5.8330  -17.3016   22.8263 C.3     1  UNL1        0.0234
      6 C          -4.6430  -17.0045   23.6899 C.3     1  UNL1        0.0230
      7 C          -4.8200  -16.2610   24.9806 C.3     1  UNL1        0.0234
      8 C          -6.1870  -15.8147   25.4077 C.3     1  UNL1        0.0968
      9 O          -9.9337  -15.9627   24.1076 O.3     1  UNL1       -0.4295
     10 C         -10.3631  -17.3825   23.8853 C.3     1  UNL1        0.2367
     11 C         -10.5036  -17.9138   22.4895 C.ar    1  UNL1        0.0213
     12 C         -10.0665  -19.3132   22.1721 C.ar    1  UNL1       -0.0007
     13 C         -10.2069  -19.8444   20.7764 C.ar    1  UNL1       -0.0002
     14 C         -10.7844  -18.9762   19.6981 C.ar    1  UNL1       -0.0000
     15 C         -11.2215  -17.5769   20.0154 C.ar    1  UNL1       -0.0002
     16 C         -11.0811  -17.0457   21.4111 C.ar    1  UNL1       -0.0007
     17 C          -3.2762  -17.4508   23.2628 C.3     1  UNL1        0.0883
     18 N          -3.1275  -18.5538   22.2571 N.pl3   1  UNL1       -0.3169
     19 H          -3.3882  -19.4734   22.4929 H       1  UNL1        0.1482
     20 C          -2.5817  -18.2556   20.8922 C.ar    1  UNL1        0.1479
     21 C          -1.1137  -18.4046   20.6224 C.ar    1  UNL1        0.1329
     22 N          -0.5680  -18.1064   19.2574 N.ar    1  UNL1       -0.2378
     23 C          -1.4902  -17.6593   18.1621 C.ar    1  UNL1        0.1196
     24 C          -2.9582  -17.5102   18.4319 C.ar    1  UNL1        0.1209
     25 N          -3.5040  -17.8084   19.7969 N.ar    1  UNL1       -0.2262
@<TRIPOS>BOND
     1     1     2    2
     2     2     9    1
     3     9    10    1
     4    10    11    1
     5    11    12   ar
     6    12    13   ar
     7    13    14   ar
     8    14    15   ar
     9    15    16   ar
    10     2     3   am
    11     3     4    1
    12     4     5    1
    13     5     6    1
    14     6    17    1
    15    17    18    1
    16    18    20    1
    17    20    21   ar
    18    21    22   ar
    19    22    23   ar
    20    23    24   ar
    21    24    25   ar
    22     6     7    1
    23     7     8    1
    24    16    11   ar
    25     8     3    1
    26    25    20   ar
    27    18    19    1
@<TRIPOS>MOLECULE
*****
 25 27 0 0 0
SMALL
GASTEIGER

@<TRIPOS>ATOM
      1 O           6.8840   -2.3728   17.5500 O.2     1  UNL1       -0.2262
      2 C           5.8103   -2.5844   18.5760 C.2     1  UNL1        0.4052
      3 N           6.1685   -3.0825   19.9447 N.am    1  UNL1       -0.2460
      4 C           5.0949   -3.2941   20.9706 C.3     1  UNL1        0.0968
      5 C           5.4531   -3.7923   22.3393 C.3     1  UNL1        0.0234
      6 C           6.8850   -4.0789   22.6822 C.3     1  UNL1        0.0230
      7 C           7.9587   -3.8673   21.6563 C.3     1  UNL1        0.0234
      8 C           7.6004   -3.3691   20.2875 C.3     1  UNL1        0.0968
      9 O           4.3784   -2.2977   18.2331 O.3     1  UNL1       -0.4295
     10 C           3.9371   -0.8879   17.9732 C.3     1  UNL1        0.2367
     11 C           2.7498   -0.3278   18.6990 C.ar    1  UNL1        0.0213
     12 C           2.1270   -1.0984   19.8251 C.ar    1  UNL1       -0.0007
     13 C           0.9398   -0.5383   20.5508 C.ar    1  UNL1       -0.0002
     14 C           0.3754    0.7925   20.1503 C.ar    1  UNL1       -0.0000
     15 C           0.9982    1.5632   19.0242 C.ar    1  UNL1       -0.0002
     16 C           2.1854    1.0031   18.2986 C.ar    1  UNL1       -0.0007
     17 C           7.2432   -4.5770   24.0509 C.3     1  UNL1        0.0883
     18 N           6.3718   -4.2387   25.2241 N.pl3   1  UNL1       -0.3169
     19 H           5.5803   -3.6664   25.1005 H       1  UNL1        0.1482
     20 C           6.7064   -4.7722   26.5854 C.ar    1  UNL1        0.1479
     21 C           6.2900   -4.0143   27.8111 C.ar    1  UNL1        0.1329
     22 N           6.6246   -4.5479   29.1726 N.ar    1  UNL1       -0.2378
     23 C           7.3756   -5.8393   29.3082 C.ar    1  UNL1        0.1196
     24 C           7.7920   -6.5971   28.0826 C.ar    1  UNL1        0.1209
     25 N           7.4574   -6.0636   26.7212 N.ar    1  UNL1       -0.2262
@<TRIPOS>BOND
     1     1     2    2
     2     2     9    1
     3     9    10    1
     4    10    11    1
     5    11    12   ar
     6    12    13   ar
     7    13    14   ar
     8    14    15   ar
     9    15    16   ar
    10     2     3   am
    11     3     4    1
    12     4     5    1
    13     5     6    1
    14     6    17    1
    15    17    18    1
    16    18    20    1
    17    20    21   ar
    18    21    22   ar
    19    22    23   ar
    20    23    24   ar
    21    24    25   ar
    22     6     7    1
    23     7     8    1
    24    16    11   ar
    25     8     3    1
    26    25    20   ar
    27    18    19    1
@<TRIPOS>MOLECULE
*****
 25 27 0 0 0
SMALL
GASTEIGER

@<TRIPOS>ATOM
      1 O           6.9199   -0.3819   16.9348 O.2     1  UNL1       -0.2262
      2 C           6.2178   -1.4442   17.7275 C.2     1  UNL1        0.4052
      3 N           6.9494   -2.1768   18.8129 N.am    1  UNL1       -0.2460
      4 C           6.2472   -3.2392   19.6057 C.3     1  UNL1        0.0968
      5 C           6.9788   -3.9717   20.6911 C.3     1  UNL1        0.0234
      6 C           8.4126   -3.6419   20.9838 C.3     1  UNL1        0.0230
      7 C           9.1147   -2.5795   20.1911 C.3     1  UNL1        0.0234
      8 C           8.3831   -1.8470   19.1056 C.3     1  UNL1        0.0968
      9 O           4.7840   -1.7740   17.4348 O.3     1  UNL1       -0.4295
     10 C           3.7680   -0.6755   17.3306 C.3     1  UNL1        0.2367
     11 C           2.8322   -0.4086   18.4722 C.ar    1  UNL1        0.0213
     12 C           1.6807    0.5357   18.2930 C.ar    1  UNL1       -0.0007
     13 C           0.7450    0.8026   19.4346 C.ar    1  UNL1       -0.0002
     14 C           0.9609    0.1252   20.7553 C.ar    1  UNL1       -0.0000
     15 C           2.1124   -0.8192   20.9345 C.ar    1  UNL1       -0.0002
     16 C           3.0481   -1.0861   19.7930 C.ar    1  UNL1       -0.0007
     17 C           9.1441   -4.3745   22.0692 C.3     1  UNL1        0.0883
     18 N           8.7378   -5.7707   22.4372 N.pl3   1  UNL1       -0.3169
     19 H           8.8544   -6.5039   21.7907 H       1  UNL1        0.1482
     20 C           8.1537   -6.0498   23.7904 C.ar    1  UNL1        0.1479
     21 C           8.2363   -7.4296   24.3728 C.ar    1  UNL1        0.1329
     22 N           7.6522   -7.7086   25.7260 N.ar    1  UNL1       -0.2378
     23 C           6.9855   -6.6079   26.4966 C.ar    1  UNL1        0.1196
     24 C           6.9030   -5.2281   25.9142 C.ar    1  UNL1        0.1209
     25 N           7.4870   -4.9490   24.5611 N.ar    1  UNL1       -0.2262
@<TRIPOS>BOND
     1     1     2    2
     2     2     9    1
     3     9    10    1
     4    10    11    1
     5    11    12   ar
     6    12    13   ar
     7    13    14   ar
     8    14    15   ar
     9    15    16   ar
    10     2     3   am
    11     3     4    1
    12     4     5    1
    13     5     6    1
    14     6    17    1
    15    17    18    1
    16    18    20    1
    17    20    21   ar
    18    21    22   ar
    19    22    23   ar
    20    23    24   ar
    21    24    25   ar
    22     6     7    1
    23     7     8    1
    24    16    11   ar
    25     8     3    1
    26    25    20   ar
    27    18    19    1
@<TRIPOS>MOLECULE
*****
 25 27 0 0 0
SMALL
GASTEIGER

@<TRIPOS>ATOM
      1 O          -8.3306  -15.1169   27.1869 O.2     1  UNL1       -0.2262
      2 C          -8.3469  -15.6167   25.7727 C.2     1  UNL1        0.4052
      3 N          -7.0567  -15.9055   25.0644 N.am    1  UNL1       -0.2460
      4 C          -7.0730  -16.4052   23.6502 C.3     1  UNL1        0.0968
      5 C          -5.7827  -16.6941   22.9419 C.3     1  UNL1        0.0234
      6 C          -4.4760  -16.4832   23.6477 C.3     1  UNL1        0.0230
      7 C          -4.4597  -15.9834   25.0620 C.3     1  UNL1        0.0234
      8 C          -5.7501  -15.6946   25.7703 C.3     1  UNL1        0.0968
      9 O          -9.6536  -15.8276   25.0668 O.3     1  UNL1       -0.4295
     10 C         -10.0235  -17.1920   24.5654 C.3     1  UNL1        0.2367
     11 C         -10.6724  -17.3469   23.2219 C.ar    1  UNL1        0.0213
     12 C         -10.6873  -18.6859   22.5461 C.ar    1  UNL1       -0.0007
     13 C         -11.3362  -18.8408   21.2027 C.ar    1  UNL1       -0.0002
     14 C         -11.9702  -17.6566   20.5350 C.ar    1  UNL1       -0.0000
     15 C         -11.9553  -16.3176   21.2108 C.ar    1  UNL1       -0.0002
     16 C         -11.3064  -16.1627   22.5542 C.ar    1  UNL1       -0.0007
     17 C          -3.1858  -16.7720   22.9394 C.3     1  UNL1        0.0883
     18 N          -2.7590  -18.1911   22.7073 N.pl3   1  UNL1       -0.3169
     19 H          -1.9251  -18.5264   23.1092 H       1  UNL1        0.1482
     20 C          -3.6026  -19.0994   21.8628 C.ar    1  UNL1        0.1479
     21 C          -3.1141  -19.5377   20.5140 C.ar    1  UNL1        0.1329
     22 N          -3.9578  -20.4461   19.6695 N.ar    1  UNL1       -0.2378
     23 C          -5.2899  -20.9161   20.1738 C.ar    1  UNL1        0.1196
     24 C          -5.7784  -20.4779   21.5226 C.ar    1  UNL1        0.1209
     25 N          -4.9348  -19.5696   22.3671 N.ar    1  UNL1       -0.2262
@<TRIPOS>BOND
     1     1     2    2
     2     2     9    1
     3     9    10    1
     4    10    11    1
     5    11    12   ar
     6    12    13   ar
     7    13    14   ar
     8    14    15   ar
     9    15    16   ar
    10     2     3   am
    11     3     4    1
    12     4     5    1
    13     5     6    1
    14     6    17    1
    15    17    18    1
    16    18    20    1
    17    20    21   ar
    18    21    22   ar
    19    22    23   ar
    20    23    24   ar
    21    24    25   ar
    22     6     7    1
    23     7     8    1
    24    16    11   ar
    25     8     3    1
    26    25    20   ar
    27    18    19    1
@<TRIPOS>MOLECULE
*****
 25 27 0 0 0
SMALL
GASTEIGER

@<TRIPOS>ATOM
      1 O           9.2947   -3.0093   21.1439 O.2     1  UNL1       -0.2262
      2 C           8.0106   -3.7170   20.8273 C.2     1  UNL1        0.4052
      3 N           6.9947   -3.0650   19.9370 N.am    1  UNL1       -0.2460
      4 C           5.7106   -3.7726   19.6203 C.3     1  UNL1        0.0968
      5 C           4.6947   -3.1206   18.7301 C.3     1  UNL1        0.0234
      6 C           4.9628   -1.7607   18.1564 C.3     1  UNL1        0.0230
      7 C           6.2469   -1.0530   18.4731 C.3     1  UNL1        0.0234
      8 C           7.2629   -1.7052   19.3634 C.3     1  UNL1        0.0968
      9 O           7.7425   -5.0769   21.4009 O.3     1  UNL1       -0.4295
     10 C           8.6566   -5.6433   22.4467 C.3     1  UNL1        0.2367
     11 C           8.1186   -5.9955   23.8019 C.ar    1  UNL1        0.0213
     12 C           7.4084   -4.9579   24.6198 C.ar    1  UNL1       -0.0007
     13 C           6.8705   -5.3102   25.9750 C.ar    1  UNL1       -0.0002
     14 C           7.0428   -6.7000   26.5123 C.ar    1  UNL1       -0.0000
     15 C           7.7530   -7.7376   25.6944 C.ar    1  UNL1       -0.0002
     16 C           8.2909   -7.3853   24.3392 C.ar    1  UNL1       -0.0007
     17 C           3.9469   -1.1086   17.2661 C.3     1  UNL1        0.0883
     18 N           3.4661    0.2798   17.5680 N.pl3   1  UNL1       -0.3169
     19 H           3.9018    1.0545   17.1446 H       1  UNL1        0.1482
     20 C           2.3216    0.4879   18.5150 C.ar    1  UNL1        0.1479
     21 C           1.5283    1.7599   18.4646 C.ar    1  UNL1        0.1329
     22 N           0.3837    1.9680   19.4116 N.ar    1  UNL1       -0.2378
     23 C           0.0326    0.9040   20.4089 C.ar    1  UNL1        0.1196
     24 C           0.8260   -0.3680   20.4593 C.ar    1  UNL1        0.1209
     25 N           1.9705   -0.5761   19.5124 N.ar    1  UNL1       -0.2262
@<TRIPOS>BOND
     1     1     2    2
     2     2     9    1
     3     9    10    1
     4    10    11    1
     5    11    12   ar
     6    12    13   ar
     7    13    14   ar
     8    14    15   ar
     9    15    16   ar
    10     2     3   am
    11     3     4    1
    12     4     5    1
    13     5     6    1
    14     6    17    1
    15    17    18    1
    16    18    20    1
    17    20    21   ar
    18    21    22   ar
    19    22    23   ar
    20    23    24   ar
    21    24    25   ar
    22     6     7    1
    23     7     8    1
    24    16    11   ar
    25     8     3    1
    26    25    20   ar
    27    18    19    1
