@<TRIPOS>MOLECULE
*****
 42 42 0 0 0
SMALL
GASTEIGER

@<TRIPOS>ATOM
      1 C           5.7174   -2.9556   24.1649 C.3     1  UNL1        0.1951
      2 C           5.3605   -1.9163   25.1860 C.2     1  UNL1        0.2503
      3 O           5.5456   -0.4614   24.8716 O.2     1  UNL1       -0.2725
      4 N           4.8186   -2.3321   26.5215 N.am    1  UNL1       -0.2948
      5 H           4.6971   -3.2870   26.7279 H       1  UNL1        0.1499
      6 C           4.4617   -1.2928   27.5426 C.3     1  UNL1        0.1732
      7 C           3.0877   -0.6910   27.5516 C.2     1  UNL1        0.3349
      8 O           2.6868    0.2790   26.4800 O.2     1  UNL1       -0.2483
      9 O           2.1148   -1.0592   28.6323 O.3     1  UNL1       -0.4512
     10 C           1.0878   -0.0651   29.0873 C.3     1  UNL1        0.1691
     11 C           1.5138    1.1678   29.8278 C.3     1  UNL1        0.0473
     12 C          -0.3653   -0.3040   28.8018 C.3     1  UNL1        0.0473
     13 C           5.4788   -0.8554   28.5546 C.3     1  UNL1        0.0564
     14 C           5.6274   -1.6094   29.8428 C.3     1  UNL1        0.1532
     15 S           6.6282   -2.7217   29.9496 S.O2    1  UNL1       -0.0082
     16 C           7.6290   -3.8338   30.0565 C.3     1  UNL1        0.1760
     17 O           7.2354   -2.3008   28.6442 O.2     1  UNL1       -0.1729
     18 O           6.0211   -3.1425   31.2550 O.2     1  UNL1       -0.1729
     19 C           7.0934   -3.5524   24.1515 C.3     1  UNL1        0.0653
     20 C           7.3134   -4.9420   24.6718 C.ar    1  UNL1       -0.0192
     21 C           6.8561   -5.3068   26.0529 C.ar    1  UNL1       -0.0042
     22 C           7.0761   -6.6964   26.5732 C.ar    1  UNL1       -0.0003
     23 C           7.7533   -7.7211   25.7123 C.ar    1  UNL1       -0.0000
     24 C           8.2106   -7.3563   24.3311 C.ar    1  UNL1       -0.0003
     25 C           7.9907   -5.9667   23.8109 C.ar    1  UNL1       -0.0042
     26 O           4.6981   -3.3980   23.1572 O.3     1  UNL1       -0.3453
     27 C           4.2622   -2.4609   22.0702 C.3     1  UNL1        0.1583
     28 C           5.0194   -2.4090   20.7763 C.3     1  UNL1        0.0840
     29 C           5.6187   -3.6609   20.2073 C.3     1  UNL1        0.0169
     30 C           7.0302   -4.0380   20.5467 C.3     1  UNL1        0.0015
     31 C           3.3288   -4.3134   19.1679 C.3     1  UNL1        0.0000
     32 C           4.8064   -4.5356   19.2990 C.3     1  UNL1        0.0014
     33 N           5.1773   -1.1053   20.0514 N.3     1  UNL1       -0.2954
     34 H           6.0595   -0.6997   20.3638 H       1  UNL1        0.1233
     35 C           5.1954   -1.0784   18.5518 C.3     1  UNL1        0.0851
     36 C           3.9291   -0.8180   17.7910 C.3     1  UNL1        0.0774
     37 N           3.8136   -1.2458   16.3580 N.3     1  UNL1       -0.3204
     38 H           2.8928   -0.9917   16.0004 H       1  UNL1        0.1189
     39 H           3.9362   -2.2564   16.2939 H       1  UNL1        0.1189
     40 C           2.7782   -0.1299   18.4633 C.3     1  UNL1        0.0703
     41 S           2.6934    1.3677   18.4585 S.3     1  UNL1       -0.1665
     42 H           3.7218    1.8824   19.1844 H       1  UNL1        0.1023
@<TRIPOS>BOND
     1    31    32    1
     2    32    29    1
     3    29    30    1
     4    29    28    1
     5    28    27    1
     6    27    26    1
     7    26     1    1
     8     1    19    1
     9    19    20    1
    10    20    21   ar
    11    21    22   ar
    12    22    23   ar
    13    23    24   ar
    14    24    25   ar
    15     1     2    1
    16     2     3    2
    17     2     4   am
    18     4     6    1
    19     6    13    1
    20    13    14    1
    21    14    15    1
    22    15    16    1
    23    15    17    2
    24    15    18    2
    25     6     7    1
    26     7     8    2
    27     7     9    1
    28     9    10    1
    29    10    11    1
    30    10    12    1
    31    28    33    1
    32    33    35    1
    33    35    36    1
    34    36    37    1
    35    36    40    1
    36    40    41    1
    37    25    20   ar
    38     4     5    1
    39    33    34    1
    40    37    38    1
    41    37    39    1
    42    41    42    1
@<TRIPOS>MOLECULE
*****
 42 42 0 0 0
SMALL
GASTEIGER

@<TRIPOS>ATOM
      1 C         -13.4543   -5.2350   16.5861 C.3     1  UNL1        0.1951
      2 C         -14.6262   -5.9869   17.1441 C.2     1  UNL1        0.2503
      3 O         -15.7376   -6.4242   16.2367 O.2     1  UNL1       -0.2725
      4 N         -14.6867   -6.3013   18.6096 N.am    1  UNL1       -0.2948
      5 H         -13.9572   -6.0143   19.2052 H       1  UNL1        0.1499
      6 C         -15.8586   -7.0531   19.1676 C.3     1  UNL1        0.1732
      7 C         -15.7959   -8.5456   19.3045 C.2     1  UNL1        0.3349
      8 O         -14.6538   -9.3069   18.6996 O.2     1  UNL1       -0.2483
      9 O         -16.8754   -9.2767   20.0462 O.3     1  UNL1       -0.4512
     10 C         -18.1470   -9.6506   19.3439 C.3     1  UNL1        0.1691
     11 C         -19.4670   -9.1877   19.8856 C.3     1  UNL1        0.0473
     12 C         -18.0986  -10.4873   18.1000 C.3     1  UNL1        0.0473
     13 C         -17.0932   -6.3126   19.5886 C.3     1  UNL1        0.0564
     14 C         -17.2175   -4.8435   19.3122 C.3     1  UNL1        0.1532
     15 S         -18.5359   -4.1536   19.5016 S.O2    1  UNL1       -0.0082
     16 C         -19.8543   -3.4637   19.6911 C.3     1  UNL1        0.1760
     17 O         -19.2195   -5.2511   18.7413 O.2     1  UNL1       -0.1729
     18 O         -17.8523   -3.0561   20.2619 O.2     1  UNL1       -0.1729
     19 C         -12.1933   -5.9665   16.2327 C.3     1  UNL1        0.0653
     20 C         -11.1541   -6.2210   17.2840 C.ar    1  UNL1       -0.0192
     21 C         -10.6244   -5.0835   18.1058 C.ar    1  UNL1       -0.0042
     22 C          -9.5852   -5.3380   19.1571 C.ar    1  UNL1       -0.0003
     23 C          -9.0756   -6.7300   19.3865 C.ar    1  UNL1       -0.0000
     24 C          -9.6053   -7.8675   18.5647 C.ar    1  UNL1       -0.0003
     25 C         -10.6445   -7.6130   17.5134 C.ar    1  UNL1       -0.0042
     26 O         -13.5433   -3.7517   16.3816 O.3     1  UNL1       -0.3453
     27 C         -14.7536   -3.0010   16.8524 C.3     1  UNL1        0.1583
     28 C         -14.7044   -2.2292   18.1377 C.3     1  UNL1        0.0840
     29 C         -13.4314   -2.1699   18.9288 C.3     1  UNL1        0.0169
     30 C         -13.1762   -3.1722   20.0152 C.3     1  UNL1        0.0015
     31 C         -11.0848   -1.4854   18.0485 C.3     1  UNL1        0.0000
     32 C         -12.4136   -1.1084   18.6334 C.3     1  UNL1        0.0014
     33 N         -15.9284   -1.5167   18.6320 N.3     1  UNL1       -0.2954
     34 H         -16.1641   -1.9282   19.5350 H       1  UNL1        0.1233
     35 C         -15.9031   -0.0297   18.8271 C.3     1  UNL1        0.0851
     36 C         -16.7917    0.6072   19.8541 C.3     1  UNL1        0.0774
     37 N         -17.5851   -0.2504   20.7948 N.3     1  UNL1       -0.3204
     38 H         -18.1291    0.3442   21.4202 H       1  UNL1        0.1189
     39 H         -16.9504   -0.8303   21.3437 H       1  UNL1        0.1189
     40 C         -16.8867    2.1017   19.9405 C.3     1  UNL1        0.0703
     41 S         -15.6638    2.9444   19.7303 S.3     1  UNL1       -0.1665
     42 H         -14.7765    2.7144   20.7350 H       1  UNL1        0.1023
@<TRIPOS>BOND
     1    31    32    1
     2    32    29    1
     3    29    30    1
     4    29    28    1
     5    28    27    1
     6    27    26    1
     7    26     1    1
     8     1    19    1
     9    19    20    1
    10    20    21   ar
    11    21    22   ar
    12    22    23   ar
    13    23    24   ar
    14    24    25   ar
    15     1     2    1
    16     2     3    2
    17     2     4   am
    18     4     6    1
    19     6    13    1
    20    13    14    1
    21    14    15    1
    22    15    16    1
    23    15    17    2
    24    15    18    2
    25     6     7    1
    26     7     8    2
    27     7     9    1
    28     9    10    1
    29    10    11    1
    30    10    12    1
    31    28    33    1
    32    33    35    1
    33    35    36    1
    34    36    37    1
    35    36    40    1
    36    40    41    1
    37    25    20   ar
    38     4     5    1
    39    33    34    1
    40    37    38    1
    41    37    39    1
    42    41    42    1
@<TRIPOS>MOLECULE
*****
 42 42 0 0 0
SMALL
GASTEIGER

@<TRIPOS>ATOM
      1 C           4.7052   -2.5493   23.5802 C.3     1  UNL1        0.1951
      2 C           5.7832   -2.6625   24.6171 C.2     1  UNL1        0.2503
      3 O           6.5690   -1.4492   25.0176 O.2     1  UNL1       -0.2725
      4 N           6.0753   -3.9891   25.2535 N.am    1  UNL1       -0.2948
      5 H           5.5595   -4.7854   24.9907 H       1  UNL1        0.1499
      6 C           7.1532   -4.1023   26.2905 C.3     1  UNL1        0.1732
      7 C           8.5452   -4.4883   25.8861 C.2     1  UNL1        0.3349
      8 O           9.4736   -3.4575   25.3156 O.2     1  UNL1       -0.2483
      9 O           9.0088   -5.9052   26.0524 O.3     1  UNL1       -0.4512
     10 C           8.2468   -7.0243   25.4067 C.3     1  UNL1        0.1691
     11 C           7.2699   -7.8289   26.2118 C.3     1  UNL1        0.0473
     12 C           8.4618   -7.3387   23.9559 C.3     1  UNL1        0.0473
     13 C           6.8392   -3.8295   27.7316 C.3     1  UNL1        0.0564
     14 C           7.0836   -4.8881   28.7658 C.3     1  UNL1        0.1532
     15 S           6.9674   -4.5536   30.2235 S.O2    1  UNL1       -0.0082
     16 C           6.8511   -4.2191   31.6811 C.3     1  UNL1        0.1760
     17 O           7.2265   -3.1092   29.9127 O.2     1  UNL1       -0.1729
     18 O           6.7083   -5.9979   30.5343 O.2     1  UNL1       -0.1729
     19 C           4.5348   -3.6302   22.5544 C.3     1  UNL1        0.0653
     20 C           4.9152   -3.3754   21.1260 C.ar    1  UNL1       -0.0192
     21 C           4.1258   -4.0038   20.0161 C.ar    1  UNL1       -0.0042
     22 C           4.5062   -3.7489   18.5876 C.ar    1  UNL1       -0.0003
     23 C           5.6759   -2.8656   18.2691 C.ar    1  UNL1       -0.0000
     24 C           6.4653   -2.2372   19.3791 C.ar    1  UNL1       -0.0003
     25 C           6.0849   -2.4921   20.8075 C.ar    1  UNL1       -0.0042
     26 O           3.7976   -1.3550   23.5692 O.3     1  UNL1       -0.3453
     27 C           4.1329   -0.1660   22.7184 C.3     1  UNL1        0.1583
     28 C           3.0966    0.4190   21.8051 C.3     1  UNL1        0.0840
     29 C           2.9197   -0.1318   20.4212 C.3     1  UNL1        0.0169
     30 C           1.8345   -1.1296   20.1443 C.3     1  UNL1        0.0015
     31 C           3.4537    0.0538   17.8854 C.3     1  UNL1        0.0000
     32 C           3.8279    0.3151   19.3143 C.3     1  UNL1        0.0014
     33 N           2.2373    1.5548   22.2759 N.3     1  UNL1       -0.2954
     34 H           2.0804    2.1592   21.4694 H       1  UNL1        0.1233
     35 C           0.8916    1.2777   22.8776 C.3     1  UNL1        0.0851
     36 C           0.7410    1.1834   24.3671 C.3     1  UNL1        0.0774
     37 N           1.6593    0.3009   25.1593 N.3     1  UNL1       -0.3204
     38 H           1.4161    0.3577   26.1483 H       1  UNL1        0.1189
     39 H           2.6231    0.6080   25.0280 H       1  UNL1        0.1189
     40 C          -0.3278    1.9717   25.0642 C.3     1  UNL1        0.0703
     41 S          -0.4034    1.9714   26.5623 S.3     1  UNL1       -0.1665
     42 H          -0.7192    0.7231   27.0000 H       1  UNL1        0.1023
@<TRIPOS>BOND
     1    31    32    1
     2    32    29    1
     3    29    30    1
     4    29    28    1
     5    28    27    1
     6    27    26    1
     7    26     1    1
     8     1    19    1
     9    19    20    1
    10    20    21   ar
    11    21    22   ar
    12    22    23   ar
    13    23    24   ar
    14    24    25   ar
    15     1     2    1
    16     2     3    2
    17     2     4   am
    18     4     6    1
    19     6    13    1
    20    13    14    1
    21    14    15    1
    22    15    16    1
    23    15    17    2
    24    15    18    2
    25     6     7    1
    26     7     8    2
    27     7     9    1
    28     9    10    1
    29    10    11    1
    30    10    12    1
    31    28    33    1
    32    33    35    1
    33    35    36    1
    34    36    37    1
    35    36    40    1
    36    40    41    1
    37    25    20   ar
    38     4     5    1
    39    33    34    1
    40    37    38    1
    41    37    39    1
    42    41    42    1
@<TRIPOS>MOLECULE
*****
 42 42 0 0 0
SMALL
GASTEIGER

@<TRIPOS>ATOM
      1 C           4.1673   -1.2316   22.5406 C.3     1  UNL1        0.1951
      2 C           3.7614   -0.0980   23.4353 C.2     1  UNL1        0.2503
      3 O           4.2801    1.2852   23.1755 O.2     1  UNL1       -0.2725
      4 N           2.8368   -0.3478   24.5898 N.am    1  UNL1       -0.2948
      5 H           2.4964   -1.2557   24.7603 H       1  UNL1        0.1499
      6 C           2.4310    0.7857   25.4845 C.3     1  UNL1        0.1732
      7 C           1.1548    1.5290   25.2213 C.2     1  UNL1        0.3349
      8 O           0.4171    1.3196   23.9322 O.2     1  UNL1       -0.2483
      9 O           0.6165    2.4816   26.2474 O.3     1  UNL1       -0.4512
     10 C          -0.6809    2.1845   26.9389 C.3     1  UNL1        0.1691
     11 C          -1.8689    3.0735   26.7188 C.3     1  UNL1        0.0473
     12 C          -0.7904    0.9985   27.8506 C.3     1  UNL1        0.0473
     13 C           3.3012    1.1760   26.6422 C.3     1  UNL1        0.0564
     14 C           3.8484    0.1216   27.5581 C.3     1  UNL1        0.1532
     15 S           3.2039   -0.1225   28.8904 S.O2    1  UNL1       -0.0082
     16 C           2.5594   -0.3666   30.2227 C.3     1  UNL1        0.1760
     17 O           2.3737   -1.2171   28.2883 O.2     1  UNL1       -0.1729
     18 O           4.0341    0.9721   29.4925 O.2     1  UNL1       -0.1729
     19 C           3.1840   -1.8051   21.5638 C.3     1  UNL1        0.0653
     20 C           2.5601   -0.9238   20.5226 C.ar    1  UNL1       -0.0192
     21 C           1.1922   -0.3508   20.7468 C.ar    1  UNL1       -0.0042
     22 C           0.5683    0.5305   19.7055 C.ar    1  UNL1       -0.0003
     23 C           1.3124    0.8388   18.4402 C.ar    1  UNL1       -0.0000
     24 C           2.6804    0.2657   18.2160 C.ar    1  UNL1       -0.0003
     25 C           3.3043   -0.6155   19.2572 C.ar    1  UNL1       -0.0042
     26 O           5.5564   -1.7915   22.6228 O.3     1  UNL1       -0.3453
     27 C           6.3475   -2.0220   21.3694 C.3     1  UNL1        0.1583
     28 C           6.3465   -3.3741   20.7198 C.3     1  UNL1        0.0840
     29 C           5.7066   -3.5600   19.3760 C.3     1  UNL1        0.0169
     30 C           6.0381   -2.6242   18.2516 C.3     1  UNL1        0.0015
     31 C           3.2646   -4.3963   19.0803 C.3     1  UNL1        0.0000
     32 C           4.7352   -4.6818   19.1565 C.3     1  UNL1        0.0014
     33 N           6.9853   -4.5403   21.4142 N.3     1  UNL1       -0.2954
     34 H           7.6061   -4.9825   20.7363 H       1  UNL1        0.1233
     35 C           7.7905   -4.3217   22.6607 C.3     1  UNL1        0.0851
     36 C           7.2410   -4.7417   23.9917 C.3     1  UNL1        0.0774
     37 N           6.1305   -3.9577   24.6259 N.3     1  UNL1       -0.3204
     38 H           5.8832   -4.3811   25.5203 H       1  UNL1        0.1189
     39 H           5.3168   -3.9624   24.0108 H       1  UNL1        0.1189
     40 C           7.8021   -5.9456   24.6887 C.3     1  UNL1        0.0703
     41 S           8.4904   -7.0176   23.8969 S.3     1  UNL1       -0.1665
     42 H           7.5898   -7.6268   23.0799 H       1  UNL1        0.1023
@<TRIPOS>BOND
     1    31    32    1
     2    32    29    1
     3    29    30    1
     4    29    28    1
     5    28    27    1
     6    27    26    1
     7    26     1    1
     8     1    19    1
     9    19    20    1
    10    20    21   ar
    11    21    22   ar
    12    22    23   ar
    13    23    24   ar
    14    24    25   ar
    15     1     2    1
    16     2     3    2
    17     2     4   am
    18     4     6    1
    19     6    13    1
    20    13    14    1
    21    14    15    1
    22    15    16    1
    23    15    17    2
    24    15    18    2
    25     6     7    1
    26     7     8    2
    27     7     9    1
    28     9    10    1
    29    10    11    1
    30    10    12    1
    31    28    33    1
    32    33    35    1
    33    35    36    1
    34    36    37    1
    35    36    40    1
    36    40    41    1
    37    25    20   ar
    38     4     5    1
    39    33    34    1
    40    37    38    1
    41    37    39    1
    42    41    42    1
@<TRIPOS>MOLECULE
*****
 42 42 0 0 0
SMALL
GASTEIGER

@<TRIPOS>ATOM
      1 C           5.6845   -2.9385   24.3576 C.3     1  UNL1        0.1951
      2 C           5.4789   -1.9688   25.4834 C.2     1  UNL1        0.2503
      3 O           5.9507   -0.5514   25.3478 O.2     1  UNL1       -0.2725
      4 N           4.8015   -2.4164   26.7446 N.am    1  UNL1       -0.2948
      5 H           4.4919   -3.3467   26.8336 H       1  UNL1        0.1499
      6 C           4.5959   -1.4467   27.8704 C.3     1  UNL1        0.1732
      7 C           3.3732   -0.5780   27.8981 C.2     1  UNL1        0.3349
      8 O           2.2054   -0.9543   28.7609 O.2     1  UNL1       -0.2483
      9 O           3.3186    0.6668   27.0631 O.3     1  UNL1       -0.4512
     10 C           2.2807    0.8044   25.9889 C.3     1  UNL1        0.1691
     11 C           2.5309    0.2292   24.6263 C.3     1  UNL1        0.0473
     12 C           0.9928    1.5171   26.2772 C.3     1  UNL1        0.0473
     13 C           5.6129   -1.3455   28.9683 C.3     1  UNL1        0.0564
     14 C           6.4373   -2.5423   29.3396 C.3     1  UNL1        0.1532
     15 S           6.4522   -3.0322   30.7573 S.O2    1  UNL1       -0.0082
     16 C           6.4671   -3.5222   32.1749 C.3     1  UNL1        0.1760
     17 O           6.3076   -1.6216   31.2463 O.2     1  UNL1       -0.1729
     18 O           6.5968   -4.4428   30.2682 O.2     1  UNL1       -0.1729
     19 C           7.0326   -3.5589   24.1389 C.3     1  UNL1        0.0653
     20 C           7.3066   -4.9498   24.6290 C.ar    1  UNL1       -0.0192
     21 C           6.8764   -5.3579   26.0068 C.ar    1  UNL1       -0.0042
     22 C           7.1504   -6.7488   26.4969 C.ar    1  UNL1       -0.0003
     23 C           7.8546   -7.7317   25.6092 C.ar    1  UNL1       -0.0000
     24 C           8.2848   -7.3236   24.2314 C.ar    1  UNL1       -0.0003
     25 C           8.0108   -5.9327   23.7413 C.ar    1  UNL1       -0.0042
     26 O           4.5420   -3.2880   23.4506 O.3     1  UNL1       -0.3453
     27 C           4.7982   -3.5904   22.0040 C.3     1  UNL1        0.1583
     28 C           4.7659   -2.4858   20.9896 C.3     1  UNL1        0.0840
     29 C           4.0443   -1.2070   21.2961 C.3     1  UNL1        0.0169
     30 C           4.8130   -0.0039   21.7561 C.3     1  UNL1        0.0015
     31 C           1.9566   -0.4212   19.9644 C.3     1  UNL1        0.0000
     32 C           2.5541   -1.1313   21.1427 C.3     1  UNL1        0.0014
     33 N           5.4551   -2.6600   19.6688 N.3     1  UNL1       -0.2954
     34 H           5.9201   -3.5674   19.6968 H       1  UNL1        0.1233
     35 C           4.6606   -2.6197   18.3972 C.3     1  UNL1        0.0851
     36 C           4.6571   -1.3791   17.5540 C.3     1  UNL1        0.0774
     37 N           3.7690   -1.2942   16.3483 N.3     1  UNL1       -0.3204
     38 H           3.8939   -0.3879   15.8971 H       1  UNL1        0.1189
     39 H           2.7958   -1.4001   16.6347 H       1  UNL1        0.1189
     40 C           5.5419   -0.2233   17.9166 C.3     1  UNL1        0.0703
     41 S           4.9499    1.1403   18.1172 S.3     1  UNL1       -0.1665
     42 H           4.4520    1.5965   16.9367 H       1  UNL1        0.1023
@<TRIPOS>BOND
     1    31    32    1
     2    32    29    1
     3    29    30    1
     4    29    28    1
     5    28    27    1
     6    27    26    1
     7    26     1    1
     8     1    19    1
     9    19    20    1
    10    20    21   ar
    11    21    22   ar
    12    22    23   ar
    13    23    24   ar
    14    24    25   ar
    15     1     2    1
    16     2     3    2
    17     2     4   am
    18     4     6    1
    19     6    13    1
    20    13    14    1
    21    14    15    1
    22    15    16    1
    23    15    17    2
    24    15    18    2
    25     6     7    1
    26     7     8    2
    27     7     9    1
    28     9    10    1
    29    10    11    1
    30    10    12    1
    31    28    33    1
    32    33    35    1
    33    35    36    1
    34    36    37    1
    35    36    40    1
    36    40    41    1
    37    25    20   ar
    38     4     5    1
    39    33    34    1
    40    37    38    1
    41    37    39    1
    42    41    42    1
@<TRIPOS>MOLECULE
*****
 42 42 0 0 0
SMALL
GASTEIGER

@<TRIPOS>ATOM
      1 C           1.8953    3.1034   33.2246 C.3     1  UNL1        0.1951
      2 C           2.8142    2.9138   34.3950 C.2     1  UNL1        0.2503
      3 O           4.0758    3.7189   34.4961 O.2     1  UNL1       -0.2725
      4 N           2.4715    1.9192   35.4642 N.am    1  UNL1       -0.2948
      5 H           1.6434    1.3908   35.3979 H       1  UNL1        0.1499
      6 C           3.3904    1.7296   36.6346 C.3     1  UNL1        0.1732
      7 C           3.1754    2.5182   37.8924 C.2     1  UNL1        0.3349
      8 O           3.3232    4.0108   37.8764 O.2     1  UNL1       -0.2483
      9 O           2.8125    1.8141   39.1662 O.3     1  UNL1       -0.4512
     10 C           1.4108    1.3244   39.3794 C.3     1  UNL1        0.1691
     11 C           1.1564   -0.1305   39.6415 C.3     1  UNL1        0.0473
     12 C           0.2637    2.2895   39.3305 C.3     1  UNL1        0.0473
     13 C           4.5243    0.7516   36.5471 C.3     1  UNL1        0.0564
     14 C           4.3810   -0.4907   35.7187 C.3     1  UNL1        0.1532
     15 S           4.9652   -0.5429   34.3380 S.O2    1  UNL1       -0.0082
     16 C           5.5494   -0.5951   32.9575 C.3     1  UNL1        0.1760
     17 O           3.9246   -1.5454   33.9356 O.2     1  UNL1       -0.1729
     18 O           6.0059    0.4596   34.7405 O.2     1  UNL1       -0.1729
     19 C           1.5366    4.4868   32.7691 C.3     1  UNL1        0.0653
     20 C           0.4986    5.2753   33.5112 C.ar    1  UNL1       -0.0192
     21 C           0.8069    5.8277   34.8713 C.ar    1  UNL1       -0.0042
     22 C          -0.2311    6.6162   35.6134 C.ar    1  UNL1       -0.0003
     23 C          -1.5774    6.8524   34.9955 C.ar    1  UNL1       -0.0000
     24 C          -1.8856    6.3000   33.6355 C.ar    1  UNL1       -0.0003
     25 C          -0.8476    5.5114   32.8933 C.ar    1  UNL1       -0.0042
     26 O           1.3350    1.9095   32.5099 O.3     1  UNL1       -0.3453
     27 C           0.6480    2.0812   31.1876 C.3     1  UNL1        0.1583
     28 C           0.8761    1.0856   30.0890 C.3     1  UNL1        0.0840
     29 C           0.2974    1.3266   28.7263 C.3     1  UNL1        0.0169
     30 C           1.0867    2.0833   27.6995 C.3     1  UNL1        0.0015
     31 C          -1.4905   -0.5545   28.8475 C.3     1  UNL1        0.0000
     32 C          -1.0706    0.8111   28.3905 C.3     1  UNL1        0.0014
     33 N           1.6828   -0.1511   30.3532 N.3     1  UNL1       -0.2954
     34 H           1.2872   -0.8904   29.7724 H       1  UNL1        0.1233
     35 C           3.1619   -0.1492   30.1037 C.3     1  UNL1        0.0851
     36 C           3.7110   -0.7527   28.8450 C.3     1  UNL1        0.0774
     37 N           2.7767   -1.2486   27.7815 N.3     1  UNL1       -0.3204
     38 H           3.3173   -1.6243   27.0023 H       1  UNL1        0.1189
     39 H           2.1964   -0.4772   27.4521 H       1  UNL1        0.1189
     40 C           5.1943   -0.8603   28.6499 C.3     1  UNL1        0.0703
     41 S           5.7745   -0.8099   27.2676 S.3     1  UNL1       -0.1665
     42 H           5.3729   -1.9043   26.5672 H       1  UNL1        0.1023
@<TRIPOS>BOND
     1    31    32    1
     2    32    29    1
     3    29    30    1
     4    29    28    1
     5    28    27    1
     6    27    26    1
     7    26     1    1
     8     1    19    1
     9    19    20    1
    10    20    21   ar
    11    21    22   ar
    12    22    23   ar
    13    23    24   ar
    14    24    25   ar
    15     1     2    1
    16     2     3    2
    17     2     4   am
    18     4     6    1
    19     6    13    1
    20    13    14    1
    21    14    15    1
    22    15    16    1
    23    15    17    2
    24    15    18    2
    25     6     7    1
    26     7     8    2
    27     7     9    1
    28     9    10    1
    29    10    11    1
    30    10    12    1
    31    28    33    1
    32    33    35    1
    33    35    36    1
    34    36    37    1
    35    36    40    1
    36    40    41    1
    37    25    20   ar
    38     4     5    1
    39    33    34    1
    40    37    38    1
    41    37    39    1
    42    41    42    1
@<TRIPOS>MOLECULE
*****
 42 42 0 0 0
SMALL
GASTEIGER

@<TRIPOS>ATOM
      1 C           4.7477   -2.8318   23.2322 C.3     1  UNL1        0.1951
      2 C           5.6464   -2.8796   24.4322 C.2     1  UNL1        0.2503
      3 O           6.0720   -1.6066   25.1017 O.2     1  UNL1       -0.2725
      4 N           6.1195   -4.2005   24.9628 N.am    1  UNL1       -0.2948
      5 H           5.8402   -5.0361   24.5234 H       1  UNL1        0.1499
      6 C           7.0182   -4.2483   26.1628 C.3     1  UNL1        0.1732
      7 C           8.4891   -4.4858   25.9893 C.2     1  UNL1        0.3349
      8 O           9.4089   -3.3313   25.7228 O.2     1  UNL1       -0.2483
      9 O           9.0402   -5.8778   26.0823 O.3     1  UNL1       -0.4512
     10 C           8.2898   -7.0239   25.4713 C.3     1  UNL1        0.1691
     11 C           8.3591   -7.2622   23.9919 C.3     1  UNL1        0.0473
     12 C           7.4701   -7.9316   26.3396 C.3     1  UNL1        0.0473
     13 C           6.4460   -4.0587   27.5364 C.3     1  UNL1        0.0564
     14 C           6.8031   -5.0142   28.6361 C.3     1  UNL1        0.1532
     15 S           6.8191   -4.5456   30.0610 S.O2    1  UNL1       -0.0082
     16 C           6.8350   -4.0770   31.4858 C.3     1  UNL1        0.1760
     17 O           6.7643   -5.9694   30.5299 O.2     1  UNL1       -0.1729
     18 O           6.8738   -3.1219   29.5922 O.2     1  UNL1       -0.1729
     19 C           4.9643   -3.7851   22.0946 C.3     1  UNL1        0.0653
     20 C           5.5294   -3.2883   20.7970 C.ar    1  UNL1       -0.0192
     21 C           4.8023   -3.5531   19.5120 C.ar    1  UNL1       -0.0042
     22 C           5.3674   -3.0563   18.2144 C.ar    1  UNL1       -0.0003
     23 C           6.6596   -2.2947   18.2017 C.ar    1  UNL1       -0.0000
     24 C           7.3867   -2.0298   19.4867 C.ar    1  UNL1       -0.0003
     25 C           6.8215   -2.5267   20.7843 C.ar    1  UNL1       -0.0042
     26 O           3.6324   -1.8306   23.1699 O.3     1  UNL1       -0.3453
     27 C           3.8543   -0.5006   22.5128 C.3     1  UNL1        0.1583
     28 C           3.6952   -0.3619   21.0277 C.3     1  UNL1        0.0840
     29 C           4.6575    0.4823   20.2459 C.3     1  UNL1        0.0169
     30 C           5.8099    1.1447   20.9408 C.3     1  UNL1        0.0015
     31 C           4.2716    2.0386   18.2016 C.3     1  UNL1        0.0000
     32 C           4.4674    0.6640   18.7691 C.3     1  UNL1        0.0014
     33 N           2.5736   -1.0673   20.3244 N.3     1  UNL1       -0.2954
     34 H           2.5988   -2.0396   20.6317 H       1  UNL1        0.1233
     35 C           1.1615   -0.5936   20.5016 C.3     1  UNL1        0.0851
     36 C           0.6754    0.6120   19.7531 C.3     1  UNL1        0.0774
     37 N           0.8901    0.7123   18.2720 N.3     1  UNL1       -0.3204
     38 H           0.4995    1.5904   17.9305 H       1  UNL1        0.1189
     39 H           0.4273   -0.0691   17.8077 H       1  UNL1        0.1189
     40 C          -0.0254    1.7174   20.4858 C.3     1  UNL1        0.0703
     41 S           0.5027    2.1948   21.8062 S.3     1  UNL1       -0.1665
     42 H           0.3854    1.2011   22.7273 H       1  UNL1        0.1023
@<TRIPOS>BOND
     1    31    32    1
     2    32    29    1
     3    29    30    1
     4    29    28    1
     5    28    27    1
     6    27    26    1
     7    26     1    1
     8     1    19    1
     9    19    20    1
    10    20    21   ar
    11    21    22   ar
    12    22    23   ar
    13    23    24   ar
    14    24    25   ar
    15     1     2    1
    16     2     3    2
    17     2     4   am
    18     4     6    1
    19     6    13    1
    20    13    14    1
    21    14    15    1
    22    15    16    1
    23    15    17    2
    24    15    18    2
    25     6     7    1
    26     7     8    2
    27     7     9    1
    28     9    10    1
    29    10    11    1
    30    10    12    1
    31    28    33    1
    32    33    35    1
    33    35    36    1
    34    36    37    1
    35    36    40    1
    36    40    41    1
    37    25    20   ar
    38     4     5    1
    39    33    34    1
    40    37    38    1
    41    37    39    1
    42    41    42    1
@<TRIPOS>MOLECULE
*****
 42 42 0 0 0
SMALL
GASTEIGER

@<TRIPOS>ATOM
      1 C         -14.5618   -4.5936   19.0740 C.3     1  UNL1        0.1951
      2 C         -15.2777   -3.2983   18.8299 C.2     1  UNL1        0.2503
      3 O         -15.6168   -2.8811   17.4296 O.2     1  UNL1       -0.2725
      4 N         -15.6545   -2.4201   19.9862 N.am    1  UNL1       -0.2948
      5 H         -15.4319   -2.6940   20.9053 H       1  UNL1        0.1499
      6 C         -16.3704   -1.1248   19.7421 C.3     1  UNL1        0.1732
      7 C         -17.8699   -1.0872   19.7310 C.2     1  UNL1        0.3349
      8 O         -18.6144   -0.5124   20.8994 O.2     1  UNL1       -0.2483
      9 O         -18.6249   -1.6243   18.5513 O.3     1  UNL1       -0.4512
     10 C         -19.0027   -3.0750   18.5000 C.3     1  UNL1        0.1691
     11 C         -19.4846   -3.6795   17.2146 C.3     1  UNL1        0.0473
     12 C         -18.8987   -3.9212   19.7342 C.3     1  UNL1        0.0473
     13 C         -15.5868    0.1329   19.5092 C.3     1  UNL1        0.0564
     14 C         -16.2921    1.3898   19.0934 C.3     1  UNL1        0.1532
     15 S         -15.9983    2.6821   19.7961 S.O2    1  UNL1       -0.0082
     16 C         -15.7045    3.9743   20.4988 C.3     1  UNL1        0.1760
     17 O         -14.6875    2.7772   19.0731 O.2     1  UNL1       -0.1729
     18 O         -17.3090    2.5869   20.5191 O.2     1  UNL1       -0.1729
     19 C         -15.1995   -5.6550   19.9205 C.3     1  UNL1        0.0653
     20 C         -15.5571   -6.9811   19.3174 C.ar    1  UNL1       -0.0192
     21 C         -16.9670   -7.4863   19.3989 C.ar    1  UNL1       -0.0042
     22 C         -17.3246   -8.8124   18.7959 C.ar    1  UNL1       -0.0003
     23 C         -16.2722   -9.6332   18.1113 C.ar    1  UNL1       -0.0000
     24 C         -14.8622   -9.1280   18.0298 C.ar    1  UNL1       -0.0003
     25 C         -14.5047   -7.8019   18.6329 C.ar    1  UNL1       -0.0042
     26 O         -13.2081   -4.8275   18.4715 O.3     1  UNL1       -0.3453
     27 C         -11.9764   -4.6811   19.3148 C.3     1  UNL1        0.1583
     28 C         -10.7312   -4.0861   18.7269 C.3     1  UNL1        0.0840
     29 C          -9.7601   -4.9580   17.9876 C.3     1  UNL1        0.0169
     30 C          -9.0771   -4.4427   16.7556 C.3     1  UNL1        0.0015
     31 C         -10.2408   -7.5106   17.9323 C.3     1  UNL1        0.0000
     32 C          -9.4719   -6.3451   18.4804 C.3     1  UNL1        0.0014
     33 N         -10.4572   -2.6191   18.8784 N.3     1  UNL1       -0.2954
     34 H          -9.6649   -2.4035   18.2734 H       1  UNL1        0.1233
     35 C         -11.5292   -1.6192   18.5607 C.3     1  UNL1        0.0851
     36 C         -11.9884   -1.4364   17.1445 C.3     1  UNL1        0.0774
     37 N         -12.7427   -2.5331   16.4531 N.3     1  UNL1       -0.3204
     38 H         -12.9744   -2.2404   15.5039 H       1  UNL1        0.1189
     39 H         -13.6012   -2.7315   16.9668 H       1  UNL1        0.1189
     40 C         -11.6933   -0.1567   16.4197 C.3     1  UNL1        0.0703
     41 S         -12.1013    1.1562   17.0194 S.3     1  UNL1       -0.1665
     42 H         -13.4585    1.2301   17.0682 H       1  UNL1        0.1023
@<TRIPOS>BOND
     1    31    32    1
     2    32    29    1
     3    29    30    1
     4    29    28    1
     5    28    27    1
     6    27    26    1
     7    26     1    1
     8     1    19    1
     9    19    20    1
    10    20    21   ar
    11    21    22   ar
    12    22    23   ar
    13    23    24   ar
    14    24    25   ar
    15     1     2    1
    16     2     3    2
    17     2     4   am
    18     4     6    1
    19     6    13    1
    20    13    14    1
    21    14    15    1
    22    15    16    1
    23    15    17    2
    24    15    18    2
    25     6     7    1
    26     7     8    2
    27     7     9    1
    28     9    10    1
    29    10    11    1
    30    10    12    1
    31    28    33    1
    32    33    35    1
    33    35    36    1
    34    36    37    1
    35    36    40    1
    36    40    41    1
    37    25    20   ar
    38     4     5    1
    39    33    34    1
    40    37    38    1
    41    37    39    1
    42    41    42    1
@<TRIPOS>MOLECULE
*****
 42 42 0 0 0
SMALL
GASTEIGER

@<TRIPOS>ATOM
      1 C          -0.9726    2.6749   20.3980 C.3     1  UNL1        0.1951
      2 C          -2.2654    3.3979   20.6346 C.2     1  UNL1        0.2503
      3 O          -2.2858    4.8963   20.6987 O.2     1  UNL1       -0.2725
      4 N          -3.5378    2.6224   20.8070 N.am    1  UNL1       -0.2948
      5 H          -3.5243    1.6388   20.7649 H       1  UNL1        0.1499
      6 C          -4.8305    3.3454   21.0436 C.3     1  UNL1        0.1732
      7 C          -5.5203    4.0399   19.9069 C.2     1  UNL1        0.3349
      8 O          -6.2428    5.3326   20.1455 O.2     1  UNL1       -0.2483
      9 O          -5.4876    3.4417   18.5318 O.3     1  UNL1       -0.4512
     10 C          -4.7895    4.1624   17.4168 C.3     1  UNL1        0.1691
     11 C          -5.5223    5.2012   16.6205 C.3     1  UNL1        0.0473
     12 C          -3.3588    3.8443   17.0981 C.3     1  UNL1        0.0473
     13 C          -5.4335    3.3739   22.4167 C.3     1  UNL1        0.0564
     14 C          -4.5545    3.2406   23.6248 C.3     1  UNL1        0.1532
     15 S          -3.7157    4.4004   24.0736 S.O2    1  UNL1       -0.0082
     16 C          -2.8769    5.5601   24.5224 C.3     1  UNL1        0.1760
     17 O          -4.9111    5.3015   23.9793 O.2     1  UNL1       -0.1729
     18 O          -2.5203    3.4993   24.1680 O.2     1  UNL1       -0.1729
     19 C          -0.1726    2.9543   19.1603 C.3     1  UNL1        0.0653
     20 C           1.1457    2.2705   18.9490 C.ar    1  UNL1       -0.0192
     21 C           1.1927    0.9117   18.3155 C.ar    1  UNL1       -0.0042
     22 C           2.5110    0.2279   18.1043 C.ar    1  UNL1       -0.0003
     23 C           3.7822    0.9029   18.5265 C.ar    1  UNL1       -0.0000
     24 C           3.7351    2.2617   19.1601 C.ar    1  UNL1       -0.0003
     25 C           2.4168    2.9455   19.3713 C.ar    1  UNL1       -0.0042
     26 O          -0.4798    1.6724   21.3992 O.3     1  UNL1       -0.3453
     27 C           0.2843    2.1308   22.6058 C.3     1  UNL1        0.1583
     28 C           1.0802    1.1449   23.4088 C.3     1  UNL1        0.0840
     29 C           2.3570    0.5844   22.8561 C.3     1  UNL1        0.0169
     30 C           3.6750    1.0170   23.4267 C.3     1  UNL1        0.0015
     31 C           3.4589   -1.3584   21.5289 C.3     1  UNL1        0.0000
     32 C           2.3158   -0.4089   21.7328 C.3     1  UNL1        0.0014
     33 N           0.5992    0.7197   24.7644 N.3     1  UNL1       -0.2954
     34 H           1.1920   -0.0571   25.0569 H       1  UNL1        0.1233
     35 C           0.5836    1.7029   25.8971 C.3     1  UNL1        0.0851
     36 C          -0.5321    1.6747   26.8994 C.3     1  UNL1        0.0774
     37 N          -1.5611    2.7660   26.9071 N.3     1  UNL1       -0.3204
     38 H          -2.2394    2.5885   27.6480 H       1  UNL1        0.1189
     39 H          -2.0394    2.7887   26.0065 H       1  UNL1        0.1189
     40 C          -0.6188    0.5552   27.8939 C.3     1  UNL1        0.0703
     41 S           0.5218    0.2964   28.8332 S.3     1  UNL1       -0.1665
     42 H           1.6086   -0.1121   28.1249 H       1  UNL1        0.1023
@<TRIPOS>BOND
     1    31    32    1
     2    32    29    1
     3    29    30    1
     4    29    28    1
     5    28    27    1
     6    27    26    1
     7    26     1    1
     8     1    19    1
     9    19    20    1
    10    20    21   ar
    11    21    22   ar
    12    22    23   ar
    13    23    24   ar
    14    24    25   ar
    15     1     2    1
    16     2     3    2
    17     2     4   am
    18     4     6    1
    19     6    13    1
    20    13    14    1
    21    14    15    1
    22    15    16    1
    23    15    17    2
    24    15    18    2
    25     6     7    1
    26     7     8    2
    27     7     9    1
    28     9    10    1
    29    10    11    1
    30    10    12    1
    31    28    33    1
    32    33    35    1
    33    35    36    1
    34    36    37    1
    35    36    40    1
    36    40    41    1
    37    25    20   ar
    38     4     5    1
    39    33    34    1
    40    37    38    1
    41    37    39    1
    42    41    42    1
