@<TRIPOS>MOLECULE
*****
 32 35 0 0 0
SMALL
GASTEIGER

@<TRIPOS>ATOM
      1 N           3.9249   -1.2906   21.9415 N.pl3   1  UNL1       -0.2853
      2 C           4.4821   -1.6437   23.2887 C.3     1  UNL1        0.1220
      3 C           3.6933   -0.9007   24.3258 C.ar    1  UNL1        0.0337
      4 C           3.5501   -0.6597   25.7994 C.ar    1  UNL1        0.0990
      5 N           2.4169    0.3015   26.0039 N.ar    1  UNL1       -0.2287
      6 N           1.8597    0.6546   24.6568 N.ar    1  UNL1       -0.1681
      7 C           2.6485   -0.0884   23.6196 C.ar    1  UNL1        0.0960
      8 C           2.7916   -0.3293   22.1461 C.3     1  UNL1        0.1160
      9 C           4.6247   -5.2366   18.6340 C.3     1  UNL1        0.0737
     10 C           4.7647   -3.7809   18.9678 C.ar    1  UNL1        0.1409
     11 N           4.2748   -3.2636   20.2877 N.ar    1  UNL1       -0.2160
     12 C           4.4148   -1.8079   20.6216 C.ar    1  UNL1        0.1350
     13 C           5.0449   -0.8696   19.6354 C.ar    1  UNL1        0.0574
     14 C           5.5349   -1.3868   18.3154 C.ar    1  UNL1        0.1567
     15 N           5.3948   -2.8425   17.9816 N.ar    1  UNL1       -0.2266
     16 C           6.1649   -0.4485   17.3292 C.3     1  UNL1        0.4350
     17 F           6.7948    0.4898   16.3429 F       1  UNL1       -0.1644
     18 F           7.4933   -0.6350   18.0003 F       1  UNL1       -0.1644
     19 F           4.8364   -0.2621   16.6580 F       1  UNL1       -0.1644
     20 C           1.9269    0.8189   27.3239 C.ar    1  UNL1        0.0841
     21 C           0.7706    1.7730   27.3730 C.ar    1  UNL1        0.0192
     22 C           0.2806    2.2903   28.6930 C.ar    1  UNL1        0.0029
     23 C           0.9470    1.8535   29.9639 C.ar    1  UNL1        0.0184
     24 C           2.1033    0.8993   29.9148 C.ar    1  UNL1        0.1072
     25 C           2.5933    0.3820   28.5948 C.ar    1  UNL1        0.0375
     26 S           2.7697    0.4624   31.1856 S.O2    1  UNL1        0.0105
     27 C           3.4361    0.0255   32.4564 C.3     1  UNL1        0.1816
     28 O           3.2475    1.8653   31.4174 O.2     1  UNL1       -0.1686
     29 O           2.2919   -0.9405   30.9537 O.2     1  UNL1       -0.1686
     30 C           1.9494    0.2833   21.0666 C.3     1  UNL1        0.0240
     31 C           0.9921   -0.5691   20.2875 C.3     1  UNL1        0.0021
     32 C           2.0645    1.7484   20.7661 C.3     1  UNL1        0.0021
@<TRIPOS>BOND
     1     9    10    1
     2    10    11   ar
     3    11    12   ar
     4    12     1    1
     5     1     2    1
     6     2     3    1
     7     3     4   ar
     8     4     5   ar
     9     5    20    1
    10    20    21   ar
    11    21    22   ar
    12    22    23   ar
    13    23    24   ar
    14    24    26    1
    15    26    27    1
    16    26    28    2
    17    26    29    2
    18    24    25   ar
    19     5     6   ar
    20     6     7   ar
    21     7     8    1
    22     8    30    1
    23    30    31    1
    24    30    32    1
    25    12    13   ar
    26    13    14   ar
    27    14    16    1
    28    16    17    1
    29    16    18    1
    30    16    19    1
    31    14    15   ar
    32    15    10   ar
    33     8     1    1
    34     7     3   ar
    35    25    20   ar
@<TRIPOS>MOLECULE
*****
 32 35 0 0 0
SMALL
GASTEIGER

@<TRIPOS>ATOM
      1 N           2.3761   -0.7377   20.0592 N.pl3   1  UNL1       -0.2853
      2 C           1.1279   -0.2977   20.7654 C.3     1  UNL1        0.1220
      3 C           0.6208    0.9384   20.0836 C.ar    1  UNL1        0.0337
      4 C          -0.4640    1.9742   20.0988 C.ar    1  UNL1        0.0990
      5 N          -0.1998    2.9385   18.9806 N.ar    1  UNL1       -0.2287
      6 N           1.0483    2.4986   18.2743 N.ar    1  UNL1       -0.1681
      7 C           1.5555    1.2625   18.9561 C.ar    1  UNL1        0.0960
      8 C           2.6403    0.2266   18.9409 C.3     1  UNL1        0.1160
      9 C           4.4925   -5.2946   18.7342 C.3     1  UNL1        0.0737
     10 C           4.2712   -4.2105   19.7472 C.ar    1  UNL1        0.1409
     11 N           3.4343   -3.0161   19.3967 N.ar    1  UNL1       -0.2160
     12 C           3.2129   -1.9321   20.4096 C.ar    1  UNL1        0.1350
     13 C           3.8286   -2.0426   21.7730 C.ar    1  UNL1        0.0574
     14 C           4.6656   -3.2370   22.1235 C.ar    1  UNL1        0.1567
     15 N           4.8868   -4.3210   21.1106 N.ar    1  UNL1       -0.2266
     16 C           5.2812   -3.3475   23.4869 C.3     1  UNL1        0.4350
     17 F           5.8968   -3.4579   24.8502 F       1  UNL1       -0.1644
     18 F           6.2989   -4.3094   22.9493 F       1  UNL1       -0.1644
     19 F           4.2634   -2.3855   24.0243 F       1  UNL1       -0.1644
     20 C          -1.0367    4.1330   18.6301 C.ar    1  UNL1        0.0841
     21 C          -0.3847    5.4641   18.4000 C.ar    1  UNL1        0.0192
     22 C          -1.2217    6.6585   18.0495 C.ar    1  UNL1        0.0029
     23 C          -2.7106    6.5219   17.9291 C.ar    1  UNL1        0.0184
     24 C          -3.3626    5.1907   18.1592 C.ar    1  UNL1        0.1072
     25 C          -2.5256    3.9963   18.5097 C.ar    1  UNL1        0.0375
     26 S          -4.8514    5.0539   18.0388 S.O2    1  UNL1        0.0105
     27 C          -6.3403    4.9170   17.9184 C.3     1  UNL1        0.1816
     28 O          -5.0167    6.4854   18.4554 O.2     1  UNL1       -0.1686
     29 O          -4.6862    3.6224   17.6222 O.2     1  UNL1       -0.1686
     30 C           3.7879    0.1658   17.9769 C.3     1  UNL1        0.0240
     31 C           4.9796    1.0555   18.1724 C.3     1  UNL1        0.0021
     32 C           3.7437   -0.7848   16.8174 C.3     1  UNL1        0.0021
@<TRIPOS>BOND
     1     9    10    1
     2    10    11   ar
     3    11    12   ar
     4    12     1    1
     5     1     2    1
     6     2     3    1
     7     3     4   ar
     8     4     5   ar
     9     5    20    1
    10    20    21   ar
    11    21    22   ar
    12    22    23   ar
    13    23    24   ar
    14    24    26    1
    15    26    27    1
    16    26    28    2
    17    26    29    2
    18    24    25   ar
    19     5     6   ar
    20     6     7   ar
    21     7     8    1
    22     8    30    1
    23    30    31    1
    24    30    32    1
    25    12    13   ar
    26    13    14   ar
    27    14    16    1
    28    16    17    1
    29    16    18    1
    30    16    19    1
    31    14    15   ar
    32    15    10   ar
    33     8     1    1
    34     7     3   ar
    35    25    20   ar
@<TRIPOS>MOLECULE
*****
 32 35 0 0 0
SMALL
GASTEIGER

@<TRIPOS>ATOM
      1 N           5.5135   -1.1038   20.9538 N.pl3   1  UNL1       -0.2853
      2 C           6.0255   -0.8742   22.3449 C.3     1  UNL1        0.1220
      3 C           6.3578   -2.2091   22.9428 C.ar    1  UNL1        0.0337
      4 C           6.8795   -2.8922   24.1721 C.ar    1  UNL1        0.0990
      5 N           6.8953   -4.3691   23.9103 N.ar    1  UNL1       -0.2287
      6 N           6.3833   -4.5988   22.5192 N.ar    1  UNL1       -0.1681
      7 C           6.0511   -3.2638   21.9213 C.ar    1  UNL1        0.0960
      8 C           5.5293   -2.5807   20.6920 C.3     1  UNL1        0.1160
      9 C           6.6383    2.7880   17.6997 C.3     1  UNL1        0.0737
     10 C           5.6269    1.9030   18.3662 C.ar    1  UNL1        0.1409
     11 N           6.0759    0.8421   19.3268 N.ar    1  UNL1       -0.2160
     12 C           5.0646   -0.0429   19.9932 C.ar    1  UNL1        0.1350
     13 C           3.6043    0.1332   19.6990 C.ar    1  UNL1        0.0574
     14 C           3.1552    1.1941   18.7384 C.ar    1  UNL1        0.1567
     15 N           4.1666    2.0791   18.0720 N.ar    1  UNL1       -0.2266
     16 C           1.6950    1.3702   18.4442 C.3     1  UNL1        0.4350
     17 F           0.2347    1.5463   18.1499 F       1  UNL1       -0.1644
     18 F           1.4525   -0.0701   18.7858 F       1  UNL1       -0.1644
     19 F           1.9376    2.8106   18.1026 F       1  UNL1       -0.1644
     20 C           7.3443   -5.4301   24.8709 C.ar    1  UNL1        0.0841
     21 C           7.9694   -6.6925   24.3555 C.ar    1  UNL1        0.0192
     22 C           8.4183   -7.7535   25.3162 C.ar    1  UNL1        0.0029
     23 C           8.2422   -7.5520   26.7922 C.ar    1  UNL1        0.0184
     24 C           7.6171   -6.2896   27.3075 C.ar    1  UNL1        0.1072
     25 C           7.1682   -5.2287   26.3468 C.ar    1  UNL1        0.0375
     26 S           7.4410   -6.0881   28.7834 S.O2    1  UNL1        0.0105
     27 C           7.2650   -5.8867   30.2593 C.3     1  UNL1        0.1816
     28 O           6.1855   -5.3084   28.5272 O.2     1  UNL1       -0.1686
     29 O           8.6966   -6.8678   29.0396 O.2     1  UNL1       -0.1686
     30 C           5.0989   -3.2560   19.4236 C.3     1  UNL1        0.0240
     31 C           5.7736   -2.9172   18.1274 C.3     1  UNL1        0.0021
     32 C           3.9939   -4.2699   19.4514 C.3     1  UNL1        0.0021
@<TRIPOS>BOND
     1     9    10    1
     2    10    11   ar
     3    11    12   ar
     4    12     1    1
     5     1     2    1
     6     2     3    1
     7     3     4   ar
     8     4     5   ar
     9     5    20    1
    10    20    21   ar
    11    21    22   ar
    12    22    23   ar
    13    23    24   ar
    14    24    26    1
    15    26    27    1
    16    26    28    2
    17    26    29    2
    18    24    25   ar
    19     5     6   ar
    20     6     7   ar
    21     7     8    1
    22     8    30    1
    23    30    31    1
    24    30    32    1
    25    12    13   ar
    26    13    14   ar
    27    14    16    1
    28    16    17    1
    29    16    18    1
    30    16    19    1
    31    14    15   ar
    32    15    10   ar
    33     8     1    1
    34     7     3   ar
    35    25    20   ar
@<TRIPOS>MOLECULE
*****
 32 35 0 0 0
SMALL
GASTEIGER

@<TRIPOS>ATOM
      1 N           4.5222    0.6680   35.6156 N.pl3   1  UNL1       -0.2853
      2 C           5.2724   -0.6203   35.4494 C.3     1  UNL1        0.1220
      3 C           5.3630   -0.9180   33.9820 C.ar    1  UNL1        0.0337
      4 C           5.8827   -1.8983   32.9726 C.ar    1  UNL1        0.0990
      5 N           5.5098   -1.3998   31.6079 N.ar    1  UNL1       -0.2287
      6 N           4.7596   -0.1114   31.7739 N.ar    1  UNL1       -0.1681
      7 C           4.6690    0.1863   33.2413 C.ar    1  UNL1        0.0960
      8 C           4.1493    1.1665   34.2508 C.3     1  UNL1        0.1160
      9 C           6.0975    2.9648   40.0023 C.3     1  UNL1        0.0737
     10 C           4.9890    2.4882   39.1110 C.ar    1  UNL1        0.1409
     11 N           5.3098    1.8164   37.8089 N.ar    1  UNL1       -0.2160
     12 C           4.2014    1.3398   36.9177 C.ar    1  UNL1        0.1350
     13 C           2.7721    1.5352   37.3287 C.ar    1  UNL1        0.0574
     14 C           2.4511    2.2070   38.6309 C.ar    1  UNL1        0.1567
     15 N           3.5596    2.6836   39.5220 N.ar    1  UNL1       -0.2266
     16 C           1.0218    2.4023   39.0419 C.3     1  UNL1        0.4350
     17 F          -0.4074    2.5977   39.4528 F       1  UNL1       -0.1644
     18 F           1.1580    1.2933   40.0425 F       1  UNL1       -0.1644
     19 F           0.8858    3.5115   38.0411 F       1  UNL1       -0.1644
     20 C           5.8306   -2.0716   30.3057 C.ar    1  UNL1        0.0841
     21 C           5.4833   -1.4005   29.0099 C.ar    1  UNL1        0.0192
     22 C           5.8042   -2.0724   27.7077 C.ar    1  UNL1        0.0029
     23 C           6.4724   -3.4154   27.7013 C.ar    1  UNL1        0.0184
     24 C           6.8197   -4.0864   28.9971 C.ar    1  UNL1        0.1072
     25 C           6.4988   -3.4145   30.2992 C.ar    1  UNL1        0.0375
     26 S           7.4879   -5.4293   28.9907 S.O2    1  UNL1        0.0105
     27 C           8.1561   -6.7723   28.9845 C.3     1  UNL1        0.1816
     28 O           8.1621   -5.0878   27.6950 O.2     1  UNL1       -0.1686
     29 O           6.8137   -5.7709   30.2865 O.2     1  UNL1       -0.1686
     30 C           3.3900    2.4244   33.9486 C.3     1  UNL1        0.0240
     31 C           1.9336    2.3550   33.5962 C.3     1  UNL1        0.0021
     32 C           4.0871    3.7516   33.9989 C.3     1  UNL1        0.0021
@<TRIPOS>BOND
     1     9    10    1
     2    10    11   ar
     3    11    12   ar
     4    12     1    1
     5     1     2    1
     6     2     3    1
     7     3     4   ar
     8     4     5   ar
     9     5    20    1
    10    20    21   ar
    11    21    22   ar
    12    22    23   ar
    13    23    24   ar
    14    24    26    1
    15    26    27    1
    16    26    28    2
    17    26    29    2
    18    24    25   ar
    19     5     6   ar
    20     6     7   ar
    21     7     8    1
    22     8    30    1
    23    30    31    1
    24    30    32    1
    25    12    13   ar
    26    13    14   ar
    27    14    16    1
    28    16    17    1
    29    16    18    1
    30    16    19    1
    31    14    15   ar
    32    15    10   ar
    33     8     1    1
    34     7     3   ar
    35    25    20   ar
@<TRIPOS>MOLECULE
*****
 32 35 0 0 0
SMALL
GASTEIGER

@<TRIPOS>ATOM
      1 N           5.0144   -1.2110   20.9826 N.pl3   1  UNL1       -0.2853
      2 C           5.1344   -1.0657   22.4707 C.3     1  UNL1        0.1220
      3 C           5.7323   -2.3299   23.0133 C.ar    1  UNL1        0.0337
      4 C           6.1760   -3.0213   24.2683 C.ar    1  UNL1        0.0990
      5 N           6.6998   -4.3753   23.8911 N.ar    1  UNL1       -0.2287
      6 N           6.5799   -4.5207   22.4030 N.ar    1  UNL1       -0.1681
      7 C           5.9820   -3.2565   21.8605 C.ar    1  UNL1        0.0960
      8 C           5.5383   -2.5651   20.6054 C.3     1  UNL1        0.1160
      9 C           0.9810    0.9151   18.4903 C.3     1  UNL1        0.0737
     10 C           2.4501    0.8801   18.7915 C.ar    1  UNL1        0.1409
     11 N           2.9977   -0.1480   19.7365 N.ar    1  UNL1       -0.2160
     12 C           4.4668   -0.1830   20.0376 C.ar    1  UNL1        0.1350
     13 C           5.3882    0.8101   19.3936 C.ar    1  UNL1        0.0574
     14 C           4.8406    1.8383   18.4486 C.ar    1  UNL1        0.1567
     15 N           3.3716    1.8733   18.1475 N.ar    1  UNL1       -0.2266
     16 C           5.7620    2.8314   17.8046 C.3     1  UNL1        0.4350
     17 F           6.6833    3.8246   17.1607 F       1  UNL1       -0.1644
     18 F           6.9434    2.0100   18.2282 F       1  UNL1       -0.1644
     19 F           4.5804    3.6528   17.3811 F       1  UNL1       -0.1644
     20 C           7.2475   -5.4034   24.8361 C.ar    1  UNL1        0.0841
     21 C           7.9583   -6.6109   24.3009 C.ar    1  UNL1        0.0192
     22 C           8.5059   -7.6391   25.2460 C.ar    1  UNL1        0.0029
     23 C           8.3427   -7.4596   26.7263 C.ar    1  UNL1        0.0184
     24 C           7.6319   -6.2521   27.2615 C.ar    1  UNL1        0.1072
     25 C           7.0842   -5.2240   26.3164 C.ar    1  UNL1        0.0375
     26 S           7.4686   -6.0726   28.7417 S.O2    1  UNL1        0.0105
     27 C           7.3054   -5.8931   30.2220 C.3     1  UNL1        0.1816
     28 O           6.1953   -5.3145   28.5094 O.2     1  UNL1       -0.1686
     29 O           8.7420   -6.8307   28.9740 O.2     1  UNL1       -0.1686
     30 C           5.6065   -3.1287   19.2170 C.3     1  UNL1        0.0240
     31 C           6.5434   -2.5304   18.2099 C.3     1  UNL1        0.0021
     32 C           4.7378   -4.2906   18.8357 C.3     1  UNL1        0.0021
@<TRIPOS>BOND
     1     9    10    1
     2    10    11   ar
     3    11    12   ar
     4    12     1    1
     5     1     2    1
     6     2     3    1
     7     3     4   ar
     8     4     5   ar
     9     5    20    1
    10    20    21   ar
    11    21    22   ar
    12    22    23   ar
    13    23    24   ar
    14    24    26    1
    15    26    27    1
    16    26    28    2
    17    26    29    2
    18    24    25   ar
    19     5     6   ar
    20     6     7   ar
    21     7     8    1
    22     8    30    1
    23    30    31    1
    24    30    32    1
    25    12    13   ar
    26    13    14   ar
    27    14    16    1
    28    16    17    1
    29    16    18    1
    30    16    19    1
    31    14    15   ar
    32    15    10   ar
    33     8     1    1
    34     7     3   ar
    35    25    20   ar
@<TRIPOS>MOLECULE
*****
 32 35 0 0 0
SMALL
GASTEIGER

@<TRIPOS>ATOM
      1 N           3.5109   -0.8036   22.2802 N.pl3   1  UNL1       -0.2853
      2 C           4.1543   -1.2119   23.5723 C.3     1  UNL1        0.1220
      3 C           3.4443   -0.5038   24.6878 C.ar    1  UNL1        0.0337
      4 C           3.4033   -0.3185   26.1758 C.ar    1  UNL1        0.0990
      5 N           2.2956    0.6421   26.4928 N.ar    1  UNL1       -0.2287
      6 N           1.6522    1.0504   25.2008 N.ar    1  UNL1       -0.1681
      7 C           2.3621    0.3423   24.0853 C.ar    1  UNL1        0.0960
      8 C           2.4032    0.1570   22.5973 C.3     1  UNL1        0.1160
      9 C           4.8339    0.2531   17.3677 C.3     1  UNL1        0.0737
     10 C           4.5672   -0.7450   18.4553 C.ar    1  UNL1        0.1409
     11 N           4.1724   -0.2753   19.8240 N.ar    1  UNL1       -0.2160
     12 C           3.9057   -1.2734   20.9116 C.ar    1  UNL1        0.1350
     13 C           4.0338   -2.7412   20.6303 C.ar    1  UNL1        0.0574
     14 C           4.4287   -3.2110   19.2616 C.ar    1  UNL1        0.1567
     15 N           4.6954   -2.2129   18.1741 N.ar    1  UNL1       -0.2266
     16 C           4.5568   -4.6788   18.9803 C.3     1  UNL1        0.4350
     17 F           4.6851   -6.1465   18.6991 F       1  UNL1       -0.1644
     18 F           3.1085   -4.7311   18.5936 F       1  UNL1       -0.1644
     19 F           6.0052   -4.6263   19.3671 F       1  UNL1       -0.1644
     20 C           1.9008    1.1119   27.8615 C.ar    1  UNL1        0.0841
     21 C           0.8126    2.1322   28.0194 C.ar    1  UNL1        0.0192
     22 C           0.4178    2.6019   29.3882 C.ar    1  UNL1        0.0029
     23 C           1.1111    2.0513   30.5990 C.ar    1  UNL1        0.0184
     24 C           2.1992    1.0310   30.4412 C.ar    1  UNL1        0.1072
     25 C           2.5941    0.5613   29.0724 C.ar    1  UNL1        0.0375
     26 S           2.8926    0.4805   31.6520 S.O2    1  UNL1        0.0105
     27 C           3.5859   -0.0700   32.8629 C.3     1  UNL1        0.1816
     28 O           2.5165   -0.9104   31.2350 O.2     1  UNL1       -0.1686
     29 O           3.2686    1.8715   32.0691 O.2     1  UNL1       -0.1686
     30 C           1.4960    0.8164   21.6013 C.3     1  UNL1        0.0240
     31 C           1.5404    2.3044   21.4165 C.3     1  UNL1        0.0021
     32 C           0.5443   -0.0120   20.7902 C.3     1  UNL1        0.0021
@<TRIPOS>BOND
     1     9    10    1
     2    10    11   ar
     3    11    12   ar
     4    12     1    1
     5     1     2    1
     6     2     3    1
     7     3     4   ar
     8     4     5   ar
     9     5    20    1
    10    20    21   ar
    11    21    22   ar
    12    22    23   ar
    13    23    24   ar
    14    24    26    1
    15    26    27    1
    16    26    28    2
    17    26    29    2
    18    24    25   ar
    19     5     6   ar
    20     6     7   ar
    21     7     8    1
    22     8    30    1
    23    30    31    1
    24    30    32    1
    25    12    13   ar
    26    13    14   ar
    27    14    16    1
    28    16    17    1
    29    16    18    1
    30    16    19    1
    31    14    15   ar
    32    15    10   ar
    33     8     1    1
    34     7     3   ar
    35    25    20   ar
@<TRIPOS>MOLECULE
*****
 32 35 0 0 0
SMALL
GASTEIGER

@<TRIPOS>ATOM
      1 N           6.0440   -2.9226   23.7113 N.pl3   1  UNL1       -0.2853
      2 C           6.6778   -3.9087   24.6472 C.3     1  UNL1        0.1220
      3 C           6.4546   -3.4260   26.0498 C.ar    1  UNL1        0.0337
      4 C           6.7084   -3.7371   27.4951 C.ar    1  UNL1        0.0990
      5 N           6.0935   -2.6450   28.3192 N.ar    1  UNL1       -0.2287
      6 N           5.4597   -1.6589   27.3833 N.ar    1  UNL1       -0.1681
      7 C           5.6829   -2.1416   25.9807 C.ar    1  UNL1        0.0960
      8 C           5.4291   -1.8305   24.5355 C.3     1  UNL1        0.1160
      9 C           8.3886   -2.1848   19.1332 C.3     1  UNL1        0.0737
     10 C           7.2002   -2.6439   19.9251 C.ar    1  UNL1        0.1409
     11 N           7.2163   -2.5537   21.4222 N.ar    1  UNL1       -0.2160
     12 C           6.0279   -3.0128   22.2141 C.ar    1  UNL1        0.1350
     13 C           4.8235   -3.5620   21.5087 C.ar    1  UNL1        0.0574
     14 C           4.8073   -3.6522   20.0115 C.ar    1  UNL1        0.1567
     15 N           5.9957   -3.1932   19.2197 N.ar    1  UNL1       -0.2266
     16 C           3.6028   -4.2015   19.3061 C.3     1  UNL1        0.4350
     17 F           2.3983   -4.7506   18.6008 F       1  UNL1       -0.1644
     18 F           4.3599   -5.4576   18.9914 F       1  UNL1       -0.1644
     19 F           2.8458   -2.9453   19.6209 F       1  UNL1       -0.1644
     20 C           6.1096   -2.5548   29.8164 C.ar    1  UNL1        0.0841
     21 C           6.9526   -3.5036   30.6159 C.ar    1  UNL1        0.0192
     22 C           6.9686   -3.4133   32.1132 C.ar    1  UNL1        0.0029
     23 C           6.1417   -2.3743   32.8108 C.ar    1  UNL1        0.0184
     24 C           5.2988   -1.4255   32.0113 C.ar    1  UNL1        0.1072
     25 C           5.2828   -1.5158   30.5141 C.ar    1  UNL1        0.0375
     26 S           4.4719   -0.3865   32.7089 S.O2    1  UNL1        0.0105
     27 C           3.6449    0.6524   33.4065 C.3     1  UNL1        0.1816
     28 O           5.1690    0.6904   31.9315 O.2     1  UNL1       -0.1686
     29 O           3.7747   -1.4634   33.4863 O.2     1  UNL1       -0.1686
     30 C           4.6901   -0.6368   24.0071 C.3     1  UNL1        0.0240
     31 C           3.2183   -0.7272   23.7322 C.3     1  UNL1        0.0021
     32 C           5.4230    0.6472   23.7537 C.3     1  UNL1        0.0021
@<TRIPOS>BOND
     1     9    10    1
     2    10    11   ar
     3    11    12   ar
     4    12     1    1
     5     1     2    1
     6     2     3    1
     7     3     4   ar
     8     4     5   ar
     9     5    20    1
    10    20    21   ar
    11    21    22   ar
    12    22    23   ar
    13    23    24   ar
    14    24    26    1
    15    26    27    1
    16    26    28    2
    17    26    29    2
    18    24    25   ar
    19     5     6   ar
    20     6     7   ar
    21     7     8    1
    22     8    30    1
    23    30    31    1
    24    30    32    1
    25    12    13   ar
    26    13    14   ar
    27    14    16    1
    28    16    17    1
    29    16    18    1
    30    16    19    1
    31    14    15   ar
    32    15    10   ar
    33     8     1    1
    34     7     3   ar
    35    25    20   ar
@<TRIPOS>MOLECULE
*****
 32 35 0 0 0
SMALL
GASTEIGER

@<TRIPOS>ATOM
      1 N           6.0929   -2.9403   23.7237 N.pl3   1  UNL1       -0.2853
      2 C           5.2059   -2.0622   24.5558 C.3     1  UNL1        0.1220
      3 C           5.5594   -2.2792   25.9973 C.ar    1  UNL1        0.0337
      4 C           5.2297   -1.8706   27.4024 C.ar    1  UNL1        0.0990
      5 N           6.1313   -2.6303   28.3297 N.ar    1  UNL1       -0.2287
      6 N           7.0183   -3.5084   27.4977 N.ar    1  UNL1       -0.1681
      7 C           6.6648   -3.2914   26.0562 C.ar    1  UNL1        0.0960
      8 C           6.9945   -3.7000   24.6511 C.3     1  UNL1        0.1160
      9 C           8.4572   -2.2554   19.1476 C.3     1  UNL1        0.0737
     10 C           7.2625   -2.6985   19.9392 C.ar    1  UNL1        0.1409
     11 N           7.2750   -2.5978   21.4356 N.ar    1  UNL1       -0.2160
     12 C           6.0804   -3.0410   22.2272 C.ar    1  UNL1        0.1350
     13 C           4.8733   -3.5848   21.5222 C.ar    1  UNL1        0.0574
     14 C           4.8607   -3.6855   20.0256 C.ar    1  UNL1        0.1567
     15 N           6.0553   -3.2424   19.2341 N.ar    1  UNL1       -0.2266
     16 C           3.6536   -4.2293   19.3205 C.3     1  UNL1        0.4350
     17 F           2.4465   -4.7730   18.6154 F       1  UNL1       -0.1644
     18 F           4.4100   -5.4822   18.9919 F       1  UNL1       -0.1644
     19 F           2.8973   -2.9763   19.6492 F       1  UNL1       -0.1644
     20 C           6.1439   -2.5296   29.8263 C.ar    1  UNL1        0.0841
     21 C           7.0114   -3.4500   30.6326 C.ar    1  UNL1        0.0192
     22 C           7.0239   -3.3493   32.1292 C.ar    1  UNL1        0.0029
     23 C           6.1688   -2.3282   32.8194 C.ar    1  UNL1        0.0184
     24 C           5.3013   -1.4078   32.0130 C.ar    1  UNL1        0.1072
     25 C           5.2888   -1.5086   30.5164 C.ar    1  UNL1        0.0375
     26 S           4.4463   -0.3867   32.7031 S.O2    1  UNL1        0.0105
     27 C           3.5912    0.6343   33.3933 C.3     1  UNL1        0.1816
     28 O           5.0789    0.6978   31.8824 O.2     1  UNL1       -0.1686
     29 O           3.8136   -1.4713   33.5239 O.2     1  UNL1       -0.1686
     30 C           8.0420   -4.6938   24.2446 C.3     1  UNL1        0.0240
     31 C           9.3817   -4.2181   23.7662 C.3     1  UNL1        0.0021
     32 C           7.7497   -6.1633   24.3165 C.3     1  UNL1        0.0021
@<TRIPOS>BOND
     1     9    10    1
     2    10    11   ar
     3    11    12   ar
     4    12     1    1
     5     1     2    1
     6     2     3    1
     7     3     4   ar
     8     4     5   ar
     9     5    20    1
    10    20    21   ar
    11    21    22   ar
    12    22    23   ar
    13    23    24   ar
    14    24    26    1
    15    26    27    1
    16    26    28    2
    17    26    29    2
    18    24    25   ar
    19     5     6   ar
    20     6     7   ar
    21     7     8    1
    22     8    30    1
    23    30    31    1
    24    30    32    1
    25    12    13   ar
    26    13    14   ar
    27    14    16    1
    28    16    17    1
    29    16    18    1
    30    16    19    1
    31    14    15   ar
    32    15    10   ar
    33     8     1    1
    34     7     3   ar
    35    25    20   ar
@<TRIPOS>MOLECULE
*****
 32 35 0 0 0
SMALL
GASTEIGER

@<TRIPOS>ATOM
      1 N           4.6687   -1.2649   21.5387 N.pl3   1  UNL1       -0.2853
      2 C           4.9842   -1.1234   22.9983 C.3     1  UNL1        0.1220
      3 C           5.6204   -2.4005   23.4611 C.ar    1  UNL1        0.0337
      4 C           6.2085   -3.1023   24.6492 C.ar    1  UNL1        0.0990
      5 N           6.6497   -4.4670   24.2098 N.ar    1  UNL1       -0.2287
      6 N           6.3342   -4.6086   22.7502 N.ar    1  UNL1       -0.1681
      7 C           5.6980   -3.3315   22.2875 C.ar    1  UNL1        0.0960
      8 C           5.1099   -2.6297   21.0994 C.3     1  UNL1        0.1160
      9 C           5.0082    2.2636   17.7395 C.3     1  UNL1        0.0737
     10 C           4.1948    1.5397   18.7712 C.ar    1  UNL1        0.1409
     11 N           4.8384    0.4994   19.6391 N.ar    1  UNL1       -0.2160
     12 C           4.0251   -0.2246   20.6709 C.ar    1  UNL1        0.1350
     13 C           2.5680    0.0920   20.8346 C.ar    1  UNL1        0.0574
     14 C           1.9243    1.1325   19.9668 C.ar    1  UNL1        0.1567
     15 N           2.7377    1.8563   18.9350 N.ar    1  UNL1       -0.2266
     16 C           0.4673    1.4490   20.1305 C.3     1  UNL1        0.4350
     17 F          -0.9897    1.7656   20.2944 F       1  UNL1       -0.1644
     18 F           0.4990    2.2505   18.8630 F       1  UNL1       -0.1644
     19 F           0.4358    0.6475   21.3981 F       1  UNL1       -0.1644
     20 C           7.2933   -5.5074   25.0777 C.ar    1  UNL1        0.0841
     21 C           7.9940   -6.6770   24.4523 C.ar    1  UNL1        0.0192
     22 C           8.6376   -7.7174   25.3202 C.ar    1  UNL1        0.0029
     23 C           8.5806   -7.5883   26.8136 C.ar    1  UNL1        0.0184
     24 C           7.8800   -6.4187   27.4390 C.ar    1  UNL1        0.1072
     25 C           7.2363   -5.3783   26.5710 C.ar    1  UNL1        0.0375
     26 S           7.8229   -6.2895   28.9323 S.O2    1  UNL1        0.0105
     27 C           7.7658   -6.1603   30.4256 C.3     1  UNL1        0.1816
     28 O           9.0768   -7.1042   29.0508 O.2     1  UNL1       -0.1686
     29 O           6.5690   -5.4748   28.8138 O.2     1  UNL1       -0.1686
     30 C           4.9848   -3.1935   19.7150 C.3     1  UNL1        0.0240
     31 C           3.8881   -4.1666   19.3978 C.3     1  UNL1        0.0021
     32 C           5.9564   -2.7844   18.6480 C.3     1  UNL1        0.0021
@<TRIPOS>BOND
     1     9    10    1
     2    10    11   ar
     3    11    12   ar
     4    12     1    1
     5     1     2    1
     6     2     3    1
     7     3     4   ar
     8     4     5   ar
     9     5    20    1
    10    20    21   ar
    11    21    22   ar
    12    22    23   ar
    13    23    24   ar
    14    24    26    1
    15    26    27    1
    16    26    28    2
    17    26    29    2
    18    24    25   ar
    19     5     6   ar
    20     6     7   ar
    21     7     8    1
    22     8    30    1
    23    30    31    1
    24    30    32    1
    25    12    13   ar
    26    13    14   ar
    27    14    16    1
    28    16    17    1
    29    16    18    1
    30    16    19    1
    31    14    15   ar
    32    15    10   ar
    33     8     1    1
    34     7     3   ar
    35    25    20   ar
