@<TRIPOS>MOLECULE
*****
 24 28 0 0 0
SMALL
GASTEIGER

@<TRIPOS>ATOM
      1 N          -6.7899  -19.5516   21.0692 N.am    1  UNL1       -0.2214
      2 C          -5.6930  -18.8099   21.7739 C.3     1  UNL1        0.1428
      3 C          -4.3879  -19.4487   21.4016 C.3     1  UNL1        0.1706
      4 C          -3.1662  -20.1873   20.9412 C.3     1  UNL1        0.1145
      5 N          -1.8091  -19.7639   21.4197 N.3     1  UNL1       -0.2697
      6 C          -1.6736  -18.6019   22.3585 C.3     1  UNL1        0.0723
      7 C          -2.8953  -17.8633   22.8188 C.3     1  UNL1        0.0209
      8 C          -4.2525  -18.2867   22.3404 C.3     1  UNL1        0.0427
      9 C          -3.7546  -19.2511   21.6248 C.3     1  UNL1        0.0209
     10 C          -3.1030  -19.6450   21.3793 C.3     1  UNL1        0.0723
     11 O          -4.6783  -20.5853   20.4668 O.3     1  UNL1       -0.4384
     12 C          -6.1628  -20.6489   20.2614 C.2     1  UNL1        0.4086
     13 O          -6.8921  -21.6365   19.3994 O.2     1  UNL1       -0.2258
     14 C         -12.6345  -18.1432   23.2173 C.ar    1  UNL1        0.0073
     15 C         -11.2464  -18.3609   23.7424 C.ar    1  UNL1        0.0027
     16 C         -10.3534  -18.6705   22.5775 C.ar    1  UNL1        0.0074
     17 C          -8.8868  -18.9730   22.4898 C.ar    1  UNL1        0.0155
     18 C          -8.2565  -19.2491   21.1570 C.ar    1  UNL1        0.0571
     19 C          -9.0927  -19.2229   19.9119 C.ar    1  UNL1        0.0155
     20 C         -10.5592  -18.9204   19.9998 C.ar    1  UNL1        0.0077
     21 C         -11.1895  -18.6442   21.3326 C.ar    1  UNL1        0.0292
     22 S         -12.5994  -18.3183   21.7280 S.2     1  UNL1       -0.0913
     23 C         -14.0957  -18.5259   25.3311 C.3     1  UNL1        0.0056
     24 C         -13.8451  -17.8092   24.0374 C.3     1  UNL1        0.0330
@<TRIPOS>BOND
     1    23    24    1
     2    24    14    1
     3    14    15   ar
     4    15    16   ar
     5    16    17   ar
     6    17    18   ar
     7    18     1    1
     8     1     2    1
     9     3     2    1
    10     3     4    1
    11     4     5    1
    12     5     6    1
    13     6     7    1
    14     7     8    1
    15     8     9    1
    16     9    10    1
    17     3    11    1
    18    11    12    1
    19    12    13    2
    20    18    19   ar
    21    19    20   ar
    22    20    21   ar
    23    21    22   ar
    24    22    14   ar
    25    21    16   ar
    26    12     1   am
    27     8     3    1
    28    10     5    1
@<TRIPOS>MOLECULE
*****
 24 28 0 0 0
SMALL
GASTEIGER

@<TRIPOS>ATOM
      1 N          -6.7238  -17.4231   22.7590 N.am    1  UNL1       -0.2214
      2 C          -5.9297  -18.4450   22.0006 C.3     1  UNL1        0.1428
      3 C          -4.4806  -18.2459   22.3329 C.3     1  UNL1        0.1706
      4 C          -3.0775  -17.9288   22.7579 C.3     1  UNL1        0.1145
      5 N          -1.9311  -18.7333   22.2207 N.3     1  UNL1       -0.2697
      6 C          -2.1879  -19.8550   21.2585 C.3     1  UNL1        0.0723
      7 C          -3.5910  -20.1721   20.8335 C.3     1  UNL1        0.0209
      8 C          -4.7373  -19.3675   21.3707 C.3     1  UNL1        0.0427
      9 C          -3.9456  -18.6213   22.0822 C.3     1  UNL1        0.0209
     10 C          -3.1973  -18.4522   22.3089 C.3     1  UNL1        0.0723
     11 O          -4.3791  -17.1009   23.2966 O.3     1  UNL1       -0.4384
     12 C          -5.7655  -16.5924   23.5600 C.2     1  UNL1        0.4086
     13 O          -6.1296  -15.4532   24.4654 O.2     1  UNL1       -0.2258
     14 C         -12.9771  -18.0032   23.9066 C.ar    1  UNL1        0.0073
     15 C         -11.6718  -18.5725   24.3778 C.ar    1  UNL1        0.0027
     16 C         -10.5710  -17.9125   23.6014 C.ar    1  UNL1        0.0074
     17 C          -9.0803  -18.0751   23.6377 C.ar    1  UNL1        0.0155
     18 C          -8.2145  -17.2605   22.7228 C.ar    1  UNL1        0.0571
     19 C          -8.8395  -16.2833   21.7717 C.ar    1  UNL1        0.0155
     20 C         -10.3302  -16.1208   21.7355 C.ar    1  UNL1        0.0077
     21 C         -11.1959  -16.9354   22.6504 C.ar    1  UNL1        0.0292
     22 S         -12.6830  -16.9915   22.8390 S.2     1  UNL1       -0.0913
     23 C         -14.5797  -18.5053   25.8888 C.3     1  UNL1        0.0056
     24 C         -14.3375  -18.3797   24.4139 C.3     1  UNL1        0.0330
@<TRIPOS>BOND
     1    23    24    1
     2    24    14    1
     3    14    15   ar
     4    15    16   ar
     5    16    17   ar
     6    17    18   ar
     7    18     1    1
     8     1     2    1
     9     3     2    1
    10     3     4    1
    11     4     5    1
    12     5     6    1
    13     6     7    1
    14     7     8    1
    15     8     9    1
    16     9    10    1
    17     3    11    1
    18    11    12    1
    19    12    13    2
    20    18    19   ar
    21    19    20   ar
    22    20    21   ar
    23    21    22   ar
    24    22    14   ar
    25    21    16   ar
    26    12     1   am
    27     8     3    1
    28    10     5    1
@<TRIPOS>MOLECULE
*****
 24 28 0 0 0
SMALL
GASTEIGER

@<TRIPOS>ATOM
      1 N          -5.5696  -19.1565   20.6920 N.am    1  UNL1       -0.2214
      2 C          -4.5843  -18.5218   19.7559 C.3     1  UNL1        0.1428
      3 C          -3.2043  -18.8710   20.2288 C.3     1  UNL1        0.1706
      4 C          -1.8933  -19.3000   20.8180 C.3     1  UNL1        0.1145
      5 N          -0.6068  -18.8736   20.1753 N.3     1  UNL1       -0.2697
      6 C          -0.6312  -18.0182   18.9434 C.3     1  UNL1        0.0723
      7 C          -1.9422  -17.5892   18.3542 C.3     1  UNL1        0.0209
      8 C          -3.2287  -18.0156   18.9969 C.3     1  UNL1        0.0427
      9 C          -2.6039  -18.6720   19.9288 C.3     1  UNL1        0.0209
     10 C          -1.9047  -18.9008   20.2431 C.3     1  UNL1        0.0723
     11 O          -3.3367  -19.7216   21.4572 O.3     1  UNL1       -0.4384
     12 C          -4.7985  -19.8980   21.7435 C.2     1  UNL1        0.4086
     13 O          -5.3861  -20.6789   22.8815 O.2     1  UNL1       -0.2258
     14 C         -11.7184  -17.8993   21.8619 C.ar    1  UNL1        0.0073
     15 C         -10.3702  -17.6827   22.4826 C.ar    1  UNL1        0.0027
     16 C          -9.3400  -18.2911   21.5777 C.ar    1  UNL1        0.0074
     17 C          -7.8460  -18.3820   21.6758 C.ar    1  UNL1        0.0155
     18 C          -7.0636  -19.0656   20.5939 C.ar    1  UNL1        0.0571
     19 C          -7.7752  -19.6582   19.4139 C.ar    1  UNL1        0.0155
     20 C          -9.2691  -19.5673   19.3158 C.ar    1  UNL1        0.0077
     21 C         -10.0516  -18.8837   20.3978 C.ar    1  UNL1        0.0292
     22 S         -11.5215  -18.6416   20.5734 S.2     1  UNL1       -0.0913
     23 C         -13.4847  -17.9623   23.7660 C.3     1  UNL1        0.0056
     24 C         -13.0326  -17.4522   22.4298 C.3     1  UNL1        0.0330
@<TRIPOS>BOND
     1    23    24    1
     2    24    14    1
     3    14    15   ar
     4    15    16   ar
     5    16    17   ar
     6    17    18   ar
     7    18     1    1
     8     1     2    1
     9     3     2    1
    10     3     4    1
    11     4     5    1
    12     5     6    1
    13     6     7    1
    14     7     8    1
    15     8     9    1
    16     9    10    1
    17     3    11    1
    18    11    12    1
    19    12    13    2
    20    18    19   ar
    21    19    20   ar
    22    20    21   ar
    23    21    22   ar
    24    22    14   ar
    25    21    16   ar
    26    12     1   am
    27     8     3    1
    28    10     5    1
@<TRIPOS>MOLECULE
*****
 24 28 0 0 0
SMALL
GASTEIGER

@<TRIPOS>ATOM
      1 N          -8.5853  -19.2155   22.4346 N.am    1  UNL1       -0.2214
      2 C          -9.5172  -18.1108   22.0328 C.3     1  UNL1        0.1428
      3 C         -10.7786  -18.2550   22.8316 C.3     1  UNL1        0.1706
      4 C         -11.9735  -18.5246   23.6973 C.3     1  UNL1        0.1145
      5 N         -13.1760  -17.6318   23.6151 N.3     1  UNL1       -0.2697
      6 C         -13.1837  -16.4694   22.6671 C.3     1  UNL1        0.0723
      7 C         -11.9888  -16.1997   21.8015 C.3     1  UNL1        0.0209
      8 C         -10.7862  -17.0925   21.8837 C.3     1  UNL1        0.0427
      9 C         -11.3398  -17.8383   22.7932 C.3     1  UNL1        0.0209
     10 C         -11.9771  -17.9821   23.2549 C.3     1  UNL1        0.0723
     11 O         -10.6263  -19.4487   23.7271 O.3     1  UNL1       -0.4384
     12 C          -9.2708  -20.0423   23.4817 C.2     1  UNL1        0.4086
     13 O          -8.7008  -21.2506   24.1638 O.2     1  UNL1       -0.2258
     14 C          -2.3461  -18.7847   21.1524 C.ar    1  UNL1        0.0073
     15 C          -3.3925  -18.0970   21.9782 C.ar    1  UNL1        0.0027
     16 C          -4.6977  -18.8013   21.7529 C.ar    1  UNL1        0.0074
     17 C          -6.0735  -18.5650   22.3018 C.ar    1  UNL1        0.0155
     18 C          -7.2095  -19.4517   21.8857 C.ar    1  UNL1        0.0571
     19 C          -6.9697  -20.5747   20.9205 C.ar    1  UNL1        0.0155
     20 C          -5.5939  -20.8109   20.3716 C.ar    1  UNL1        0.0077
     21 C          -4.4579  -19.9242   20.7878 C.ar    1  UNL1        0.0292
     22 S          -3.0045  -19.9140   20.4167 S.2     1  UNL1       -0.0913
     23 C          -0.3451  -17.7968   19.8222 C.3     1  UNL1        0.0056
     24 C          -0.8960  -18.4092   21.0758 C.3     1  UNL1        0.0330
@<TRIPOS>BOND
     1    23    24    1
     2    24    14    1
     3    14    15   ar
     4    15    16   ar
     5    16    17   ar
     6    17    18   ar
     7    18     1    1
     8     1     2    1
     9     3     2    1
    10     3     4    1
    11     4     5    1
    12     5     6    1
    13     6     7    1
    14     7     8    1
    15     8     9    1
    16     9    10    1
    17     3    11    1
    18    11    12    1
    19    12    13    2
    20    18    19   ar
    21    19    20   ar
    22    20    21   ar
    23    21    22   ar
    24    22    14   ar
    25    21    16   ar
    26    12     1   am
    27     8     3    1
    28    10     5    1
@<TRIPOS>MOLECULE
*****
 24 28 0 0 0
SMALL
GASTEIGER

@<TRIPOS>ATOM
      1 N          -5.3511  -18.0971   22.2867 N.am    1  UNL1       -0.2214
      2 C          -4.5307  -18.4477   21.0809 C.3     1  UNL1        0.1428
      3 C          -3.1504  -17.8964   21.2830 C.3     1  UNL1        0.1706
      4 C          -1.8210  -17.2907   21.6234 C.3     1  UNL1        0.1145
      5 N          -0.6747  -17.4098   20.6634 N.3     1  UNL1       -0.2697
      6 C          -0.8577  -18.1346   19.3629 C.3     1  UNL1        0.0723
      7 C          -2.1871  -18.7402   19.0225 C.3     1  UNL1        0.0209
      8 C          -3.3334  -18.6211   19.9826 C.3     1  UNL1        0.0427
      9 C          -2.6155  -17.9519   20.8350 C.3     1  UNL1        0.0209
     10 C          -1.9064  -17.6289   21.0166 C.3     1  UNL1        0.0723
     11 O          -3.1178  -17.2050   22.6138 O.3     1  UNL1       -0.4384
     12 C          -4.4779  -17.3290   23.2341 C.2     1  UNL1        0.4086
     13 O          -4.8920  -16.7812   24.5677 O.2     1  UNL1       -0.2258
     14 C         -11.6617  -17.7950   23.2045 C.ar    1  UNL1        0.0073
     15 C         -10.4905  -16.8780   23.0106 C.ar    1  UNL1        0.0027
     16 C          -9.2615  -17.7232   22.8509 C.ar    1  UNL1        0.0074
     17 C          -7.8209  -17.3681   22.6311 C.ar    1  UNL1        0.0155
     18 C          -6.7918  -18.4522   22.5065 C.ar    1  UNL1        0.0571
     19 C          -7.2034  -19.8915   22.6017 C.ar    1  UNL1        0.0155
     20 C          -8.6440  -20.2466   22.8215 C.ar    1  UNL1        0.0077
     21 C          -9.6731  -19.1624   22.9461 C.ar    1  UNL1        0.0292
     22 S         -11.1565  -19.2068   23.1647 S.2     1  UNL1       -0.0913
     23 C         -13.9939  -18.1861   24.2803 C.3     1  UNL1        0.0056
     24 C         -13.0875  -17.3741   23.4033 C.3     1  UNL1        0.0330
@<TRIPOS>BOND
     1    23    24    1
     2    24    14    1
     3    14    15   ar
     4    15    16   ar
     5    16    17   ar
     6    17    18   ar
     7    18     1    1
     8     1     2    1
     9     3     2    1
    10     3     4    1
    11     4     5    1
    12     5     6    1
    13     6     7    1
    14     7     8    1
    15     8     9    1
    16     9    10    1
    17     3    11    1
    18    11    12    1
    19    12    13    2
    20    18    19   ar
    21    19    20   ar
    22    20    21   ar
    23    21    22   ar
    24    22    14   ar
    25    21    16   ar
    26    12     1   am
    27     8     3    1
    28    10     5    1
@<TRIPOS>MOLECULE
*****
 24 28 0 0 0
SMALL
GASTEIGER

@<TRIPOS>ATOM
      1 N          -8.0874  -18.9231   20.8569 N.am    1  UNL1       -0.2214
      2 C          -9.0243  -18.2021   21.7801 C.3     1  UNL1        0.1428
      3 C         -10.4166  -18.3625   21.2456 C.3     1  UNL1        0.1706
      4 C         -11.7456  -18.6066   20.5944 C.3     1  UNL1        0.1145
      5 N         -12.9949  -18.0454   21.2060 N.3     1  UNL1       -0.2697
      6 C         -12.9153  -17.2400   22.4690 C.3     1  UNL1        0.0723
      7 C         -11.5863  -16.9959   23.1202 C.3     1  UNL1        0.0209
      8 C         -10.3369  -17.5571   22.5085 C.3     1  UNL1        0.0427
      9 C         -10.9996  -18.1006   21.5310 C.3     1  UNL1        0.0209
     10 C         -11.7084  -18.2308   21.1837 C.3     1  UNL1        0.0723
     11 O         -10.3402  -19.1826   19.9920 O.3     1  UNL1       -0.4384
     12 C          -8.9006  -19.5291   19.7517 C.2     1  UNL1        0.4086
     13 O          -8.3680  -20.3393   18.6072 O.2     1  UNL1       -0.2258
     14 C          -1.7907  -18.5606   19.8684 C.ar    1  UNL1        0.0073
     15 C          -3.0768  -18.2135   19.1791 C.ar    1  UNL1        0.0027
     16 C          -4.2081  -18.6190   20.0769 C.ar    1  UNL1        0.0074
     17 C          -5.6969  -18.5211   19.9221 C.ar    1  UNL1        0.0155
     18 C          -6.5986  -19.0210   21.0116 C.ar    1  UNL1        0.0571
     19 C          -6.0115  -19.6187   22.2559 C.ar    1  UNL1        0.0155
     20 C          -4.5228  -19.7165   22.4105 C.ar    1  UNL1        0.0077
     21 C          -3.6211  -19.2167   21.3210 C.ar    1  UNL1        0.0292
     22 S          -2.1270  -19.1806   21.1922 S.2     1  UNL1       -0.0913
     23 C           0.6178  -17.6353   20.1724 C.3     1  UNL1        0.0056
     24 C          -0.4106  -18.3285   19.3288 C.3     1  UNL1        0.0330
@<TRIPOS>BOND
     1    23    24    1
     2    24    14    1
     3    14    15   ar
     4    15    16   ar
     5    16    17   ar
     6    17    18   ar
     7    18     1    1
     8     1     2    1
     9     3     2    1
    10     3     4    1
    11     4     5    1
    12     5     6    1
    13     6     7    1
    14     7     8    1
    15     8     9    1
    16     9    10    1
    17     3    11    1
    18    11    12    1
    19    12    13    2
    20    18    19   ar
    21    19    20   ar
    22    20    21   ar
    23    21    22   ar
    24    22    14   ar
    25    21    16   ar
    26    12     1   am
    27     8     3    1
    28    10     5    1
@<TRIPOS>MOLECULE
*****
 24 28 0 0 0
SMALL
GASTEIGER

@<TRIPOS>ATOM
      1 N          -8.5841  -17.5198   23.5586 N.am    1  UNL1       -0.2214
      2 C          -9.6191  -17.5018   22.4730 C.3     1  UNL1        0.1428
      3 C         -10.9617  -17.7084   23.1090 C.3     1  UNL1        0.1706
      4 C         -12.2289  -17.9229   23.8825 C.3     1  UNL1        0.1145
      5 N         -13.5455  -17.9747   23.1657 N.3     1  UNL1       -0.2697
      6 C         -13.5950  -17.8120   21.6754 C.3     1  UNL1        0.0723
      7 C         -12.3279  -17.5976   20.9019 C.3     1  UNL1        0.0209
      8 C         -11.0112  -17.5458   21.6187 C.3     1  UNL1        0.0427
      9 C         -11.5762  -17.7326   22.7745 C.3     1  UNL1        0.0209
     10 C         -12.2520  -17.8470   23.1870 C.3     1  UNL1        0.0723
     11 O         -10.7566  -17.8541   24.5878 O.3     1  UNL1       -0.4384
     12 C          -9.2871  -17.7375   24.8656 C.2     1  UNL1        0.4086
     13 O          -8.6352  -17.8236   26.2138 O.2     1  UNL1       -0.2258
     14 C          -2.5162  -18.2838   21.7272 C.ar    1  UNL1        0.0073
     15 C          -3.8559  -18.9319   21.5401 C.ar    1  UNL1        0.0027
     16 C          -4.8650  -18.1448   22.3226 C.ar    1  UNL1        0.0074
     17 C          -6.3434  -18.3147   22.5110 C.ar    1  UNL1        0.0155
     18 C          -7.1057  -17.3499   23.3702 C.ar    1  UNL1        0.0571
     19 C          -6.3896  -16.2153   24.0409 C.ar    1  UNL1        0.0155
     20 C          -4.9113  -16.0455   23.8525 C.ar    1  UNL1        0.0077
     21 C          -4.1490  -17.0102   22.9933 C.ar    1  UNL1        0.0292
     22 S          -2.6973  -17.0961   22.6254 S.2     1  UNL1       -0.0913
     23 C          -0.5992  -17.9621   20.0035 C.3     1  UNL1        0.0056
     24 C          -1.2226  -18.7427   21.1224 C.3     1  UNL1        0.0330
@<TRIPOS>BOND
     1    23    24    1
     2    24    14    1
     3    14    15   ar
     4    15    16   ar
     5    16    17   ar
     6    17    18   ar
     7    18     1    1
     8     1     2    1
     9     3     2    1
    10     3     4    1
    11     4     5    1
    12     5     6    1
    13     6     7    1
    14     7     8    1
    15     8     9    1
    16     9    10    1
    17     3    11    1
    18    11    12    1
    19    12    13    2
    20    18    19   ar
    21    19    20   ar
    22    20    21   ar
    23    21    22   ar
    24    22    14   ar
    25    21    16   ar
    26    12     1   am
    27     8     3    1
    28    10     5    1
@<TRIPOS>MOLECULE
*****
 24 28 0 0 0
SMALL
GASTEIGER

@<TRIPOS>ATOM
      1 N         -13.7998   -6.7912   18.2654 N.am    1  UNL1       -0.2214
      2 C         -15.0720   -7.1924   18.9515 C.3     1  UNL1        0.1428
      3 C         -15.3691   -8.6154   18.5819 C.3     1  UNL1        0.1706
      4 C         -15.5349  -10.0349   18.1263 C.3     1  UNL1        0.1145
      5 N         -16.7136  -10.8385   18.5899 N.3     1  UNL1       -0.2697
      6 C         -17.7265  -10.2227   19.5090 C.3     1  UNL1        0.0723
      7 C         -17.5607   -8.8033   19.9646 C.3     1  UNL1        0.0209
      8 C         -16.3820   -7.9996   19.5010 C.3     1  UNL1        0.0427
      9 C         -15.9192   -8.9904   18.7982 C.3     1  UNL1        0.0209
     10 C         -16.0076   -9.7475   18.5552 C.3     1  UNL1        0.0723
     11 O         -14.2807   -9.0937   17.6673 O.3     1  UNL1       -0.4384
     12 C         -13.3108   -7.9662   17.4717 C.2     1  UNL1        0.4086
     13 O         -12.0698   -8.0068   16.6301 O.2     1  UNL1       -0.2258
     14 C         -12.5702   -0.5326   17.9914 C.ar    1  UNL1        0.0073
     15 C         -13.6825   -1.4923   17.6888 C.ar    1  UNL1        0.0027
     16 C         -13.2075   -2.8742   18.0278 C.ar    1  UNL1        0.0074
     17 C         -13.8736   -4.2151   17.9363 C.ar    1  UNL1        0.0155
     18 C         -13.1338   -5.4503   18.3569 C.ar    1  UNL1        0.0571
     19 C         -11.7279   -5.3446   18.8691 C.ar    1  UNL1        0.0155
     20 C         -11.0619   -4.0037   18.9606 C.ar    1  UNL1        0.0077
     21 C         -11.8017   -2.7685   18.5399 C.ar    1  UNL1        0.0292
     22 S         -11.4078   -1.3213   18.5175 S.2     1  UNL1       -0.0913
     23 C         -12.5089    1.5380   16.4234 C.3     1  UNL1        0.0056
     24 C         -12.6128    0.9546   17.8014 C.3     1  UNL1        0.0330
@<TRIPOS>BOND
     1    23    24    1
     2    24    14    1
     3    14    15   ar
     4    15    16   ar
     5    16    17   ar
     6    17    18   ar
     7    18     1    1
     8     1     2    1
     9     3     2    1
    10     3     4    1
    11     4     5    1
    12     5     6    1
    13     6     7    1
    14     7     8    1
    15     8     9    1
    16     9    10    1
    17     3    11    1
    18    11    12    1
    19    12    13    2
    20    18    19   ar
    21    19    20   ar
    22    20    21   ar
    23    21    22   ar
    24    22    14   ar
    25    21    16   ar
    26    12     1   am
    27     8     3    1
    28    10     5    1
