@<TRIPOS>MOLECULE
*****
 33 36 0 0 0
SMALL
GASTEIGER

@<TRIPOS>ATOM
      1 C          -4.7100  -19.8287   20.8646 C.ar    1  UNL1        0.1330
      2 C          -4.7083  -18.4991   21.5589 C.ar    1  UNL1        0.0685
      3 C          -3.4141  -17.8920   22.0134 C.ar    1  UNL1        0.1368
      4 N          -2.1217  -18.6145   21.7735 N.ar    1  UNL1       -0.2088
      5 C          -2.1234  -19.9442   21.0792 C.ar    1  UNL1        0.2012
      6 N          -3.4175  -20.5513   20.6247 N.ar    1  UNL1       -0.2091
      7 N          -6.0042  -20.4358   20.4101 N.pl3   1  UNL1       -0.3196
      8 H          -6.0067  -21.1084   19.6912 H       1  UNL1        0.1481
      9 C         -12.8288  -17.6391   21.5119 C.3     1  UNL1        0.0296
     10 C         -12.0975  -18.2645   22.6625 C.3     1  UNL1        0.0930
     11 C         -13.3312  -17.9067   23.4369 C.3     1  UNL1        0.0296
     12 C         -11.0166  -18.4916   21.6474 C.3     1  UNL1        0.0296
     13 C          -9.8751  -19.1827   22.3325 C.3     1  UNL1        0.0298
     14 C          -9.6400  -18.9146   20.8755 C.3     1  UNL1        0.0042
     15 C          -8.3498  -19.3323   20.2348 C.3     1  UNL1        0.0196
     16 C          -7.2945  -20.0181   21.0510 C.3     1  UNL1        0.0704
     17 C          -7.5296  -20.2862   22.5079 C.3     1  UNL1        0.0196
     18 C          -8.8198  -19.8685   23.1487 C.3     1  UNL1        0.0042
     19 C         -10.2504  -19.3827   23.7710 C.3     1  UNL1        0.1419
     20 O         -11.6239  -18.8152   23.9749 O.3     1  UNL1       -0.3585
     21 N          -3.4123  -16.5624   22.7077 N.pl3   1  UNL1       -0.2961
     22 H          -2.7120  -15.9013   22.5034 H       1  UNL1        0.1537
     23 C          -4.4777  -16.2400   23.7133 C.ar    1  UNL1        0.0773
     24 C          -5.6040  -15.3208   23.3442 C.ar    1  UNL1        0.0182
     25 C          -6.6694  -14.9984   24.3498 C.ar    1  UNL1        0.0198
     26 C          -6.6083  -15.5954   25.7246 C.ar    1  UNL1        0.1080
     27 C          -5.4819  -16.5147   26.0937 C.ar    1  UNL1        0.0492
     28 C          -4.4166  -16.8370   25.0881 C.ar    1  UNL1        0.1547
     29 F          -3.2902  -17.7563   25.4572 F       1  UNL1       -0.2028
     30 S          -7.6735  -15.2731   26.7302 S.O2    1  UNL1        0.0105
     31 C          -8.7388  -14.9508   27.7358 C.3     1  UNL1        0.1816
     32 O          -8.7081  -15.3056   25.6446 O.2     1  UNL1       -0.1686
     33 O          -6.6389  -15.2406   27.8157 O.2     1  UNL1       -0.1686
@<TRIPOS>BOND
     1     9    10    1
     2    10    11    1
     3    10    12    1
     4    13    12    1
     5    13    14    1
     6    14    15    1
     7    15    16    1
     8    16     7    1
     9     7     1    1
    10     1     2   ar
    11     2     3   ar
    12     3    21    1
    13    21    23    1
    14    23    24   ar
    15    24    25   ar
    16    25    26   ar
    17    26    30    1
    18    30    31    1
    19    30    32    2
    20    30    33    2
    21    26    27   ar
    22    27    28   ar
    23    28    29    1
    24     3     4   ar
    25     4     5   ar
    26     5     6   ar
    27    16    17    1
    28    17    18    1
    29    13    19    1
    30    19    20    1
    31    20    10    1
    32    18    13    1
    33     6     1   ar
    34    28    23   ar
    35     7     8    1
    36    21    22    1
@<TRIPOS>MOLECULE
*****
 33 36 0 0 0
SMALL
GASTEIGER

@<TRIPOS>ATOM
      1 C          -4.5637  -19.6823   20.5290 C.ar    1  UNL1        0.1330
      2 C          -4.3682  -18.6382   21.5881 C.ar    1  UNL1        0.0685
      3 C          -3.2088  -17.6903   21.5018 C.ar    1  UNL1        0.1368
      4 N          -2.2449  -17.7865   20.3566 N.ar    1  UNL1       -0.2088
      5 C          -2.4404  -18.8306   19.2975 C.ar    1  UNL1        0.2012
      6 N          -3.5997  -19.7785   19.3837 N.ar    1  UNL1       -0.2091
      7 N          -5.7230  -20.6302   20.6152 N.pl3   1  UNL1       -0.3196
      8 H          -5.5870  -21.5907   20.4472 H       1  UNL1        0.1481
      9 C         -11.8289  -18.5981   24.3835 C.3     1  UNL1        0.0296
     10 C         -11.7966  -18.4306   22.8932 C.3     1  UNL1        0.0930
     11 C         -13.1824  -17.8886   23.0818 C.3     1  UNL1        0.0296
     12 C         -10.4174  -19.0077   23.0162 C.3     1  UNL1        0.0296
     13 C          -9.8223  -19.0836   21.6414 C.3     1  UNL1        0.0298
     14 C          -8.9163  -19.5845   22.7268 C.3     1  UNL1        0.0042
     15 C          -7.5499  -20.1000   22.3847 C.3     1  UNL1        0.0196
     16 C          -7.0895  -20.1146   20.9572 C.3     1  UNL1        0.0704
     17 C          -7.9955  -19.6138   19.8718 C.3     1  UNL1        0.0196
     18 C          -9.3619  -19.0983   20.2139 C.3     1  UNL1        0.0042
     19 C         -10.8338  -18.5535   20.6687 C.3     1  UNL1        0.1419
     20 O         -12.0538  -18.1499   21.4423 O.3     1  UNL1       -0.3585
     21 N          -3.0134  -16.6462   22.5609 N.pl3   1  UNL1       -0.2961
     22 H          -2.1630  -16.1531   22.6151 H       1  UNL1        0.1537
     23 C          -4.1137  -16.3533   23.5375 C.ar    1  UNL1        0.0773
     24 C          -5.1799  -15.3573   23.1895 C.ar    1  UNL1        0.0182
     25 C          -6.2802  -15.0644   24.1660 C.ar    1  UNL1        0.0198
     26 C          -6.3143  -15.7676   25.4906 C.ar    1  UNL1        0.1080
     27 C          -5.2480  -16.7636   25.8386 C.ar    1  UNL1        0.0492
     28 C          -4.1477  -17.0564   24.8620 C.ar    1  UNL1        0.1547
     29 F          -3.0814  -18.0525   25.2100 F       1  UNL1       -0.2028
     30 S          -7.4145  -15.4747   26.4671 S.O2    1  UNL1        0.0105
     31 C          -8.5147  -15.1819   27.4436 C.3     1  UNL1        0.1816
     32 O          -8.3223  -15.1023   25.3326 O.2     1  UNL1       -0.1686
     33 O          -6.5067  -15.8471   27.6016 O.2     1  UNL1       -0.1686
@<TRIPOS>BOND
     1     9    10    1
     2    10    11    1
     3    10    12    1
     4    13    12    1
     5    13    14    1
     6    14    15    1
     7    15    16    1
     8    16     7    1
     9     7     1    1
    10     1     2   ar
    11     2     3   ar
    12     3    21    1
    13    21    23    1
    14    23    24   ar
    15    24    25   ar
    16    25    26   ar
    17    26    30    1
    18    30    31    1
    19    30    32    2
    20    30    33    2
    21    26    27   ar
    22    27    28   ar
    23    28    29    1
    24     3     4   ar
    25     4     5   ar
    26     5     6   ar
    27    16    17    1
    28    17    18    1
    29    13    19    1
    30    19    20    1
    31    20    10    1
    32    18    13    1
    33     6     1   ar
    34    28    23   ar
    35     7     8    1
    36    21    22    1
@<TRIPOS>MOLECULE
*****
 33 36 0 0 0
SMALL
GASTEIGER

@<TRIPOS>ATOM
      1 C          -9.3062  -18.9825   20.0937 C.ar    1  UNL1        0.1330
      2 C          -7.9936  -19.4947   20.6085 C.ar    1  UNL1        0.0685
      3 C          -7.3047  -20.6287   19.9089 C.ar    1  UNL1        0.1368
      4 N          -7.9282  -21.2506   18.6946 N.ar    1  UNL1       -0.2088
      5 C          -9.2408  -20.7384   18.1799 C.ar    1  UNL1        0.2012
      6 N          -9.9297  -19.6044   18.8794 N.ar    1  UNL1       -0.2091
      7 N          -9.9951  -17.8485   20.7932 N.pl3   1  UNL1       -0.3196
      8 H         -10.8499  -17.5035   20.4475 H       1  UNL1        0.1481
      9 C          -8.4169  -16.1905   27.8905 C.3     1  UNL1        0.0296
     10 C          -7.6623  -15.5036   26.7912 C.3     1  UNL1        0.0930
     11 C          -6.9581  -14.8118   27.9205 C.3     1  UNL1        0.0296
     12 C          -8.5243  -16.3390   25.8916 C.3     1  UNL1        0.0296
     13 C          -8.1552  -16.0239   24.4722 C.3     1  UNL1        0.0298
     14 C          -9.2429  -17.0480   24.6068 C.3     1  UNL1        0.0042
     15 C          -9.8561  -17.6562   23.3805 C.3     1  UNL1        0.0196
     16 C          -9.3818  -17.2403   22.0196 C.3     1  UNL1        0.0704
     17 C          -8.2942  -16.2161   21.8850 C.3     1  UNL1        0.0196
     18 C          -7.6809  -15.6079   23.1114 C.3     1  UNL1        0.0042
     19 C          -7.0651  -14.9937   24.4946 C.3     1  UNL1        0.1419
     20 O          -6.7605  -14.6721   25.9277 O.3     1  UNL1       -0.3585
     21 N          -5.9921  -21.1409   20.4236 N.pl3   1  UNL1       -0.2961
     22 H          -5.9251  -22.0583   20.7743 H       1  UNL1        0.1537
     23 C          -4.7817  -20.2551   20.4040 C.ar    1  UNL1        0.0773
     24 C          -3.8622  -20.2677   19.2189 C.ar    1  UNL1        0.0182
     25 C          -2.6518  -19.3819   19.1993 C.ar    1  UNL1        0.0198
     26 C          -2.3609  -18.4836   20.3648 C.ar    1  UNL1        0.1080
     27 C          -3.2804  -18.4710   21.5499 C.ar    1  UNL1        0.0492
     28 C          -4.4908  -19.3567   21.5695 C.ar    1  UNL1        0.1547
     29 F          -5.4103  -19.3442   22.7546 F       1  UNL1       -0.2028
     30 S          -1.1505  -17.5978   20.3452 S.O2    1  UNL1        0.0105
     31 C           0.0598  -16.7121   20.3256 C.3     1  UNL1        0.1816
     32 O          -1.9442  -16.4991   20.9877 O.2     1  UNL1       -0.1686
     33 O          -0.3569  -18.6965   19.7027 O.2     1  UNL1       -0.1686
@<TRIPOS>BOND
     1     9    10    1
     2    10    11    1
     3    10    12    1
     4    13    12    1
     5    13    14    1
     6    14    15    1
     7    15    16    1
     8    16     7    1
     9     7     1    1
    10     1     2   ar
    11     2     3   ar
    12     3    21    1
    13    21    23    1
    14    23    24   ar
    15    24    25   ar
    16    25    26   ar
    17    26    30    1
    18    30    31    1
    19    30    32    2
    20    30    33    2
    21    26    27   ar
    22    27    28   ar
    23    28    29    1
    24     3     4   ar
    25     4     5   ar
    26     5     6   ar
    27    16    17    1
    28    17    18    1
    29    13    19    1
    30    19    20    1
    31    20    10    1
    32    18    13    1
    33     6     1   ar
    34    28    23   ar
    35     7     8    1
    36    21    22    1
@<TRIPOS>MOLECULE
*****
 33 36 0 0 0
SMALL
GASTEIGER

@<TRIPOS>ATOM
      1 C          -0.2677    3.5609   20.0421 C.ar    1  UNL1        0.1330
      2 C          -1.4315    2.8579   20.6756 C.ar    1  UNL1        0.0685
      3 C          -2.8289    3.1644   20.2243 C.ar    1  UNL1        0.1368
      4 N          -3.0623    4.1738   19.1396 N.ar    1  UNL1       -0.2088
      5 C          -1.8984    4.8767   18.5061 C.ar    1  UNL1        0.2012
      6 N          -0.5011    4.5703   18.9573 N.ar    1  UNL1       -0.2091
      7 N           1.1296    3.2545   20.4933 N.pl3   1  UNL1       -0.3196
      8 H           1.6084    3.8869   21.0765 H       1  UNL1        0.1481
      9 C           3.9120   -3.6639   20.4108 C.3     1  UNL1        0.0296
     10 C           4.0298   -2.8108   19.1827 C.3     1  UNL1        0.0930
     11 C           4.7214   -4.0108   18.6069 C.3     1  UNL1        0.0296
     12 C           3.3135   -1.7891   20.0154 C.3     1  UNL1        0.0296
     13 C           3.1332   -0.5553   19.1815 C.3     1  UNL1        0.0298
     14 C           2.5721   -0.4420   20.5679 C.3     1  UNL1        0.0042
     15 C           1.9042    0.8279   21.0052 C.3     1  UNL1        0.0196
     16 C           1.7975    1.9845   20.0560 C.3     1  UNL1        0.0704
     17 C           2.3587    1.8712   18.6696 C.3     1  UNL1        0.0196
     18 C           3.0265    0.6013   18.2323 C.3     1  UNL1        0.0042
     19 C           3.7381   -0.8145   17.8334 C.3     1  UNL1        0.1419
     20 O           4.2922   -2.2084   17.8342 O.3     1  UNL1       -0.3585
     21 N          -3.9927    2.4614   20.8577 N.pl3   1  UNL1       -0.2961
     22 H          -4.1456    1.5051   20.6811 H       1  UNL1        0.1537
     23 C          -4.9236    3.2157   21.7603 C.ar    1  UNL1        0.0773
     24 C          -4.7011    3.2069   23.2437 C.ar    1  UNL1        0.0182
     25 C          -5.6320    3.9611   24.1463 C.ar    1  UNL1        0.0198
     26 C          -6.7854    4.7242   23.5654 C.ar    1  UNL1        0.1080
     27 C          -7.0079    4.7330   22.0820 C.ar    1  UNL1        0.0492
     28 C          -6.0770    3.9787   21.1795 C.ar    1  UNL1        0.1547
     29 F          -6.2996    3.9876   19.6961 F       1  UNL1       -0.2028
     30 S          -7.7163    5.4784   24.4679 S.O2    1  UNL1        0.0105
     31 C          -8.6472    6.2326   25.3705 C.3     1  UNL1        0.1816
     32 O          -6.5464    6.1909   25.0791 O.2     1  UNL1       -0.1686
     33 O          -8.8862    4.7658   23.8568 O.2     1  UNL1       -0.1686
@<TRIPOS>BOND
     1     9    10    1
     2    10    11    1
     3    10    12    1
     4    13    12    1
     5    13    14    1
     6    14    15    1
     7    15    16    1
     8    16     7    1
     9     7     1    1
    10     1     2   ar
    11     2     3   ar
    12     3    21    1
    13    21    23    1
    14    23    24   ar
    15    24    25   ar
    16    25    26   ar
    17    26    30    1
    18    30    31    1
    19    30    32    2
    20    30    33    2
    21    26    27   ar
    22    27    28   ar
    23    28    29    1
    24     3     4   ar
    25     4     5   ar
    26     5     6   ar
    27    16    17    1
    28    17    18    1
    29    13    19    1
    30    19    20    1
    31    20    10    1
    32    18    13    1
    33     6     1   ar
    34    28    23   ar
    35     7     8    1
    36    21    22    1
@<TRIPOS>MOLECULE
*****
 33 36 0 0 0
SMALL
GASTEIGER

@<TRIPOS>ATOM
      1 C          -3.5738    3.1245   20.4191 C.ar    1  UNL1        0.1330
      2 C          -2.1322    3.0194   20.8199 C.ar    1  UNL1        0.0685
      3 C          -1.0620    3.5623   19.9198 C.ar    1  UNL1        0.1368
      4 N          -1.4335    4.2102   18.6190 N.ar    1  UNL1       -0.2088
      5 C          -2.8751    4.3154   18.2182 C.ar    1  UNL1        0.2012
      6 N          -3.9453    3.7725   19.1182 N.ar    1  UNL1       -0.2091
      7 N          -4.6440    2.5817   21.3191 N.pl3   1  UNL1       -0.3196
      8 H          -5.1344    1.7667   21.0648 H       1  UNL1        0.1481
      9 C          -7.9359    6.8506   26.4719 C.3     1  UNL1        0.0296
     10 C          -6.7051    6.0754   26.8383 C.3     1  UNL1        0.0930
     11 C          -6.9021    6.7031   28.1863 C.3     1  UNL1        0.0296
     12 C          -6.7655    5.6098   25.4136 C.3     1  UNL1        0.0296
     13 C          -5.6132    4.6781   25.1812 C.3     1  UNL1        0.0298
     14 C          -6.4819    4.8864   23.9763 C.3     1  UNL1        0.0042
     15 C          -6.1588    4.1876   22.6889 C.3     1  UNL1        0.0196
     16 C          -4.9670    3.2805   22.6065 C.3     1  UNL1        0.0704
     17 C          -4.0983    3.0722   23.8114 C.3     1  UNL1        0.0196
     18 C          -4.4214    3.7710   25.0988 C.3     1  UNL1        0.0042
     19 C          -4.8406    4.5678   26.4623 C.3     1  UNL1        0.1419
     20 O          -5.5154    5.4314   27.4864 O.3     1  UNL1       -0.3585
     21 N           0.3796    3.4571   20.3206 N.pl3   1  UNL1       -0.2961
     22 H           0.8105    4.1967   20.8069 H       1  UNL1        0.1537
     23 C           1.1647    2.2251   19.9803 C.ar    1  UNL1        0.0773
     24 C           1.9729    2.1756   18.7177 C.ar    1  UNL1        0.0182
     25 C           2.7580    0.9435   18.3774 C.ar    1  UNL1        0.0198
     26 C           2.7349   -0.2390   19.2999 C.ar    1  UNL1        0.1080
     27 C           1.9266   -0.1895   20.5626 C.ar    1  UNL1        0.0492
     28 C           1.1416    1.0425   20.9028 C.ar    1  UNL1        0.1547
     29 F           0.3334    1.0920   22.1656 F       1  UNL1       -0.2028
     30 S           3.5199   -1.4711   18.9597 S.O2    1  UNL1        0.0105
     31 C           4.3049   -2.7031   18.6195 C.3     1  UNL1        0.1816
     32 O           3.2891   -2.0004   20.3441 O.2     1  UNL1       -0.1686
     33 O           3.7507   -0.9418   17.5754 O.2     1  UNL1       -0.1686
@<TRIPOS>BOND
     1     9    10    1
     2    10    11    1
     3    10    12    1
     4    13    12    1
     5    13    14    1
     6    14    15    1
     7    15    16    1
     8    16     7    1
     9     7     1    1
    10     1     2   ar
    11     2     3   ar
    12     3    21    1
    13    21    23    1
    14    23    24   ar
    15    24    25   ar
    16    25    26   ar
    17    26    30    1
    18    30    31    1
    19    30    32    2
    20    30    33    2
    21    26    27   ar
    22    27    28   ar
    23    28    29    1
    24     3     4   ar
    25     4     5   ar
    26     5     6   ar
    27    16    17    1
    28    17    18    1
    29    13    19    1
    30    19    20    1
    31    20    10    1
    32    18    13    1
    33     6     1   ar
    34    28    23   ar
    35     7     8    1
    36    21    22    1
@<TRIPOS>MOLECULE
*****
 33 36 0 0 0
SMALL
GASTEIGER

@<TRIPOS>ATOM
      1 C          -1.5485    3.8356   19.5622 C.ar    1  UNL1        0.1330
      2 C          -2.3838    3.2049   20.6367 C.ar    1  UNL1        0.0685
      3 C          -3.8787    3.1906   20.5132 C.ar    1  UNL1        0.1368
      4 N          -4.5382    3.8071   19.3154 N.ar    1  UNL1       -0.2088
      5 C          -3.7029    4.4378   18.2409 C.ar    1  UNL1        0.2012
      6 N          -2.2081    4.4520   18.3643 N.ar    1  UNL1       -0.2091
      7 N          -0.0537    3.8498   19.6856 N.pl3   1  UNL1       -0.3196
      8 H           0.4191    4.6988   19.8433 H       1  UNL1        0.1481
      9 C           4.9242   -1.2941   17.5946 C.3     1  UNL1        0.0296
     10 C           3.9018   -1.6426   18.6353 C.3     1  UNL1        0.0930
     11 C           4.5800   -2.9805   18.6276 C.3     1  UNL1        0.0296
     12 C           3.4374   -0.2318   18.4254 C.3     1  UNL1        0.0296
     13 C           2.2697    0.0120   19.3348 C.3     1  UNL1        0.0298
     14 C           2.6452    1.1956   18.4934 C.3     1  UNL1        0.0042
     15 C           1.8707    2.4748   18.6103 C.3     1  UNL1        0.0196
     16 C           0.7208    2.5705   19.5687 C.3     1  UNL1        0.0704
     17 C           0.3453    1.3869   20.4101 C.3     1  UNL1        0.0196
     18 C           1.1197    0.1076   20.2932 C.3     1  UNL1        0.0042
     19 C           2.0124   -1.2482   20.1068 C.3     1  UNL1        0.1419
     20 O           3.0211   -2.2708   19.6745 O.3     1  UNL1       -0.3585
     21 N          -4.7140    2.5599   21.5877 N.pl3   1  UNL1       -0.2961
     22 H          -5.0161    1.6278   21.4929 H       1  UNL1        0.1537
     23 C          -5.0890    3.3496   22.8067 C.ar    1  UNL1        0.0773
     24 C          -4.2863    3.2110   24.0663 C.ar    1  UNL1        0.0182
     25 C          -4.6613    4.0007   25.2853 C.ar    1  UNL1        0.0198
     26 C          -5.8389    4.9289   25.2447 C.ar    1  UNL1        0.1080
     27 C          -6.6416    5.0674   23.9850 C.ar    1  UNL1        0.0492
     28 C          -6.2666    4.2778   22.7661 C.ar    1  UNL1        0.1547
     29 F          -7.0692    4.4163   21.5065 F       1  UNL1       -0.2028
     30 S          -6.2139    5.7185   26.4636 S.O2    1  UNL1        0.0105
     31 C          -6.5889    6.5081   27.6825 C.3     1  UNL1        0.1816
     32 O          -7.3386    6.3571   25.7039 O.2     1  UNL1       -0.1686
     33 O          -5.0892    5.0799   27.2233 O.2     1  UNL1       -0.1686
@<TRIPOS>BOND
     1     9    10    1
     2    10    11    1
     3    10    12    1
     4    13    12    1
     5    13    14    1
     6    14    15    1
     7    15    16    1
     8    16     7    1
     9     7     1    1
    10     1     2   ar
    11     2     3   ar
    12     3    21    1
    13    21    23    1
    14    23    24   ar
    15    24    25   ar
    16    25    26   ar
    17    26    30    1
    18    30    31    1
    19    30    32    2
    20    30    33    2
    21    26    27   ar
    22    27    28   ar
    23    28    29    1
    24     3     4   ar
    25     4     5   ar
    26     5     6   ar
    27    16    17    1
    28    17    18    1
    29    13    19    1
    30    19    20    1
    31    20    10    1
    32    18    13    1
    33     6     1   ar
    34    28    23   ar
    35     7     8    1
    36    21    22    1
@<TRIPOS>MOLECULE
*****
 33 36 0 0 0
SMALL
GASTEIGER

@<TRIPOS>ATOM
      1 C          -9.4209  -19.9767   19.4638 C.ar    1  UNL1        0.1330
      2 C          -8.0597  -20.2722   20.0206 C.ar    1  UNL1        0.0685
      3 C          -7.1733  -21.2742   19.3422 C.ar    1  UNL1        0.1368
      4 N          -7.6479  -21.9807   18.1071 N.ar    1  UNL1       -0.2088
      5 C          -9.0090  -21.6852   17.5503 C.ar    1  UNL1        0.2012
      6 N          -9.8955  -20.6832   18.2286 N.ar    1  UNL1       -0.2091
      7 N         -10.3073  -18.9747   20.1421 N.pl3   1  UNL1       -0.3196
      8 H         -11.0933  -18.6144   19.6712 H       1  UNL1        0.1481
      9 C          -7.6844  -15.1087   25.9547 C.3     1  UNL1        0.0296
     10 C          -8.5077  -16.3378   26.2022 C.3     1  UNL1        0.0930
     11 C          -8.2795  -16.0085   27.6477 C.3     1  UNL1        0.0296
     12 C          -8.5639  -16.4102   24.7049 C.3     1  UNL1        0.0296
     13 C          -9.3742  -17.6153   24.3291 C.3     1  UNL1        0.0298
     14 C          -8.8580  -16.8370   23.1554 C.3     1  UNL1        0.0042
     15 C          -9.1691  -17.2901   21.7597 C.3     1  UNL1        0.0196
     16 C          -9.9963  -18.5216   21.5378 C.3     1  UNL1        0.0704
     17 C         -10.5125  -19.2999   22.7116 C.3     1  UNL1        0.0196
     18 C         -10.2015  -18.8467   24.1072 C.3     1  UNL1        0.0042
     19 C          -9.8189  -18.2877   25.5942 C.3     1  UNL1        0.1419
     20 O          -9.2834  -17.4982   26.7517 O.3     1  UNL1       -0.3585
     21 N          -5.8121  -21.5697   19.8990 N.pl3   1  UNL1       -0.2961
     22 H          -5.5284  -22.5024   20.0366 H       1  UNL1        0.1537
     23 C          -4.8833  -20.4442   20.2462 C.ar    1  UNL1        0.0773
     24 C          -3.8107  -20.0323   19.2818 C.ar    1  UNL1        0.0182
     25 C          -2.8819  -18.9068   19.6290 C.ar    1  UNL1        0.0198
     26 C          -3.0256  -18.1932   20.9405 C.ar    1  UNL1        0.1080
     27 C          -4.0982  -18.6051   21.9049 C.ar    1  UNL1        0.0492
     28 C          -5.0270  -19.7306   21.5577 C.ar    1  UNL1        0.1547
     29 F          -6.0996  -20.1425   22.5220 F       1  UNL1       -0.2028
     30 S          -2.0968  -17.0677   21.2877 S.O2    1  UNL1        0.0105
     31 C          -1.1680  -15.9422   21.6348 C.3     1  UNL1        0.1816
     32 O          -1.1373  -17.5343   20.2334 O.2     1  UNL1       -0.1686
     33 O          -3.0563  -16.6011   22.3420 O.2     1  UNL1       -0.1686
@<TRIPOS>BOND
     1     9    10    1
     2    10    11    1
     3    10    12    1
     4    13    12    1
     5    13    14    1
     6    14    15    1
     7    15    16    1
     8    16     7    1
     9     7     1    1
    10     1     2   ar
    11     2     3   ar
    12     3    21    1
    13    21    23    1
    14    23    24   ar
    15    24    25   ar
    16    25    26   ar
    17    26    30    1
    18    30    31    1
    19    30    32    2
    20    30    33    2
    21    26    27   ar
    22    27    28   ar
    23    28    29    1
    24     3     4   ar
    25     4     5   ar
    26     5     6   ar
    27    16    17    1
    28    17    18    1
    29    13    19    1
    30    19    20    1
    31    20    10    1
    32    18    13    1
    33     6     1   ar
    34    28    23   ar
    35     7     8    1
    36    21    22    1
@<TRIPOS>MOLECULE
*****
 33 36 0 0 0
SMALL
GASTEIGER

@<TRIPOS>ATOM
      1 C           7.6199   -5.2048   24.1741 C.ar    1  UNL1        0.1330
      2 C           6.8631   -4.9614   25.4461 C.ar    1  UNL1        0.0685
      3 C           6.6985   -6.0689   26.4444 C.ar    1  UNL1        0.1368
      4 N           7.2906   -7.4195   26.1707 N.ar    1  UNL1       -0.2088
      5 C           8.0473   -7.6629   24.8986 C.ar    1  UNL1        0.2012
      6 N           8.2120   -6.5555   23.9003 N.ar    1  UNL1       -0.2091
      7 N           7.7846   -4.0974   23.1758 N.pl3   1  UNL1       -0.3196
      8 H           8.6855   -3.7825   22.9341 H       1  UNL1        0.1481
      9 C           1.7996    0.1828   21.9630 C.3     1  UNL1        0.0296
     10 C           2.2168   -0.8086   20.9176 C.3     1  UNL1        0.0930
     11 C           1.0332   -0.2764   20.1653 C.3     1  UNL1        0.0296
     12 C           3.3132   -1.1335   21.8884 C.3     1  UNL1        0.0296
     13 C           4.1607   -2.2145   21.2858 C.3     1  UNL1        0.0298
     14 C           4.6175   -1.7660   22.6423 C.3     1  UNL1        0.0042
     15 C           5.8255   -2.3937   23.2723 C.3     1  UNL1        0.0196
     16 C           6.5766   -3.4698   22.5457 C.3     1  UNL1        0.0704
     17 C           6.1197   -3.9183   21.1893 C.3     1  UNL1        0.0196
     18 C           4.9118   -3.2907   20.5593 C.3     1  UNL1        0.0042
     19 C           3.5880   -2.5578   19.9425 C.3     1  UNL1        0.1419
     20 O           2.3867   -1.6889   19.7149 O.3     1  UNL1       -0.3585
     21 N           5.9417   -5.8255   27.7164 N.pl3   1  UNL1       -0.2961
     22 H           5.0298   -6.1812   27.8225 H       1  UNL1        0.1537
     23 C           6.5742   -5.0401   28.8269 C.ar    1  UNL1        0.0773
     24 C           7.3921   -5.7417   29.8704 C.ar    1  UNL1        0.0182
     25 C           8.0246   -4.9564   30.9809 C.ar    1  UNL1        0.0198
     26 C           7.8393   -3.4694   31.0479 C.ar    1  UNL1        0.1080
     27 C           7.0214   -2.7677   30.0043 C.ar    1  UNL1        0.0492
     28 C           6.3889   -3.5531   28.8939 C.ar    1  UNL1        0.1547
     29 F           5.5710   -2.8515   27.8504 F       1  UNL1       -0.2028
     30 S           8.4718   -2.6840   32.1583 S.O2    1  UNL1        0.0105
     31 C           9.1043   -1.8986   33.2687 C.3     1  UNL1        0.1816
     32 O           7.4076   -1.6356   32.0229 O.2     1  UNL1       -0.1686
     33 O           9.5360   -3.7324   32.2936 O.2     1  UNL1       -0.1686
@<TRIPOS>BOND
     1     9    10    1
     2    10    11    1
     3    10    12    1
     4    13    12    1
     5    13    14    1
     6    14    15    1
     7    15    16    1
     8    16     7    1
     9     7     1    1
    10     1     2   ar
    11     2     3   ar
    12     3    21    1
    13    21    23    1
    14    23    24   ar
    15    24    25   ar
    16    25    26   ar
    17    26    30    1
    18    30    31    1
    19    30    32    2
    20    30    33    2
    21    26    27   ar
    22    27    28   ar
    23    28    29    1
    24     3     4   ar
    25     4     5   ar
    26     5     6   ar
    27    16    17    1
    28    17    18    1
    29    13    19    1
    30    19    20    1
    31    20    10    1
    32    18    13    1
    33     6     1   ar
    34    28    23   ar
    35     7     8    1
    36    21    22    1
@<TRIPOS>MOLECULE
*****
 33 36 0 0 0
SMALL
GASTEIGER

@<TRIPOS>ATOM
      1 C           6.0855   -2.6434   19.3083 C.ar    1  UNL1        0.1330
      2 C           6.5129   -3.8289   20.1219 C.ar    1  UNL1        0.0685
      3 C           7.8008   -3.7866   20.8897 C.ar    1  UNL1        0.1368
      4 N           8.6613   -2.5588   20.8439 N.ar    1  UNL1       -0.2088
      5 C           8.2339   -1.3733   20.0303 C.ar    1  UNL1        0.2012
      6 N           6.9460   -1.4156   19.2625 N.ar    1  UNL1       -0.2091
      7 N           4.7976   -2.6857   18.5405 N.pl3   1  UNL1       -0.3196
      8 H           4.6659   -3.3616   17.8369 H       1  UNL1        0.1481
      9 C           0.2032    3.1780   18.1923 C.3     1  UNL1        0.0296
     10 C           0.0542    2.1946   19.3150 C.3     1  UNL1        0.0930
     11 C          -1.0672    3.0935   19.7443 C.3     1  UNL1        0.0296
     12 C           1.2068    1.5011   18.6510 C.3     1  UNL1        0.0296
     13 C           1.5357    0.2770   19.4531 C.3     1  UNL1        0.0298
     14 C           2.4114    0.4722   18.2510 C.3     1  UNL1        0.0042
     15 C           3.4987   -0.5153   17.9469 C.3     1  UNL1        0.0196
     16 C           3.7103   -1.6981   18.8448 C.3     1  UNL1        0.0704
     17 C           2.8346   -1.8933   20.0469 C.3     1  UNL1        0.0196
     18 C           1.7473   -0.9058   20.3510 C.3     1  UNL1        0.0042
     19 C           0.5864    0.2139   20.6129 C.3     1  UNL1        0.1419
     20 O          -0.3292    1.3989   20.5275 O.3     1  UNL1       -0.3585
     21 N           8.2283   -4.9721   21.7033 N.pl3   1  UNL1       -0.2961
     22 H           8.7313   -5.7045   21.2793 H       1  UNL1        0.1537
     23 C           7.8892   -5.0417   23.1628 C.ar    1  UNL1        0.0773
     24 C           7.3582   -3.8290   23.8681 C.ar    1  UNL1        0.0182
     25 C           7.0191   -3.8985   25.3276 C.ar    1  UNL1        0.0198
     26 C           7.2110   -5.1808   26.0819 C.ar    1  UNL1        0.1080
     27 C           7.7420   -6.3935   25.3766 C.ar    1  UNL1        0.0492
     28 C           8.0811   -6.3239   23.9171 C.ar    1  UNL1        0.1547
     29 F           8.6121   -7.5367   23.2118 F       1  UNL1       -0.2028
     30 S           6.8720   -5.2504   27.5414 S.O2    1  UNL1        0.0105
     31 C           6.5329   -5.3200   29.0009 C.3     1  UNL1        0.1816
     32 O           6.2854   -3.8717   27.4709 O.2     1  UNL1       -0.1686
     33 O           7.4585   -6.6291   27.6119 O.2     1  UNL1       -0.1686
@<TRIPOS>BOND
     1     9    10    1
     2    10    11    1
     3    10    12    1
     4    13    12    1
     5    13    14    1
     6    14    15    1
     7    15    16    1
     8    16     7    1
     9     7     1    1
    10     1     2   ar
    11     2     3   ar
    12     3    21    1
    13    21    23    1
    14    23    24   ar
    15    24    25   ar
    16    25    26   ar
    17    26    30    1
    18    30    31    1
    19    30    32    2
    20    30    33    2
    21    26    27   ar
    22    27    28   ar
    23    28    29    1
    24     3     4   ar
    25     4     5   ar
    26     5     6   ar
    27    16    17    1
    28    17    18    1
    29    13    19    1
    30    19    20    1
    31    20    10    1
    32    18    13    1
    33     6     1   ar
    34    28    23   ar
    35     7     8    1
    36    21    22    1
