@<TRIPOS>MOLECULE
*****
 17 17 0 0 0
SMALL
GASTEIGER

@<TRIPOS>ATOM
      1 C          -9.1809  -16.6562   24.5838 C.ar    1  UNL1       -0.0210
      2 C          -9.6729  -17.8751   25.3064 C.ar    1  UNL1       -0.0045
      3 C         -10.2354  -19.0300   24.5321 C.ar    1  UNL1       -0.0034
      4 C         -10.3059  -18.9662   23.0351 C.ar    1  UNL1       -0.0084
      5 C         -10.8684  -20.1211   22.2608 C.3     1  UNL1        0.0323
      6 C          -9.8138  -17.7473   22.3125 C.ar    1  UNL1        0.0451
      7 C          -9.2513  -16.5923   23.0868 C.ar    1  UNL1        0.0101
      8 N          -9.8843  -17.6834   20.8155 N.pl3   1  UNL1       -0.2933
      9 H          -9.1125  -17.9665   20.2738 H       1  UNL1        0.1538
     10 C         -11.1306  -17.1881   20.1438 C.2     1  UNL1        0.2056
     11 N         -11.1641  -15.8131   19.5450 N.2     1  UNL1       -0.0679
     12 O         -12.4105  -15.3178   18.8733 O.2     1  UNL1       -0.4077
     13 H         -12.4314  -14.4589   18.4992 H       1  UNL1        0.3278
     14 C          -8.6183  -15.5012   25.3581 C.3     1  UNL1        0.0264
     15 C          -8.2280  -15.6808   26.7952 C.3     1  UNL1        0.0047
     16 C          -5.7333  -15.3247   26.1631 C.3     1  UNL1        0.0000
     17 C          -6.7886  -15.5667   27.2014 C.3     1  UNL1        0.0003
@<TRIPOS>BOND
     1    16    17    1
     2    17    15    1
     3    15    14    1
     4    14     1    1
     5     1     2   ar
     6     2     3   ar
     7     3     4   ar
     8     4     5    1
     9     4     6   ar
    10     6     8    1
    11     8    10    1
    12    10    11    2
    13    11    12    1
    14     6     7   ar
    15     7     1   ar
    16     8     9    1
    17    12    13    1
@<TRIPOS>MOLECULE
*****
 17 17 0 0 0
SMALL
GASTEIGER

@<TRIPOS>ATOM
      1 C          -9.4861  -19.4523   22.8819 C.ar    1  UNL1       -0.0210
      2 C         -10.0505  -19.5541   24.2679 C.ar    1  UNL1       -0.0045
      3 C         -11.4243  -19.0269   24.5589 C.ar    1  UNL1       -0.0034
      4 C         -12.2338  -18.3980   23.4638 C.ar    1  UNL1       -0.0084
      5 C         -13.6076  -17.8708   23.7548 C.3     1  UNL1        0.0323
      6 C         -11.6693  -18.2961   22.0778 C.ar    1  UNL1        0.0451
      7 C         -10.2955  -18.8233   21.7869 C.ar    1  UNL1        0.0101
      8 N         -12.4788  -17.6671   20.9827 N.pl3   1  UNL1       -0.2933
      9 H         -13.2631  -18.1374   20.6181 H       1  UNL1        0.1538
     10 C         -12.0932  -16.3217   20.4432 C.2     1  UNL1        0.2056
     11 N         -11.0250  -16.2117   19.3958 N.2     1  UNL1       -0.0679
     12 O         -10.6394  -14.8663   18.8563 O.2     1  UNL1       -0.4077
     13 H          -9.9721  -14.7975   18.2021 H       1  UNL1        0.3278
     14 C          -8.1122  -19.9794   22.5910 C.3     1  UNL1        0.0264
     15 C          -7.1843  -19.2049   21.7027 C.3     1  UNL1        0.0047
     16 C          -5.8354  -20.9492   20.3286 C.3     1  UNL1        0.0000
     17 C          -6.7648  -19.7728   20.3793 C.3     1  UNL1        0.0003
@<TRIPOS>BOND
     1    16    17    1
     2    17    15    1
     3    15    14    1
     4    14     1    1
     5     1     2   ar
     6     2     3   ar
     7     3     4   ar
     8     4     5    1
     9     4     6   ar
    10     6     8    1
    11     8    10    1
    12    10    11    2
    13    11    12    1
    14     6     7   ar
    15     7     1   ar
    16     8     9    1
    17    12    13    1
@<TRIPOS>MOLECULE
*****
 17 17 0 0 0
SMALL
GASTEIGER

@<TRIPOS>ATOM
      1 C          -9.2722  -16.5238   24.1101 C.ar    1  UNL1       -0.0210
      2 C         -10.6458  -16.3993   23.5204 C.ar    1  UNL1       -0.0045
      3 C         -11.1517  -17.4440   22.5704 C.ar    1  UNL1       -0.0034
      4 C         -10.2840  -18.6133   22.2100 C.ar    1  UNL1       -0.0084
      5 C         -10.7899  -19.6581   21.2600 C.3     1  UNL1        0.0323
      6 C          -8.9105  -18.7379   22.7997 C.ar    1  UNL1        0.0451
      7 C          -8.4046  -17.6931   23.7498 C.ar    1  UNL1        0.0101
      8 N          -8.0428  -19.9072   22.4394 N.pl3   1  UNL1       -0.2933
      9 H          -8.2006  -20.7845   22.8573 H       1  UNL1        0.1538
     10 C          -6.9346  -19.7398   21.4424 C.2     1  UNL1        0.2056
     11 N          -6.8845  -18.5170   20.5750 N.2     1  UNL1       -0.0679
     12 O          -5.7764  -18.3496   19.5780 O.2     1  UNL1       -0.4077
     13 H          -5.7451  -17.5858   19.0362 H       1  UNL1        0.3278
     14 C          -8.7663  -15.4791   25.0601 C.3     1  UNL1        0.0264
     15 C          -8.3651  -15.8635   26.4534 C.3     1  UNL1        0.0047
     16 C          -5.8514  -15.3627   26.0283 C.3     1  UNL1        0.0000
     17 C          -7.0091  -15.4886   26.9738 C.3     1  UNL1        0.0003
@<TRIPOS>BOND
     1    16    17    1
     2    17    15    1
     3    15    14    1
     4    14     1    1
     5     1     2   ar
     6     2     3   ar
     7     3     4   ar
     8     4     5    1
     9     4     6   ar
    10     6     8    1
    11     8    10    1
    12    10    11    2
    13    11    12    1
    14     6     7   ar
    15     7     1   ar
    16     8     9    1
    17    12    13    1
@<TRIPOS>MOLECULE
*****
 17 17 0 0 0
SMALL
GASTEIGER

@<TRIPOS>ATOM
      1 C          -5.4288  -16.8361   23.5920 C.ar    1  UNL1       -0.0210
      2 C          -6.7947  -17.1714   23.0706 C.ar    1  UNL1       -0.0045
      3 C          -6.9852  -18.3607   22.1766 C.ar    1  UNL1       -0.0034
      4 C          -5.8097  -19.2148   21.8040 C.ar    1  UNL1       -0.0084
      5 C          -6.0002  -20.4041   20.9100 C.3     1  UNL1        0.0323
      6 C          -4.4439  -18.8795   22.3253 C.ar    1  UNL1        0.0451
      7 C          -4.2534  -17.6902   23.2193 C.ar    1  UNL1        0.0101
      8 N          -3.2683  -19.7336   21.9527 N.pl3   1  UNL1       -0.2933
      9 H          -3.0285  -20.5104   22.5081 H       1  UNL1        0.1538
     10 C          -2.4583  -19.4043   20.7340 C.2     1  UNL1        0.2056
     11 N          -1.0402  -18.9374   20.8797 N.2     1  UNL1       -0.0679
     12 O          -0.2301  -18.6080   19.6610 O.2     1  UNL1       -0.4077
     13 H           0.6557  -18.3164   19.7520 H       1  UNL1        0.3278
     14 C          -5.2383  -15.6468   24.4859 C.3     1  UNL1        0.0264
     15 C          -6.3844  -15.1344   25.3069 C.3     1  UNL1        0.0047
     16 C          -7.8784  -15.6175   27.3768 C.3     1  UNL1        0.0000
     17 C          -6.5207  -15.5450   26.7431 C.3     1  UNL1        0.0003
@<TRIPOS>BOND
     1    16    17    1
     2    17    15    1
     3    15    14    1
     4    14     1    1
     5     1     2   ar
     6     2     3   ar
     7     3     4   ar
     8     4     5    1
     9     4     6   ar
    10     6     8    1
    11     8    10    1
    12    10    11    2
    13    11    12    1
    14     6     7   ar
    15     7     1   ar
    16     8     9    1
    17    12    13    1
@<TRIPOS>MOLECULE
*****
 17 17 0 0 0
SMALL
GASTEIGER

@<TRIPOS>ATOM
      1 C          -7.6298  -19.3792   20.2146 C.ar    1  UNL1       -0.0210
      2 C          -7.8712  -18.7866   21.5713 C.ar    1  UNL1       -0.0045
      3 C          -6.7138  -18.5014   22.4818 C.ar    1  UNL1       -0.0034
      4 C          -5.3151  -18.8089   22.0358 C.ar    1  UNL1       -0.0084
      5 C          -4.1577  -18.5237   22.9464 C.3     1  UNL1        0.0323
      6 C          -5.0738  -19.4015   20.6792 C.ar    1  UNL1        0.0451
      7 C          -6.2311  -19.6867   19.7686 C.ar    1  UNL1        0.0101
      8 N          -3.6750  -19.7090   20.2330 N.pl3   1  UNL1       -0.2933
      9 H          -3.2192  -20.5166   20.5636 H       1  UNL1        0.1538
     10 C          -2.9706  -18.7860   19.2834 C.2     1  UNL1        0.2056
     11 N          -1.4783  -18.6461   19.3415 N.2     1  UNL1       -0.0679
     12 O          -0.7739  -17.7231   18.3918 O.2     1  UNL1       -0.4077
     13 H           0.1583  -17.6358   18.4281 H       1  UNL1        0.3278
     14 C          -8.7872  -19.6644   19.3041 C.3     1  UNL1        0.0264
     15 C         -10.1909  -19.5783   19.8257 C.3     1  UNL1        0.0047
     16 C         -11.5830  -17.6477   20.8674 C.3     1  UNL1        0.0000
     17 C         -10.9736  -18.3086   19.6666 C.3     1  UNL1        0.0003
@<TRIPOS>BOND
     1    16    17    1
     2    17    15    1
     3    15    14    1
     4    14     1    1
     5     1     2   ar
     6     2     3   ar
     7     3     4   ar
     8     4     5    1
     9     4     6   ar
    10     6     8    1
    11     8    10    1
    12    10    11    2
    13    11    12    1
    14     6     7   ar
    15     7     1   ar
    16     8     9    1
    17    12    13    1
@<TRIPOS>MOLECULE
*****
 17 17 0 0 0
SMALL
GASTEIGER

@<TRIPOS>ATOM
      1 C          -7.7459  -19.2017   22.2563 C.ar    1  UNL1       -0.0210
      2 C          -9.1749  -19.6481   22.1633 C.ar    1  UNL1       -0.0045
      3 C         -10.2843  -18.6565   22.3528 C.ar    1  UNL1       -0.0034
      4 C          -9.9647  -17.2184   22.6353 C.ar    1  UNL1       -0.0084
      5 C         -11.0741  -16.2268   22.8248 C.3     1  UNL1        0.0323
      6 C          -8.5357  -16.7720   22.7283 C.ar    1  UNL1        0.0451
      7 C          -7.4263  -17.7636   22.5388 C.ar    1  UNL1        0.0101
      8 N          -8.2161  -15.3339   23.0108 N.pl3   1  UNL1       -0.2933
      9 H          -8.3735  -14.6498   22.3205 H       1  UNL1        0.1538
     10 C          -7.6566  -14.9380   24.3450 C.2     1  UNL1        0.2056
     11 N          -6.1718  -14.8466   24.5385 N.2     1  UNL1       -0.0679
     12 O          -5.6123  -14.4508   25.8727 O.2     1  UNL1       -0.4077
     13 H          -4.6849  -14.3937   25.9935 H       1  UNL1        0.3278
     14 C          -6.6365  -20.1933   22.0668 C.3     1  UNL1        0.0264
     15 C          -6.1330  -20.5010   20.6878 C.3     1  UNL1        0.0047
     16 C          -3.5653  -20.2426   20.3876 C.3     1  UNL1        0.0000
     17 C          -4.9591  -19.7499   20.1331 C.3     1  UNL1        0.0003
@<TRIPOS>BOND
     1    16    17    1
     2    17    15    1
     3    15    14    1
     4    14     1    1
     5     1     2   ar
     6     2     3   ar
     7     3     4   ar
     8     4     5    1
     9     4     6   ar
    10     6     8    1
    11     8    10    1
    12    10    11    2
    13    11    12    1
    14     6     7   ar
    15     7     1   ar
    16     8     9    1
    17    12    13    1
@<TRIPOS>MOLECULE
*****
 17 17 0 0 0
SMALL
GASTEIGER

@<TRIPOS>ATOM
      1 C         -11.8367   -3.9244   19.0517 C.ar    1  UNL1       -0.0210
      2 C         -10.3459   -3.8943   18.8892 C.ar    1  UNL1       -0.0045
      3 C          -9.5795   -5.1772   18.7596 C.ar    1  UNL1       -0.0034
      4 C         -10.3039   -6.4902   18.7924 C.ar    1  UNL1       -0.0084
      5 C          -9.5375   -7.7731   18.6628 C.3     1  UNL1        0.0323
      6 C         -11.7948   -6.5203   18.9549 C.ar    1  UNL1        0.0451
      7 C         -12.5612   -5.2374   19.0845 C.ar    1  UNL1        0.0101
      8 N         -12.5193   -7.8334   18.9877 N.pl3   1  UNL1       -0.2933
      9 H         -12.0651   -8.6379   19.3279 H       1  UNL1        0.1538
     10 C         -13.9359   -7.9207   18.5023 C.2     1  UNL1        0.2056
     11 N         -14.6640   -9.2314   18.5453 N.2     1  UNL1       -0.0679
     12 O         -16.0806   -9.3187   18.0600 O.2     1  UNL1       -0.4077
     13 H         -16.5354  -10.1375   18.0868 H       1  UNL1        0.3278
     14 C         -12.6031   -2.6415   19.1813 C.3     1  UNL1        0.0264
     15 C         -11.9015   -1.3276   19.0045 C.3     1  UNL1        0.0047
     16 C         -10.5141   -0.5847   16.9372 C.3     1  UNL1        0.0000
     17 C         -11.8309   -0.6916   17.6478 C.3     1  UNL1        0.0003
@<TRIPOS>BOND
     1    16    17    1
     2    17    15    1
     3    15    14    1
     4    14     1    1
     5     1     2   ar
     6     2     3   ar
     7     3     4   ar
     8     4     5    1
     9     4     6   ar
    10     6     8    1
    11     8    10    1
    12    10    11    2
    13    11    12    1
    14     6     7   ar
    15     7     1   ar
    16     8     9    1
    17    12    13    1
@<TRIPOS>MOLECULE
*****
 17 17 0 0 0
SMALL
GASTEIGER

@<TRIPOS>ATOM
      1 C          -4.8677  -18.4987   22.5059 C.ar    1  UNL1       -0.0210
      2 C          -4.1536  -17.3840   23.2111 C.ar    1  UNL1       -0.0045
      3 C          -4.9368  -16.2621   23.8260 C.ar    1  UNL1       -0.0034
      4 C          -6.4340  -16.2550   23.7357 C.ar    1  UNL1       -0.0084
      5 C          -7.2171  -15.1331   24.3506 C.3     1  UNL1        0.0323
      6 C          -7.1481  -17.3697   23.0305 C.ar    1  UNL1        0.0451
      7 C          -6.3650  -18.4916   22.4156 C.ar    1  UNL1        0.0101
      8 N          -8.6454  -17.3626   22.9401 N.pl3   1  UNL1       -0.2933
      9 H          -9.0893  -16.9659   22.1560 H       1  UNL1        0.1538
     10 C          -9.4663  -17.9599   24.0443 C.2     1  UNL1        0.2056
     11 N          -9.4160  -19.4369   24.3015 N.2     1  UNL1       -0.0679
     12 O         -10.2369  -20.0342   25.4057 O.2     1  UNL1       -0.4077
     13 H         -10.2055  -20.9568   25.5664 H       1  UNL1        0.3278
     14 C          -4.0846  -19.6206   21.8910 C.3     1  UNL1        0.0264
     15 C          -2.5958  -19.5060   21.7485 C.3     1  UNL1        0.0047
     16 C          -2.8909  -18.5733   19.3417 C.3     1  UNL1        0.0000
     17 C          -2.0048  -18.9158   20.5026 C.3     1  UNL1        0.0003
@<TRIPOS>BOND
     1    16    17    1
     2    17    15    1
     3    15    14    1
     4    14     1    1
     5     1     2   ar
     6     2     3   ar
     7     3     4   ar
     8     4     5    1
     9     4     6   ar
    10     6     8    1
    11     8    10    1
    12    10    11    2
    13    11    12    1
    14     6     7   ar
    15     7     1   ar
    16     8     9    1
    17    12    13    1
@<TRIPOS>MOLECULE
*****
 17 17 0 0 0
SMALL
GASTEIGER

@<TRIPOS>ATOM
      1 C         -10.2389  -18.7806   22.8336 C.ar    1  UNL1       -0.0210
      2 C         -11.1044  -19.5789   21.9043 C.ar    1  UNL1       -0.0045
      3 C         -10.6025  -19.9419   20.5382 C.ar    1  UNL1       -0.0034
      4 C          -9.2352  -19.5066   20.1014 C.ar    1  UNL1       -0.0084
      5 C          -8.7333  -19.8697   18.7352 C.3     1  UNL1        0.0323
      6 C          -8.3697  -18.7083   21.0306 C.ar    1  UNL1        0.0451
      7 C          -8.8716  -18.3453   22.3968 C.ar    1  UNL1        0.0101
      8 N          -7.0023  -18.2730   20.5938 N.pl3   1  UNL1       -0.2933
      9 H          -6.8889  -17.4292   20.0994 H       1  UNL1        0.1538
     10 C          -5.8078  -19.1232   20.9103 C.2     1  UNL1        0.2056
     11 N          -5.2633  -20.0657   19.8780 N.2     1  UNL1       -0.0679
     12 O          -4.0688  -20.9159   20.1945 O.2     1  UNL1       -0.4077
     13 H          -3.7287  -21.5046   19.5497 H       1  UNL1        0.3278
     14 C         -10.7408  -18.4175   24.1998 C.3     1  UNL1        0.0264
     15 C         -12.1224  -18.8202   24.6227 C.3     1  UNL1        0.0047
     16 C         -14.6800  -18.3642   24.6540 C.3     1  UNL1        0.0000
     17 C         -13.3130  -18.0620   24.1152 C.3     1  UNL1        0.0003
@<TRIPOS>BOND
     1    16    17    1
     2    17    15    1
     3    15    14    1
     4    14     1    1
     5     1     2   ar
     6     2     3   ar
     7     3     4   ar
     8     4     5    1
     9     4     6   ar
    10     6     8    1
    11     8    10    1
    12    10    11    2
    13    11    12    1
    14     6     7   ar
    15     7     1   ar
    16     8     9    1
    17    12    13    1
