@<TRIPOS>MOLECULE
*****
 22 24 0 0 0
SMALL
GASTEIGER

@<TRIPOS>ATOM
      1 C          -7.4700  -18.3350   22.1120 C.3     1  UNL1        0.1038
      2 C          -8.0657  -19.6093   21.5912 C.3     1  UNL1        0.2106
      3 O          -9.5459  -19.7101   21.3707 O.3     1  UNL1       -0.4755
      4 C         -10.4306  -18.5365   21.6710 C.ar    1  UNL1        0.1379
      5 C         -11.9109  -18.6373   21.4505 C.ar    1  UNL1        0.0367
      6 C         -12.7955  -17.4638   21.7508 C.ar    1  UNL1        0.0031
      7 C         -12.1998  -16.1894   22.2716 C.ar    1  UNL1       -0.0000
      8 C         -10.7196  -16.0886   22.4921 C.ar    1  UNL1        0.0022
      9 C          -9.8350  -17.2622   22.1918 C.ar    1  UNL1        0.0513
     10 C          -8.3546  -17.1614   22.4123 C.3     1  UNL1        0.1959
     11 C          -5.9897  -18.2342   22.3325 C.3     1  UNL1        0.0763
     12 C          -3.7881  -19.4318   21.6479 C.3     1  UNL1        0.0859
     13 N          -5.0397  -18.6974   21.2681 N.3     1  UNL1       -0.2961
     14 H          -5.5673  -19.3146   20.6508 H       1  UNL1        0.1233
     15 O          -7.7590  -15.8871   22.9331 O.3     1  UNL1       -0.4748
     16 C          -7.4539  -15.7443   24.3948 C.ar    1  UNL1        0.1348
     17 C          -8.5495  -15.8957   25.4080 C.ar    1  UNL1        0.0366
     18 C          -8.2444  -15.7529   26.8696 C.ar    1  UNL1        0.0031
     19 C          -6.8436  -15.4586   27.3181 C.ar    1  UNL1       -0.0001
     20 C          -5.7479  -15.3072   26.3049 C.ar    1  UNL1       -0.0013
     21 C          -6.0531  -15.4500   24.8433 C.ar    1  UNL1        0.0121
     22 C          -4.9574  -15.2985   23.8300 C.3     1  UNL1        0.0342
@<TRIPOS>BOND
     1    12    13    1
     2    13    11    1
     3     1    11    1
     4     1     2    1
     5     2     3    1
     6     3     4    1
     7     4     5   ar
     8     5     6   ar
     9     6     7   ar
    10     7     8   ar
    11     8     9   ar
    12     9    10    1
    13    10    15    1
    14    15    16    1
    15    16    17   ar
    16    17    18   ar
    17    18    19   ar
    18    19    20   ar
    19    20    21   ar
    20    21    22    1
    21    10     1    1
    22    21    16   ar
    23     9     4   ar
    24    13    14    1
@<TRIPOS>MOLECULE
*****
 22 24 0 0 0
SMALL
GASTEIGER

@<TRIPOS>ATOM
      1 C          -6.9156  -16.1971   23.5011 C.3     1  UNL1        0.1038
      2 C          -5.5011  -16.5689   23.8341 C.3     1  UNL1        0.2106
      3 O          -4.8596  -17.7502   23.1686 O.3     1  UNL1       -0.4755
      4 C          -5.6326  -18.5598   22.1700 C.ar    1  UNL1        0.1379
      5 C          -4.9911  -19.7411   21.5045 C.ar    1  UNL1        0.0367
      6 C          -5.7641  -20.5506   20.5060 C.ar    1  UNL1        0.0031
      7 C          -7.1786  -20.1789   20.1730 C.ar    1  UNL1       -0.0000
      8 C          -7.8201  -18.9976   20.8385 C.ar    1  UNL1        0.0022
      9 C          -7.0471  -18.1880   21.8370 C.ar    1  UNL1        0.0513
     10 C          -7.6886  -17.0067   22.5026 C.3     1  UNL1        0.1959
     11 C          -7.5571  -15.0157   24.1667 C.3     1  UNL1        0.0763
     12 C          -8.1441  -15.9539   26.5172 C.3     1  UNL1        0.0859
     13 N          -7.5263  -14.8886   25.6609 N.3     1  UNL1       -0.2961
     14 H          -6.5446  -14.8263   25.9309 H       1  UNL1        0.1233
     15 O          -9.1032  -16.6349   22.1696 O.3     1  UNL1       -0.4748
     16 C         -10.2417  -17.2996   22.8852 C.ar    1  UNL1        0.1348
     17 C          -9.9711  -18.1849   24.0655 C.ar    1  UNL1        0.0366
     18 C         -11.1095  -18.8496   24.7811 C.ar    1  UNL1        0.0031
     19 C         -12.5186  -18.6290   24.3164 C.ar    1  UNL1       -0.0001
     20 C         -12.7892  -17.7438   23.1361 C.ar    1  UNL1       -0.0013
     21 C         -11.6507  -17.0791   22.4205 C.ar    1  UNL1        0.0121
     22 C         -11.9213  -16.1938   21.2402 C.3     1  UNL1        0.0342
@<TRIPOS>BOND
     1    12    13    1
     2    13    11    1
     3     1    11    1
     4     1     2    1
     5     2     3    1
     6     3     4    1
     7     4     5   ar
     8     5     6   ar
     9     6     7   ar
    10     7     8   ar
    11     8     9   ar
    12     9    10    1
    13    10    15    1
    14    15    16    1
    15    16    17   ar
    16    17    18   ar
    17    18    19   ar
    18    19    20   ar
    19    20    21   ar
    20    21    22    1
    21    10     1    1
    22    21    16   ar
    23     9     4   ar
    24    13    14    1
@<TRIPOS>MOLECULE
*****
 22 24 0 0 0
SMALL
GASTEIGER

@<TRIPOS>ATOM
      1 C          -7.1755  -18.7422   21.2584 C.3     1  UNL1        0.1038
      2 C          -5.7451  -19.0395   21.5985 C.3     1  UNL1        0.2106
      3 O          -5.0270  -18.2039   22.6163 O.3     1  UNL1       -0.4755
      4 C          -5.7392  -17.0711   23.2942 C.ar    1  UNL1        0.1379
      5 C          -5.0211  -16.2355   24.3120 C.ar    1  UNL1        0.0367
      6 C          -5.7333  -15.1027   24.9898 C.ar    1  UNL1        0.0031
      7 C          -7.1637  -14.8055   24.6498 C.ar    1  UNL1       -0.0000
      8 C          -7.8818  -15.6410   23.6319 C.ar    1  UNL1        0.0022
      9 C          -7.1696  -16.7738   22.9541 C.ar    1  UNL1        0.0513
     10 C          -7.8878  -17.6094   21.9362 C.3     1  UNL1        0.1959
     11 C          -7.8937  -19.5779   20.2405 C.3     1  UNL1        0.0763
     12 C         -10.3104  -19.5686   19.2870 C.3     1  UNL1        0.0859
     13 N          -8.9429  -18.9575   19.3663 N.3     1  UNL1       -0.2961
     14 H          -9.0672  -17.9985   19.6908 H       1  UNL1        0.1233
     15 O          -9.3181  -17.3122   21.5961 O.3     1  UNL1       -0.4748
     16 C         -10.4155  -17.7512   22.5198 C.ar    1  UNL1        0.1348
     17 C         -10.0987  -18.6188   23.7018 C.ar    1  UNL1        0.0366
     18 C         -11.1960  -19.0578   24.6254 C.ar    1  UNL1        0.0031
     19 C         -12.6101  -18.6293   24.3671 C.ar    1  UNL1       -0.0001
     20 C         -12.9269  -17.7617   23.1852 C.ar    1  UNL1       -0.0013
     21 C         -11.8296  -17.3227   22.2616 C.ar    1  UNL1        0.0121
     22 C         -12.1463  -16.4551   21.0796 C.3     1  UNL1        0.0342
@<TRIPOS>BOND
     1    12    13    1
     2    13    11    1
     3     1    11    1
     4     1     2    1
     5     2     3    1
     6     3     4    1
     7     4     5   ar
     8     5     6   ar
     9     6     7   ar
    10     7     8   ar
    11     8     9   ar
    12     9    10    1
    13    10    15    1
    14    15    16    1
    15    16    17   ar
    16    17    18   ar
    17    18    19   ar
    18    19    20   ar
    19    20    21   ar
    20    21    22    1
    21    10     1    1
    22    21    16   ar
    23     9     4   ar
    24    13    14    1
@<TRIPOS>MOLECULE
*****
 22 24 0 0 0
SMALL
GASTEIGER

@<TRIPOS>ATOM
      1 C          -6.8666  -16.3967   23.8521 C.3     1  UNL1        0.1038
      2 C          -5.4026  -16.0811   23.7696 C.3     1  UNL1        0.2106
      3 O          -4.4911  -16.9558   22.9610 O.3     1  UNL1       -0.4755
      4 C          -5.0437  -18.1463   22.2347 C.ar    1  UNL1        0.1379
      5 C          -4.1323  -19.0211   21.4261 C.ar    1  UNL1        0.0367
      6 C          -4.6849  -20.2116   20.6999 C.ar    1  UNL1        0.0031
      7 C          -6.1490  -20.5272   20.7823 C.ar    1  UNL1       -0.0000
      8 C          -7.0604  -19.6525   21.5910 C.ar    1  UNL1        0.0022
      9 C          -6.5078  -18.4620   22.3172 C.ar    1  UNL1        0.0513
     10 C          -7.4193  -17.5872   23.1259 C.3     1  UNL1        0.1959
     11 C          -7.7781  -15.5219   24.6608 C.3     1  UNL1        0.0763
     12 C          -8.2156  -15.4008   27.2189 C.3     1  UNL1        0.0859
     13 N          -7.3637  -15.0695   26.0296 N.3     1  UNL1       -0.2961
     14 H          -6.4427  -15.4709   26.2061 H       1  UNL1        0.1233
     15 O          -8.8834  -17.9029   23.2084 O.3     1  UNL1       -0.4748
     16 C          -9.8027  -17.4934   22.0961 C.ar    1  UNL1        0.1348
     17 C          -9.7964  -16.0776   21.6007 C.ar    1  UNL1        0.0366
     18 C         -10.7157  -15.6682   20.4884 C.ar    1  UNL1        0.0031
     19 C         -11.6414  -16.6745   19.8716 C.ar    1  UNL1       -0.0001
     20 C         -11.6477  -18.0903   20.3670 C.ar    1  UNL1       -0.0013
     21 C         -10.7283  -18.4997   21.4793 C.ar    1  UNL1        0.0121
     22 C         -10.7346  -19.9156   21.9748 C.3     1  UNL1        0.0342
@<TRIPOS>BOND
     1    12    13    1
     2    13    11    1
     3     1    11    1
     4     1     2    1
     5     2     3    1
     6     3     4    1
     7     4     5   ar
     8     5     6   ar
     9     6     7   ar
    10     7     8   ar
    11     8     9   ar
    12     9    10    1
    13    10    15    1
    14    15    16    1
    15    16    17   ar
    16    17    18   ar
    17    18    19   ar
    18    19    20   ar
    19    20    21   ar
    20    21    22    1
    21    10     1    1
    22    21    16   ar
    23     9     4   ar
    24    13    14    1
@<TRIPOS>MOLECULE
*****
 22 24 0 0 0
SMALL
GASTEIGER

@<TRIPOS>ATOM
      1 C          -9.3682  -17.5066   21.7612 C.3     1  UNL1        0.1038
      2 C          -9.7377  -18.7960   21.0898 C.3     1  UNL1        0.2106
      3 O          -8.6889  -19.8386   20.8392 O.3     1  UNL1       -0.4755
      4 C          -7.2704  -19.5918   21.2600 C.ar    1  UNL1        0.1379
      5 C          -6.2215  -20.6344   21.0095 C.ar    1  UNL1        0.0367
      6 C          -4.8031  -20.3876   21.4303 C.ar    1  UNL1        0.0031
      7 C          -4.4335  -19.0982   22.1017 C.ar    1  UNL1       -0.0000
      8 C          -5.4824  -18.0556   22.3522 C.ar    1  UNL1        0.0022
      9 C          -6.9008  -18.3024   21.9314 C.ar    1  UNL1        0.0513
     10 C          -7.9498  -17.2597   22.1820 C.3     1  UNL1        0.1959
     11 C         -10.4171  -16.4639   22.0117 C.3     1  UNL1        0.0763
     12 C         -11.4616  -15.8306   19.7187 C.3     1  UNL1        0.0859
     13 N         -10.7195  -15.4367   20.9613 N.3     1  UNL1       -0.2961
     14 H         -11.2692  -14.7062   21.4135 H       1  UNL1        0.1233
     15 O          -7.5802  -15.9703   22.8534 O.3     1  UNL1       -0.4748
     16 C          -7.4135  -15.9214   24.3433 C.ar    1  UNL1        0.1348
     17 C          -8.5662  -16.2670   25.2387 C.ar    1  UNL1        0.0366
     18 C          -8.3994  -16.2181   26.7286 C.ar    1  UNL1        0.0031
     19 C          -7.0799  -15.8236   27.3231 C.ar    1  UNL1       -0.0001
     20 C          -5.9272  -15.4780   26.4276 C.ar    1  UNL1       -0.0013
     21 C          -6.0940  -15.5269   24.9378 C.ar    1  UNL1        0.0121
     22 C          -4.9413  -15.1813   24.0423 C.3     1  UNL1        0.0342
@<TRIPOS>BOND
     1    12    13    1
     2    13    11    1
     3     1    11    1
     4     1     2    1
     5     2     3    1
     6     3     4    1
     7     4     5   ar
     8     5     6   ar
     9     6     7   ar
    10     7     8   ar
    11     8     9   ar
    12     9    10    1
    13    10    15    1
    14    15    16    1
    15    16    17   ar
    16    17    18   ar
    17    18    19   ar
    18    19    20   ar
    19    20    21   ar
    20    21    22    1
    21    10     1    1
    22    21    16   ar
    23     9     4   ar
    24    13    14    1
@<TRIPOS>MOLECULE
*****
 22 24 0 0 0
SMALL
GASTEIGER

@<TRIPOS>ATOM
      1 C          -7.4467  -18.7537   22.0719 C.3     1  UNL1        0.1038
      2 C          -6.9995  -20.1186   21.6394 C.3     1  UNL1        0.2106
      3 O          -5.5364  -20.4431   21.5753 O.3     1  UNL1       -0.4755
      4 C          -4.5205  -19.4027   21.9437 C.ar    1  UNL1        0.1379
      5 C          -3.0575  -19.7272   21.8795 C.ar    1  UNL1        0.0367
      6 C          -2.0417  -18.6869   22.2479 C.ar    1  UNL1        0.0031
      7 C          -2.4889  -17.3220   22.6804 C.ar    1  UNL1       -0.0000
      8 C          -3.9519  -16.9975   22.7446 C.ar    1  UNL1        0.0022
      9 C          -4.9677  -18.0378   22.3762 C.ar    1  UNL1        0.0513
     10 C          -6.4309  -17.7133   22.4403 C.3     1  UNL1        0.1959
     11 C          -8.9098  -18.4292   22.1360 C.3     1  UNL1        0.0763
     12 C         -10.7226  -17.9749   20.3313 C.3     1  UNL1        0.0859
     13 N          -9.5227  -17.5231   21.1097 N.3     1  UNL1       -0.2961
     14 H          -9.7919  -16.6675   21.5955 H       1  UNL1        0.1233
     15 O          -6.8781  -16.3484   22.8728 O.3     1  UNL1       -0.4748
     16 C          -6.9180  -15.9994   24.3312 C.ar    1  UNL1        0.1348
     17 C          -5.6416  -15.7444   25.0765 C.ar    1  UNL1        0.0366
     18 C          -5.6815  -15.3953   26.5347 C.ar    1  UNL1        0.0031
     19 C          -6.9979  -15.3014   27.2477 C.ar    1  UNL1       -0.0001
     20 C          -8.2744  -15.5564   26.5023 C.ar    1  UNL1       -0.0013
     21 C          -8.2344  -15.9054   25.0441 C.ar    1  UNL1        0.0121
     22 C          -9.5109  -16.1605   24.2986 C.3     1  UNL1        0.0342
@<TRIPOS>BOND
     1    12    13    1
     2    13    11    1
     3     1    11    1
     4     1     2    1
     5     2     3    1
     6     3     4    1
     7     4     5   ar
     8     5     6   ar
     9     6     7   ar
    10     7     8   ar
    11     8     9   ar
    12     9    10    1
    13    10    15    1
    14    15    16    1
    15    16    17   ar
    16    17    18   ar
    17    18    19   ar
    18    19    20   ar
    19    20    21   ar
    20    21    22    1
    21    10     1    1
    22    21    16   ar
    23     9     4   ar
    24    13    14    1
@<TRIPOS>MOLECULE
*****
 22 24 0 0 0
SMALL
GASTEIGER

@<TRIPOS>ATOM
      1 C         -10.0182  -18.8131   23.3027 C.3     1  UNL1        0.1038
      2 C         -10.5547  -18.8214   24.7034 C.3     1  UNL1        0.2106
      3 O          -9.9666  -17.9074   25.7373 O.3     1  UNL1       -0.4755
      4 C          -8.8419  -16.9852   25.3703 C.ar    1  UNL1        0.1379
      5 C          -8.2538  -16.0712   26.4042 C.ar    1  UNL1        0.0367
      6 C          -7.1291  -15.1490   26.0372 C.ar    1  UNL1        0.0031
      7 C          -6.5926  -15.1407   24.6365 C.ar    1  UNL1       -0.0000
      8 C          -7.1808  -16.0546   23.6027 C.ar    1  UNL1        0.0022
      9 C          -8.3054  -16.9769   23.9696 C.ar    1  UNL1        0.0513
     10 C          -8.8936  -17.8909   22.9358 C.3     1  UNL1        0.1959
     11 C         -10.6064  -19.7271   22.2689 C.3     1  UNL1        0.0763
     12 C         -12.2855  -17.9686   21.3532 C.3     1  UNL1        0.0859
     13 N         -11.4004  -19.1589   21.1301 N.3     1  UNL1       -0.2961
     14 H         -10.7311  -18.8966   20.4065 H       1  UNL1        0.1233
     15 O          -8.3571  -17.8826   21.5350 O.3     1  UNL1       -0.4748
     16 C          -7.2581  -18.8271   21.1472 C.ar    1  UNL1        0.1348
     17 C          -5.9921  -18.8749   21.9502 C.ar    1  UNL1        0.0366
     18 C          -4.8933  -19.8193   21.5623 C.ar    1  UNL1        0.0031
     19 C          -5.0604  -20.7160   20.3715 C.ar    1  UNL1       -0.0001
     20 C          -6.3264  -20.6681   19.5685 C.ar    1  UNL1       -0.0013
     21 C          -7.4253  -19.7237   19.9563 C.ar    1  UNL1        0.0121
     22 C          -8.6914  -19.6758   19.1533 C.3     1  UNL1        0.0342
@<TRIPOS>BOND
     1    12    13    1
     2    13    11    1
     3     1    11    1
     4     1     2    1
     5     2     3    1
     6     3     4    1
     7     4     5   ar
     8     5     6   ar
     9     6     7   ar
    10     7     8   ar
    11     8     9   ar
    12     9    10    1
    13    10    15    1
    14    15    16    1
    15    16    17   ar
    16    17    18   ar
    17    18    19   ar
    18    19    20   ar
    19    20    21   ar
    20    21    22    1
    21    10     1    1
    22    21    16   ar
    23     9     4   ar
    24    13    14    1
@<TRIPOS>MOLECULE
*****
 22 24 0 0 0
SMALL
GASTEIGER

@<TRIPOS>ATOM
      1 C          -7.1029  -17.6425   22.7512 C.3     1  UNL1        0.1038
      2 C          -5.7963  -16.9062   22.7769 C.3     1  UNL1        0.2106
      3 O          -5.4446  -16.0436   23.9525 O.3     1  UNL1       -0.4755
      4 C          -6.3995  -15.9172   25.1025 C.ar    1  UNL1        0.1379
      5 C          -6.0478  -15.0545   26.2781 C.ar    1  UNL1        0.0367
      6 C          -7.0027  -14.9282   27.4279 C.ar    1  UNL1        0.0031
      7 C          -8.3093  -15.6645   27.4021 C.ar    1  UNL1       -0.0000
      8 C          -8.6610  -16.5271   26.2265 C.ar    1  UNL1        0.0022
      9 C          -7.7061  -16.6535   25.0767 C.ar    1  UNL1        0.0513
     10 C          -8.0578  -17.5161   23.9010 C.3     1  UNL1        0.1959
     11 C          -7.4546  -18.5051   21.5754 C.3     1  UNL1        0.0763
     12 C          -5.4958  -19.2990   20.0645 C.3     1  UNL1        0.0859
     13 N          -6.6687  -18.3948   20.3026 N.3     1  UNL1       -0.2961
     14 H          -7.3238  -18.5547   19.5373 H       1  UNL1        0.1233
     15 O          -9.3644  -18.2524   23.8752 O.3     1  UNL1       -0.4748
     16 C         -10.4953  -17.7439   23.0311 C.ar    1  UNL1        0.1348
     17 C         -10.9016  -16.3022   23.1112 C.ar    1  UNL1        0.0366
     18 C         -12.0325  -15.7937   22.2671 C.ar    1  UNL1        0.0031
     19 C         -12.7571  -16.7269   21.3429 C.ar    1  UNL1       -0.0001
     20 C         -12.3507  -18.1686   21.2628 C.ar    1  UNL1       -0.0013
     21 C         -11.2199  -18.6771   22.1069 C.ar    1  UNL1        0.0121
     22 C         -10.8135  -20.1188   22.0267 C.3     1  UNL1        0.0342
@<TRIPOS>BOND
     1    12    13    1
     2    13    11    1
     3     1    11    1
     4     1     2    1
     5     2     3    1
     6     3     4    1
     7     4     5   ar
     8     5     6   ar
     9     6     7   ar
    10     7     8   ar
    11     8     9   ar
    12     9    10    1
    13    10    15    1
    14    15    16    1
    15    16    17   ar
    16    17    18   ar
    17    18    19   ar
    18    19    20   ar
    19    20    21   ar
    20    21    22    1
    21    10     1    1
    22    21    16   ar
    23     9     4   ar
    24    13    14    1
@<TRIPOS>MOLECULE
*****
 22 24 0 0 0
SMALL
GASTEIGER

@<TRIPOS>ATOM
      1 C          -5.1523  -19.0101   21.9095 C.3     1  UNL1        0.1038
      2 C          -3.9373  -18.8376   22.7721 C.3     1  UNL1        0.2106
      3 O          -3.9055  -17.7612   23.8162 O.3     1  UNL1       -0.4755
      4 C          -5.0887  -16.8572   23.9979 C.ar    1  UNL1        0.1379
      5 C          -5.0569  -15.7808   25.0420 C.ar    1  UNL1        0.0367
      6 C          -6.2401  -14.8770   25.2236 C.ar    1  UNL1        0.0031
      7 C          -7.4551  -15.0495   24.3611 C.ar    1  UNL1       -0.0000
      8 C          -7.4869  -16.1259   23.3169 C.ar    1  UNL1        0.0022
      9 C          -6.3037  -17.0297   23.1353 C.ar    1  UNL1        0.0513
     10 C          -6.3355  -18.1062   22.0911 C.3     1  UNL1        0.1959
     11 C          -5.1841  -20.0866   20.8653 C.3     1  UNL1        0.0763
     12 C          -3.3489  -19.1262   19.2970 C.3     1  UNL1        0.0859
     13 N          -3.9992  -20.2983   19.9701 N.3     1  UNL1       -0.2961
     14 H          -3.2800  -20.7496   20.5354 H       1  UNL1        0.1233
     15 O          -7.5505  -18.2787   21.2286 O.3     1  UNL1       -0.4748
     16 C          -8.7454  -19.0171   21.7551 C.ar    1  UNL1        0.1348
     17 C          -8.7734  -19.4777   23.1823 C.ar    1  UNL1        0.0366
     18 C          -9.9682  -20.2160   23.7088 C.ar    1  UNL1        0.0031
     19 C         -11.1351  -20.4937   22.8080 C.ar    1  UNL1       -0.0001
     20 C         -11.1071  -20.0331   21.3808 C.ar    1  UNL1       -0.0013
     21 C          -9.9122  -19.2948   20.8544 C.ar    1  UNL1        0.0121
     22 C          -9.8842  -18.8341   19.4271 C.3     1  UNL1        0.0342
@<TRIPOS>BOND
     1    12    13    1
     2    13    11    1
     3     1    11    1
     4     1     2    1
     5     2     3    1
     6     3     4    1
     7     4     5   ar
     8     5     6   ar
     9     6     7   ar
    10     7     8   ar
    11     8     9   ar
    12     9    10    1
    13    10    15    1
    14    15    16    1
    15    16    17   ar
    16    17    18   ar
    17    18    19   ar
    18    19    20   ar
    19    20    21   ar
    20    21    22    1
    21    10     1    1
    22    21    16   ar
    23     9     4   ar
    24    13    14    1
