@<TRIPOS>MOLECULE
*****
 33 37 0 0 0
SMALL
GASTEIGER

@<TRIPOS>ATOM
      1 C          -7.2855    5.0037   24.1991 C.3     1  UNL1        0.0952
      2 C          -5.9623    4.2976   24.1779 C.2     1  UNL1        0.2302
      3 O          -5.4678    3.5943   25.4070 O.2     1  UNL1       -0.2745
      4 N          -5.1335    4.2950   22.9277 N.am    1  UNL1       -0.2515
      5 C          -5.6280    4.9983   21.6986 C.2     1  UNL1        0.0695
      6 C          -4.7993    4.9957   20.4483 C.2     1  UNL1        0.0366
      7 C          -3.4760    4.2896   20.4272 C.ar    1  UNL1        0.0993
      8 N          -2.6473    4.2870   19.1769 N.ar    1  UNL1       -0.2267
      9 C          -1.3240    3.5809   19.1557 C.ar    1  UNL1        0.1603
     10 C          -0.8295    2.8775   20.3849 C.ar    1  UNL1        0.1630
     11 N          -1.6582    2.8802   21.6351 N.ar    1  UNL1       -0.2289
     12 C          -2.9815    3.5863   21.6562 C.ar    1  UNL1        0.0985
     13 C          -3.8103    3.5889   22.9065 C.3     1  UNL1        0.1454
     14 N           0.4938    2.1715   20.3637 N.pl3   1  UNL1       -0.2908
     15 C           1.7254    2.8716   20.8567 C.3     1  UNL1        0.0960
     16 C           3.0487    2.1656   20.8355 C.3     1  UNL1        0.0650
     17 C           3.1404    0.7594   20.3214 C.3     1  UNL1        0.1694
     18 C           1.9088    0.0593   19.8284 C.3     1  UNL1        0.0650
     19 C           0.5855    0.7653   19.8495 C.3     1  UNL1        0.0960
     20 O           4.4636    0.0534   20.3002 O.3     1  UNL1       -0.4768
     21 C           4.5377   -1.3891   19.8952 C.ar    1  UNL1        0.1657
     22 C           5.0359   -1.7601   18.5299 C.ar    1  UNL1        0.0415
     23 C           5.1100   -3.2024   18.1249 C.ar    1  UNL1        0.0329
     24 C           4.6859   -4.2738   19.0852 C.ar    1  UNL1        0.1426
     25 F           4.7600   -5.7162   18.6802 F       1  UNL1       -0.2041
     26 C           4.1877   -3.9028   20.4505 C.ar    1  UNL1        0.0624
     27 C           4.1136   -2.4604   20.8555 C.ar    1  UNL1        0.1760
     28 F           3.6154   -2.0894   22.2209 F       1  UNL1       -0.2009
     29 N          -0.4953    3.5783   17.9055 N.pl3   1  UNL1       -0.3175
     30 H          -0.6404    2.8866   17.2201 H       1  UNL1        0.1482
     31 C           0.5547    4.6296   17.6994 C.3     1  UNL1        0.0706
     32 C           1.3803    5.4779   16.7782 C.3     1  UNL1        0.0212
     33 C           1.5476    5.6021   18.2637 C.3     1  UNL1        0.0212
@<TRIPOS>BOND
     1     1     2    1
     2     2     3    2
     3     2     4   am
     4     4     5    1
     5     5     6    2
     6     6     7    1
     7     7     8   ar
     8     8     9   ar
     9     9    29    1
    10    29    31    1
    11    31    32    1
    12    32    33    1
    13     9    10   ar
    14    10    14    1
    15    14    15    1
    16    15    16    1
    17    16    17    1
    18    17    20    1
    19    20    21    1
    20    21    22   ar
    21    22    23   ar
    22    23    24   ar
    23    24    25    1
    24    24    26   ar
    25    26    27   ar
    26    27    28    1
    27    17    18    1
    28    18    19    1
    29    10    11   ar
    30    11    12   ar
    31    12    13    1
    32    13     4    1
    33    12     7   ar
    34    33    31    1
    35    19    14    1
    36    27    21   ar
    37    29    30    1
@<TRIPOS>MOLECULE
*****
 33 37 0 0 0
SMALL
GASTEIGER

@<TRIPOS>ATOM
      1 C          -2.2853    4.0117   21.5419 C.3     1  UNL1        0.0952
      2 C          -1.1778    3.2845   22.2451 C.2     1  UNL1        0.2302
      3 O          -0.9868    3.4575   23.7228 O.2     1  UNL1       -0.2745
      4 N          -0.2613    2.3843   21.4707 N.am    1  UNL1       -0.2515
      5 C          -0.4523    2.2113   19.9931 C.2     1  UNL1        0.0695
      6 C           0.4642    1.3111   19.2187 C.2     1  UNL1        0.0366
      7 C           1.5717    0.5840   19.9219 C.ar    1  UNL1        0.0993
      8 N           2.4882   -0.3162   19.1475 N.ar    1  UNL1       -0.2267
      9 C           3.5957   -1.0434   19.8508 C.ar    1  UNL1        0.1603
     10 C           3.7867   -0.8704   21.3285 C.ar    1  UNL1        0.1630
     11 N           2.8702    0.0297   22.1029 N.ar    1  UNL1       -0.2289
     12 C           1.7627    0.7569   21.3996 C.ar    1  UNL1        0.0985
     13 C           0.8462    1.6571   22.1740 C.3     1  UNL1        0.1454
     14 N           4.8942   -1.5976   22.0318 N.pl3   1  UNL1       -0.2908
     15 C           4.6447   -2.9540   22.6218 C.3     1  UNL1        0.0960
     16 C           5.7522   -3.6812   23.3250 C.3     1  UNL1        0.0650
     17 C           7.1092   -3.0521   23.4383 C.3     1  UNL1        0.1694
     18 C           7.3587   -1.6957   22.8484 C.3     1  UNL1        0.0650
     19 C           6.2511   -0.9685   22.1451 C.3     1  UNL1        0.0960
     20 O           8.2167   -3.7793   24.1416 O.3     1  UNL1       -0.4768
     21 C           7.9385   -5.0807   24.8336 C.ar    1  UNL1        0.1657
     22 C           8.3542   -6.3732   24.1957 C.ar    1  UNL1        0.0415
     23 C           8.0761   -7.6746   24.8877 C.ar    1  UNL1        0.0329
     24 C           7.3823   -7.6836   26.2175 C.ar    1  UNL1        0.1426
     25 F           7.1041   -8.9851   26.9095 F       1  UNL1       -0.2041
     26 C           6.9666   -6.3912   26.8554 C.ar    1  UNL1        0.0624
     27 C           7.2447   -5.0898   26.1634 C.ar    1  UNL1        0.1760
     28 F           6.8290   -3.7974   26.8013 F       1  UNL1       -0.2009
     29 N           4.5122   -1.9436   19.0764 N.pl3   1  UNL1       -0.3175
     30 H           5.2884   -1.5662   18.6029 H       1  UNL1        0.1482
     31 C           4.2459   -3.4189   19.0234 C.3     1  UNL1        0.0706
     32 C           3.3478   -4.5876   19.3016 C.3     1  UNL1        0.0212
     33 C           4.6828   -4.8053   18.6534 C.3     1  UNL1        0.0212
@<TRIPOS>BOND
     1     1     2    1
     2     2     3    2
     3     2     4   am
     4     4     5    1
     5     5     6    2
     6     6     7    1
     7     7     8   ar
     8     8     9   ar
     9     9    29    1
    10    29    31    1
    11    31    32    1
    12    32    33    1
    13     9    10   ar
    14    10    14    1
    15    14    15    1
    16    15    16    1
    17    16    17    1
    18    17    20    1
    19    20    21    1
    20    21    22   ar
    21    22    23   ar
    22    23    24   ar
    23    24    25    1
    24    24    26   ar
    25    26    27   ar
    26    27    28    1
    27    17    18    1
    28    18    19    1
    29    10    11   ar
    30    11    12   ar
    31    12    13    1
    32    13     4    1
    33    12     7   ar
    34    33    31    1
    35    19    14    1
    36    27    21   ar
    37    29    30    1
@<TRIPOS>MOLECULE
*****
 33 37 0 0 0
SMALL
GASTEIGER

@<TRIPOS>ATOM
      1 C           7.6428   -0.3456   33.8292 C.3     1  UNL1        0.0952
      2 C           7.6365   -0.3122   32.3297 C.2     1  UNL1        0.2302
      3 O           7.8840    0.9788   31.6072 O.2     1  UNL1       -0.2745
      4 N           7.3827   -1.5698   31.5525 N.am    1  UNL1       -0.2515
      5 C           7.1353   -2.8609   32.2749 C.2     1  UNL1        0.0695
      6 C           6.8815   -4.1185   31.4977 C.2     1  UNL1        0.0366
      7 C           6.8752   -4.0851   29.9981 C.ar    1  UNL1        0.0993
      8 N           6.6214   -5.3427   29.2210 N.ar    1  UNL1       -0.2267
      9 C           6.6151   -5.3093   27.7214 C.ar    1  UNL1        0.1603
     10 C           6.8626   -4.0182   26.9989 C.ar    1  UNL1        0.1630
     11 N           7.1164   -2.7606   27.7761 N.ar    1  UNL1       -0.2289
     12 C           7.1227   -2.7940   29.2757 C.ar    1  UNL1        0.0985
     13 C           7.3764   -1.5364   30.0529 C.3     1  UNL1        0.1454
     14 N           6.8563   -3.9848   25.4993 N.pl3   1  UNL1       -0.2908
     15 C           5.7215   -3.3304   24.7684 C.3     1  UNL1        0.0960
     16 C           5.7152   -3.2970   23.2688 C.3     1  UNL1        0.0650
     17 C           6.8437   -3.9179   22.5001 C.3     1  UNL1        0.1694
     18 C           7.9784   -4.5722   23.2309 C.3     1  UNL1        0.0650
     19 C           7.9848   -4.6057   24.7305 C.3     1  UNL1        0.0960
     20 O           6.8374   -3.8845   21.0005 O.3     1  UNL1       -0.4768
     21 C           5.8756   -2.9913   20.2742 C.ar    1  UNL1        0.1657
     22 C           6.3117   -1.6287   19.8235 C.ar    1  UNL1        0.0415
     23 C           5.3501   -0.7356   19.0972 C.ar    1  UNL1        0.0329
     24 C           3.9524   -1.2050   18.8217 C.ar    1  UNL1        0.1426
     25 F           2.9906   -0.3119   18.0954 F       1  UNL1       -0.2041
     26 C           3.5163   -2.5676   19.2724 C.ar    1  UNL1        0.0624
     27 C           4.4779   -3.4608   19.9987 C.ar    1  UNL1        0.1760
     28 F           4.0419   -4.8234   20.4494 F       1  UNL1       -0.2009
     29 N           6.3614   -6.5669   26.9442 N.pl3   1  UNL1       -0.3175
     30 H           5.4698   -6.7390   26.5637 H       1  UNL1        0.1482
     31 C           7.4660   -7.5624   26.7468 C.3     1  UNL1        0.0706
     32 C           8.6350   -8.0652   25.9528 C.3     1  UNL1        0.0212
     33 C           8.2102   -8.7837   27.1991 C.3     1  UNL1        0.0212
@<TRIPOS>BOND
     1     1     2    1
     2     2     3    2
     3     2     4   am
     4     4     5    1
     5     5     6    2
     6     6     7    1
     7     7     8   ar
     8     8     9   ar
     9     9    29    1
    10    29    31    1
    11    31    32    1
    12    32    33    1
    13     9    10   ar
    14    10    14    1
    15    14    15    1
    16    15    16    1
    17    16    17    1
    18    17    20    1
    19    20    21    1
    20    21    22   ar
    21    22    23   ar
    22    23    24   ar
    23    24    25    1
    24    24    26   ar
    25    26    27   ar
    26    27    28    1
    27    17    18    1
    28    18    19    1
    29    10    11   ar
    30    11    12   ar
    31    12    13    1
    32    13     4    1
    33    12     7   ar
    34    33    31    1
    35    19    14    1
    36    27    21   ar
    37    29    30    1
@<TRIPOS>MOLECULE
*****
 33 37 0 0 0
SMALL
GASTEIGER

@<TRIPOS>ATOM
      1 C           2.9275   -1.3244   19.3145 C.3     1  UNL1        0.0952
      2 C           3.1636   -1.3018   20.7956 C.2     1  UNL1        0.2302
      3 O           2.3364   -0.4101   21.6734 O.2     1  UNL1       -0.2745
      4 N           4.2267   -2.1711   21.3989 N.am    1  UNL1       -0.2515
      5 C           5.0539   -3.0629   20.5211 C.2     1  UNL1        0.0695
      6 C           6.1171   -3.9322   21.1244 C.2     1  UNL1        0.0366
      7 C           6.3531   -3.9097   22.6055 C.ar    1  UNL1        0.0993
      8 N           7.4163   -4.7789   23.2089 N.ar    1  UNL1       -0.2267
      9 C           7.6524   -4.7564   24.6900 C.ar    1  UNL1        0.1603
     10 C           6.8252   -3.8646   25.5678 C.ar    1  UNL1        0.1630
     11 N           5.7620   -2.9953   24.9645 N.ar    1  UNL1       -0.2289
     12 C           5.5260   -3.0179   23.4833 C.ar    1  UNL1        0.0985
     13 C           4.4628   -2.1486   22.8800 C.3     1  UNL1        0.1454
     14 N           7.0613   -3.8421   27.0489 N.pl3   1  UNL1       -0.2908
     15 C           7.9400   -2.7868   27.6524 C.3     1  UNL1        0.0960
     16 C           8.1761   -2.7643   29.1336 C.3     1  UNL1        0.0650
     17 C           7.5334   -3.7971   30.0112 C.3     1  UNL1        0.1694
     18 C           6.6547   -4.8524   29.4078 C.3     1  UNL1        0.0650
     19 C           6.4186   -4.8749   27.9266 C.3     1  UNL1        0.0960
     20 O           7.7695   -3.7746   31.4923 O.3     1  UNL1       -0.4768
     21 C           7.0023   -2.8210   32.3597 C.ar    1  UNL1        0.1657
     22 C           5.5510   -3.0693   32.6460 C.ar    1  UNL1        0.0415
     23 C           4.7839   -2.1158   33.5133 C.ar    1  UNL1        0.0329
     24 C           5.4681   -0.9140   34.0943 C.ar    1  UNL1        0.1426
     25 F           4.7009    0.0396   34.9617 F       1  UNL1       -0.2041
     26 C           6.9194   -0.6657   33.8080 C.ar    1  UNL1        0.0624
     27 C           7.6865   -1.6192   32.9407 C.ar    1  UNL1        0.1760
     28 F           9.1379   -1.3710   32.6544 F       1  UNL1       -0.2009
     29 N           8.7156   -5.6257   25.2933 N.pl3   1  UNL1       -0.3175
     30 H           9.6457   -5.3062   25.3384 H       1  UNL1        0.1482
     31 C           8.3616   -6.9818   25.8278 C.3     1  UNL1        0.0706
     32 C           8.7794   -8.2895   26.4323 C.3     1  UNL1        0.0212
     33 C           7.3307   -8.0230   26.1492 C.3     1  UNL1        0.0212
@<TRIPOS>BOND
     1     1     2    1
     2     2     3    2
     3     2     4   am
     4     4     5    1
     5     5     6    2
     6     6     7    1
     7     7     8   ar
     8     8     9   ar
     9     9    29    1
    10    29    31    1
    11    31    32    1
    12    32    33    1
    13     9    10   ar
    14    10    14    1
    15    14    15    1
    16    15    16    1
    17    16    17    1
    18    17    20    1
    19    20    21    1
    20    21    22   ar
    21    22    23   ar
    22    23    24   ar
    23    24    25    1
    24    24    26   ar
    25    26    27   ar
    26    27    28    1
    27    17    18    1
    28    18    19    1
    29    10    11   ar
    30    11    12   ar
    31    12    13    1
    32    13     4    1
    33    12     7   ar
    34    33    31    1
    35    19    14    1
    36    27    21   ar
    37    29    30    1
@<TRIPOS>MOLECULE
*****
 33 37 0 0 0
SMALL
GASTEIGER

@<TRIPOS>ATOM
      1 C           4.3524   -1.4621   34.2174 C.3     1  UNL1        0.0952
      2 C           4.6482   -1.6761   32.7625 C.2     1  UNL1        0.2302
      3 O           5.5473   -2.7988   32.3373 O.2     1  UNL1       -0.2745
      4 N           4.0448   -0.7673   31.7329 N.am    1  UNL1       -0.2515
      5 C           3.1457    0.3555   32.1582 C.2     1  UNL1        0.0695
      6 C           2.5424    1.2643   31.1286 C.2     1  UNL1        0.0366
      7 C           2.8382    1.0503   29.6737 C.ar    1  UNL1        0.0993
      8 N           2.2349    1.9591   28.6441 N.ar    1  UNL1       -0.2267
      9 C           2.5307    1.7451   27.1892 C.ar    1  UNL1        0.1603
     10 C           3.4299    0.6223   26.7639 C.ar    1  UNL1        0.1630
     11 N           4.0332   -0.2865   27.7935 N.ar    1  UNL1       -0.2289
     12 C           3.7373   -0.0725   29.2485 C.ar    1  UNL1        0.0985
     13 C           4.3407   -0.9812   30.2781 C.3     1  UNL1        0.1454
     14 N           3.7257    0.4083   25.3091 N.pl3   1  UNL1       -0.2908
     15 C           4.8819    1.1161   24.6668 C.3     1  UNL1        0.0960
     16 C           5.1777    0.9021   23.2119 C.3     1  UNL1        0.0650
     17 C           4.3174   -0.0196   22.3993 C.3     1  UNL1        0.1694
     18 C           3.1613   -0.7273   23.0415 C.3     1  UNL1        0.0650
     19 C           2.8654   -0.5134   24.4964 C.3     1  UNL1        0.0960
     20 O           4.6132   -0.2336   20.9444 O.3     1  UNL1       -0.4768
     21 C           4.6251   -1.6225   20.3778 C.ar    1  UNL1        0.1657
     22 C           5.8832   -2.4383   20.4185 C.ar    1  UNL1        0.0415
     23 C           5.8952   -3.8271   19.8519 C.ar    1  UNL1        0.0329
     24 C           4.6490   -4.4001   19.2447 C.ar    1  UNL1        0.1426
     25 F           4.6609   -5.7889   18.6781 F       1  UNL1       -0.2041
     26 C           3.3909   -3.5843   19.2041 C.ar    1  UNL1        0.0624
     27 C           3.3790   -2.1955   19.7706 C.ar    1  UNL1        0.1760
     28 F           2.1209   -1.3796   19.7300 F       1  UNL1       -0.2009
     29 N           1.9273    2.6539   26.1596 N.pl3   1  UNL1       -0.3175
     30 H           2.4063    3.4672   25.8797 H       1  UNL1        0.1482
     31 C           0.5942    2.3235   25.5566 C.3     1  UNL1        0.0706
     32 C          -0.2171    1.7589   24.4284 C.3     1  UNL1        0.0212
     33 C          -0.9035    2.3159   25.6402 C.3     1  UNL1        0.0212
@<TRIPOS>BOND
     1     1     2    1
     2     2     3    2
     3     2     4   am
     4     4     5    1
     5     5     6    2
     6     6     7    1
     7     7     8   ar
     8     8     9   ar
     9     9    29    1
    10    29    31    1
    11    31    32    1
    12    32    33    1
    13     9    10   ar
    14    10    14    1
    15    14    15    1
    16    15    16    1
    17    16    17    1
    18    17    20    1
    19    20    21    1
    20    21    22   ar
    21    22    23   ar
    22    23    24   ar
    23    24    25    1
    24    24    26   ar
    25    26    27   ar
    26    27    28    1
    27    17    18    1
    28    18    19    1
    29    10    11   ar
    30    11    12   ar
    31    12    13    1
    32    13     4    1
    33    12     7   ar
    34    33    31    1
    35    19    14    1
    36    27    21   ar
    37    29    30    1
@<TRIPOS>MOLECULE
*****
 33 37 0 0 0
SMALL
GASTEIGER

@<TRIPOS>ATOM
      1 C          -5.8267    5.4025   26.3504 C.3     1  UNL1        0.0952
      2 C          -4.6955    4.5517   25.8540 C.2     1  UNL1        0.2302
      3 O          -3.9385    3.6782   26.8100 O.2     1  UNL1       -0.2745
      4 N          -4.3213    4.5743   24.4016 N.am    1  UNL1       -0.2515
      5 C          -5.0783    5.4478   23.4456 C.2     1  UNL1        0.0695
      6 C          -4.7040    5.4704   21.9932 C.2     1  UNL1        0.0366
      7 C          -3.5728    4.6196   21.4968 C.ar    1  UNL1        0.0993
      8 N          -3.1986    4.6422   20.0444 N.ar    1  UNL1       -0.2267
      9 C          -2.0674    3.7914   19.5481 C.ar    1  UNL1        0.1603
     10 C          -1.3103    2.9179   20.5041 C.ar    1  UNL1        0.1630
     11 N          -1.6846    2.8953   21.9565 N.ar    1  UNL1       -0.2289
     12 C          -2.8159    3.7461   22.4529 C.ar    1  UNL1        0.0985
     13 C          -3.1901    3.7235   23.9052 C.3     1  UNL1        0.1454
     14 N          -0.1791    2.0671   20.0077 N.pl3   1  UNL1       -0.2908
     15 C           0.9035    2.6752   19.1661 C.3     1  UNL1        0.0960
     16 C           2.0347    1.8244   18.6697 C.3     1  UNL1        0.0650
     17 C           2.0834    0.3654   19.0149 C.3     1  UNL1        0.1694
     18 C           1.0008   -0.2427   19.8565 C.3     1  UNL1        0.0650
     19 C          -0.1305    0.6082   20.3529 C.3     1  UNL1        0.0960
     20 O           3.2146   -0.4854   18.5186 O.3     1  UNL1       -0.4768
     21 C           3.9037   -1.4361   19.4521 C.ar    1  UNL1        0.1657
     22 C           3.6829   -2.9135   19.3156 C.ar    1  UNL1        0.0415
     23 C           4.3719   -3.8641   20.2490 C.ar    1  UNL1        0.0329
     24 C           5.2818   -3.3375   21.3189 C.ar    1  UNL1        0.1426
     25 F           5.9709   -4.2882   22.2525 F       1  UNL1       -0.2041
     26 C           5.5026   -1.8601   21.4554 C.ar    1  UNL1        0.0624
     27 C           4.8135   -0.9094   20.5220 C.ar    1  UNL1        0.1760
     28 F           5.0343    0.5680   20.6584 F       1  UNL1       -0.2009
     29 N          -1.6932    3.8140   18.0957 N.pl3   1  UNL1       -0.3175
     30 H          -0.7475    3.7482   17.8299 H       1  UNL1        0.1482
     31 C          -2.7598    3.9369   17.0482 C.3     1  UNL1        0.0706
     32 C          -3.7557    4.7728   16.3001 C.3     1  UNL1        0.0212
     33 C          -3.6115    3.3140   15.9820 C.3     1  UNL1        0.0212
@<TRIPOS>BOND
     1     1     2    1
     2     2     3    2
     3     2     4   am
     4     4     5    1
     5     5     6    2
     6     6     7    1
     7     7     8   ar
     8     8     9   ar
     9     9    29    1
    10    29    31    1
    11    31    32    1
    12    32    33    1
    13     9    10   ar
    14    10    14    1
    15    14    15    1
    16    15    16    1
    17    16    17    1
    18    17    20    1
    19    20    21    1
    20    21    22   ar
    21    22    23   ar
    22    23    24   ar
    23    24    25    1
    24    24    26   ar
    25    26    27   ar
    26    27    28    1
    27    17    18    1
    28    18    19    1
    29    10    11   ar
    30    11    12   ar
    31    12    13    1
    32    13     4    1
    33    12     7   ar
    34    33    31    1
    35    19    14    1
    36    27    21   ar
    37    29    30    1
@<TRIPOS>MOLECULE
*****
 33 37 0 0 0
SMALL
GASTEIGER

@<TRIPOS>ATOM
      1 C           0.3924    6.9169   36.3041 C.3     1  UNL1        0.0952
      2 C           1.4202    5.8290   36.2045 C.2     1  UNL1        0.2302
      3 O           2.4746    5.6943   37.2627 O.2     1  UNL1       -0.2745
      4 N           1.3935    4.8757   35.0467 N.am    1  UNL1       -0.2515
      5 C           0.3390    5.0103   33.9885 C.2     1  UNL1        0.0695
      6 C           0.3124    4.0570   32.8307 C.2     1  UNL1        0.0366
      7 C           1.3402    2.9691   32.7311 C.ar    1  UNL1        0.0993
      8 N           1.3135    2.0158   31.5733 N.ar    1  UNL1       -0.2267
      9 C           2.3413    0.9278   31.4737 C.ar    1  UNL1        0.1603
     10 C           3.3959    0.7932   32.5320 C.ar    1  UNL1        0.1630
     11 N           3.4225    1.7465   33.6898 N.ar    1  UNL1       -0.2289
     12 C           2.3946    2.8344   33.7893 C.ar    1  UNL1        0.0985
     13 C           2.4213    3.7877   34.9471 C.3     1  UNL1        0.1454
     14 N           4.4237   -0.2948   32.4324 N.pl3   1  UNL1       -0.2908
     15 C           4.1400   -1.6498   33.0100 C.3     1  UNL1        0.0960
     16 C           5.1678   -2.7377   32.9104 C.3     1  UNL1        0.0650
     17 C           6.4793   -2.4707   32.2333 C.3     1  UNL1        0.1694
     18 C           6.7631   -1.1158   31.6557 C.3     1  UNL1        0.0650
     19 C           5.7352   -0.0278   31.7552 C.3     1  UNL1        0.0960
     20 O           7.5072   -3.5586   32.1337 O.3     1  UNL1       -0.4768
     21 C           7.5388   -4.4526   30.9295 C.ar    1  UNL1        0.1657
     22 C           6.5596   -4.2418   29.8130 C.ar    1  UNL1        0.0415
     23 C           6.5913   -5.1357   28.6089 C.ar    1  UNL1        0.0329
     24 C           7.6021   -6.2404   28.5214 C.ar    1  UNL1        0.1426
     25 F           7.6337   -7.1344   27.3172 F       1  UNL1       -0.2041
     26 C           8.5813   -6.4513   29.6379 C.ar    1  UNL1        0.0624
     27 C           8.5496   -5.5574   30.8420 C.ar    1  UNL1        0.1760
     28 F           9.5288   -5.7682   31.9586 F       1  UNL1       -0.2009
     29 N           2.3146   -0.0255   30.3159 N.pl3   1  UNL1       -0.3175
     30 H           3.0031   -0.7250   30.2382 H       1  UNL1        0.1482
     31 C           1.2390    0.0870   29.2764 C.3     1  UNL1        0.0706
     32 C           0.7429    0.6454   27.9756 C.3     1  UNL1        0.0212
     33 C          -0.1278   -0.2765   28.7768 C.3     1  UNL1        0.0212
@<TRIPOS>BOND
     1     1     2    1
     2     2     3    2
     3     2     4   am
     4     4     5    1
     5     5     6    2
     6     6     7    1
     7     7     8   ar
     8     8     9   ar
     9     9    29    1
    10    29    31    1
    11    31    32    1
    12    32    33    1
    13     9    10   ar
    14    10    14    1
    15    14    15    1
    16    15    16    1
    17    16    17    1
    18    17    20    1
    19    20    21    1
    20    21    22   ar
    21    22    23   ar
    22    23    24   ar
    23    24    25    1
    24    24    26   ar
    25    26    27   ar
    26    27    28    1
    27    17    18    1
    28    18    19    1
    29    10    11   ar
    30    11    12   ar
    31    12    13    1
    32    13     4    1
    33    12     7   ar
    34    33    31    1
    35    19    14    1
    36    27    21   ar
    37    29    30    1
@<TRIPOS>MOLECULE
*****
 33 37 0 0 0
SMALL
GASTEIGER

@<TRIPOS>ATOM
      1 C           3.9105    4.7738   40.9768 C.3     1  UNL1        0.0952
      2 C           4.5812    3.6652   40.2212 C.2     1  UNL1        0.2302
      3 O           5.7337    2.9284   40.8365 O.2     1  UNL1       -0.2745
      4 N           4.0994    3.2934   38.8502 N.am    1  UNL1       -0.2515
      5 C           2.9469    4.0302   38.2348 C.2     1  UNL1        0.0695
      6 C           2.4651    3.6584   36.8638 C.2     1  UNL1        0.0366
      7 C           3.1358    2.5498   36.1082 C.ar    1  UNL1        0.0993
      8 N           2.6540    2.1779   34.7372 N.ar    1  UNL1       -0.2267
      9 C           3.3247    1.0693   33.9816 C.ar    1  UNL1        0.1603
     10 C           4.4773    0.3324   34.5970 C.ar    1  UNL1        0.1630
     11 N           4.9591    0.7042   35.9680 N.ar    1  UNL1       -0.2289
     12 C           4.2883    1.8129   36.7236 C.ar    1  UNL1        0.0985
     13 C           4.7701    2.1847   38.0946 C.3     1  UNL1        0.1454
     14 N           5.1480   -0.7762   33.8413 N.pl3   1  UNL1       -0.2908
     15 C           4.4216   -2.0664   33.6006 C.3     1  UNL1        0.0960
     16 C           5.0923   -3.1751   32.8450 C.3     1  UNL1        0.0650
     17 C           6.4894   -2.9936   32.3301 C.3     1  UNL1        0.1694
     18 C           7.2158   -1.7035   32.5707 C.3     1  UNL1        0.0650
     19 C           6.5451   -0.5948   33.3264 C.3     1  UNL1        0.0960
     20 O           7.1601   -4.1023   31.5744 O.3     1  UNL1       -0.4768
     21 C           6.9683   -4.2224   30.0916 C.ar    1  UNL1        0.1657
     22 C           6.4509   -3.0545   29.3052 C.ar    1  UNL1        0.0415
     23 C           6.2592   -3.1745   27.8224 C.ar    1  UNL1        0.0329
     24 C           6.5847   -4.4625   27.1260 C.ar    1  UNL1        0.1426
     25 F           6.3929   -4.5826   25.6431 F       1  UNL1       -0.2041
     26 C           7.1021   -5.6304   27.9123 C.ar    1  UNL1        0.0624
     27 C           7.2939   -5.5103   29.3951 C.ar    1  UNL1        0.1760
     28 F           7.8113   -6.6782   30.1814 F       1  UNL1       -0.2009
     29 N           2.8429    0.6975   32.6106 N.pl3   1  UNL1       -0.3175
     30 H           3.0930   -0.1707   32.2196 H       1  UNL1        0.1482
     31 C           1.9799    1.6485   31.8354 C.3     1  UNL1        0.0706
     32 C           0.6206    2.1708   31.4757 C.3     1  UNL1        0.0212
     33 C           1.8446    2.7734   30.8524 C.3     1  UNL1        0.0212
@<TRIPOS>BOND
     1     1     2    1
     2     2     3    2
     3     2     4   am
     4     4     5    1
     5     5     6    2
     6     6     7    1
     7     7     8   ar
     8     8     9   ar
     9     9    29    1
    10    29    31    1
    11    31    32    1
    12    32    33    1
    13     9    10   ar
    14    10    14    1
    15    14    15    1
    16    15    16    1
    17    16    17    1
    18    17    20    1
    19    20    21    1
    20    21    22   ar
    21    22    23   ar
    22    23    24   ar
    23    24    25    1
    24    24    26   ar
    25    26    27   ar
    26    27    28    1
    27    17    18    1
    28    18    19    1
    29    10    11   ar
    30    11    12   ar
    31    12    13    1
    32    13     4    1
    33    12     7   ar
    34    33    31    1
    35    19    14    1
    36    27    21   ar
    37    29    30    1
@<TRIPOS>MOLECULE
*****
 33 37 0 0 0
SMALL
GASTEIGER

@<TRIPOS>ATOM
      1 C          -1.8211    3.4406   21.2283 C.3     1  UNL1        0.0952
      2 C          -0.7750    2.9144   22.1657 C.2     1  UNL1        0.2302
      3 O          -0.6819    3.4512   23.5632 O.2     1  UNL1       -0.2745
      4 N           0.1780    1.8513   21.7055 N.am    1  UNL1       -0.2515
      5 C           0.0849    1.3145   20.3080 C.2     1  UNL1        0.0695
      6 C           1.0379    0.2515   19.8478 C.2     1  UNL1        0.0366
      7 C           2.0841   -0.2747   20.7852 C.ar    1  UNL1        0.0993
      8 N           3.0371   -1.3377   20.3250 N.ar    1  UNL1       -0.2267
      9 C           4.0832   -1.8640   21.2624 C.ar    1  UNL1        0.1603
     10 C           4.1763   -1.3271   22.6600 C.ar    1  UNL1        0.1630
     11 N           3.2233   -0.2641   23.1201 N.ar    1  UNL1       -0.2289
     12 C           2.1772    0.2621   22.1827 C.ar    1  UNL1        0.0985
     13 C           1.2241    1.3251   22.6429 C.3     1  UNL1        0.1454
     14 N           5.2224   -1.8534   23.5973 N.pl3   1  UNL1       -0.2908
     15 C           6.2009   -0.9115   24.2343 C.3     1  UNL1        0.0960
     16 C           7.2470   -1.4378   25.1717 C.3     1  UNL1        0.0650
     17 C           7.3147   -2.9058   25.4721 C.3     1  UNL1        0.1694
     18 C           6.3364   -3.8476   24.8352 C.3     1  UNL1        0.0650
     19 C           5.2902   -3.3214   23.8977 C.3     1  UNL1        0.0960
     20 O           8.3608   -3.4320   26.4095 O.3     1  UNL1       -0.4768
     21 C           7.9530   -4.1324   27.6717 C.ar    1  UNL1        0.1657
     22 C           8.2238   -5.5985   27.8370 C.ar    1  UNL1        0.0415
     23 C           7.8159   -6.2989   29.0991 C.ar    1  UNL1        0.0329
     24 C           7.1373   -5.5332   30.1960 C.ar    1  UNL1        0.1426
     25 F           6.7294   -6.2336   31.4582 F       1  UNL1       -0.2041
     26 C           6.8664   -4.0672   30.0307 C.ar    1  UNL1        0.0624
     27 C           7.2743   -3.3668   28.7686 C.ar    1  UNL1        0.1760
     28 F           7.0035   -1.9007   28.6033 F       1  UNL1       -0.2009
     29 N           5.0362   -2.9270   20.8022 N.pl3   1  UNL1       -0.3175
     30 H           5.9796   -2.8969   21.0819 H       1  UNL1        0.1482
     31 C           4.5517   -4.0359   19.9158 C.3     1  UNL1        0.0706
     32 C           3.5147   -5.0625   19.5686 C.3     1  UNL1        0.0212
     33 C           4.7496   -4.9299   18.7276 C.3     1  UNL1        0.0212
@<TRIPOS>BOND
     1     1     2    1
     2     2     3    2
     3     2     4   am
     4     4     5    1
     5     5     6    2
     6     6     7    1
     7     7     8   ar
     8     8     9   ar
     9     9    29    1
    10    29    31    1
    11    31    32    1
    12    32    33    1
    13     9    10   ar
    14    10    14    1
    15    14    15    1
    16    15    16    1
    17    16    17    1
    18    17    20    1
    19    20    21    1
    20    21    22   ar
    21    22    23   ar
    22    23    24   ar
    23    24    25    1
    24    24    26   ar
    25    26    27   ar
    26    27    28    1
    27    17    18    1
    28    18    19    1
    29    10    11   ar
    30    11    12   ar
    31    12    13    1
    32    13     4    1
    33    12     7   ar
    34    33    31    1
    35    19    14    1
    36    27    21   ar
    37    29    30    1
