@<TRIPOS>MOLECULE
*****
 36 40 0 0 0
SMALL
GASTEIGER

@<TRIPOS>ATOM
      1 N           7.0560   -4.7382   30.8151 N.am    1  UNL1       -0.2794
      2 C           7.7486   -3.6183   31.5334 C.2     1  UNL1        0.2510
      3 O           9.2330   -3.4475   31.4018 O.2     1  UNL1       -0.2698
      4 H           6.0817   -4.8503   30.9014 H       1  UNL1        0.1552
      5 N           8.8489   -6.7683   32.1051 N.pl3   1  UNL1       -0.3560
      6 C           8.7442   -6.7024   30.6101 C.ar    1  UNL1        0.0552
      7 C           9.5359   -7.6515   29.7603 C.ar    1  UNL1        0.0154
      8 C           9.4312   -7.5856   28.2654 C.ar    1  UNL1        0.0018
      9 C           8.5347   -6.5706   27.6204 C.ar    1  UNL1        0.0073
     10 C           7.7430   -5.6215   28.4703 C.ar    1  UNL1        0.0164
     11 C           7.8477   -5.6874   29.9651 C.ar    1  UNL1        0.0636
     12 H           9.4373   -7.4345   32.5284 H       1  UNL1        0.1424
     13 H           8.3292   -6.1454   32.6629 H       1  UNL1        0.1424
     14 C           8.4300   -6.5047   26.1255 C.ar    1  UNL1        0.0295
     15 C           8.5796   -7.6590   25.1794 C.ar    1  UNL1        0.0070
     16 C           8.3994   -7.1406   23.7834 C.ar    1  UNL1        0.0075
     17 C           8.1383   -5.6658   23.8667 C.ar    1  UNL1        0.0354
     18 S           8.1573   -5.2728   25.3142 S.2     1  UNL1       -0.0864
     19 C           6.9569   -2.6693   32.3832 C.ar    1  UNL1        0.0729
     20 C           5.5187   -2.9616   32.6936 C.ar    1  UNL1        0.0090
     21 C           4.7269   -2.0125   33.5434 C.ar    1  UNL1        0.0345
     22 C           5.3733   -0.7711   34.0830 C.ar    1  UNL1        0.1317
     23 N           6.8114   -0.4788   33.7728 N.ar    1  UNL1       -0.2290
     24 C           7.6032   -1.4279   32.9228 C.ar    1  UNL1        0.1048
     25 N           4.5814    0.1780   34.9330 N.pl3   1  UNL1       -0.2930
     26 C           3.7217    1.2241   34.2875 C.3     1  UNL1        0.0958
     27 C           2.9299    2.1731   35.1375 C.3     1  UNL1        0.0634
     28 C           2.9978    2.0760   36.6328 C.3     1  UNL1        0.1588
     29 C           3.8575    1.0299   37.2782 C.3     1  UNL1        0.0634
     30 C           4.6493    0.0809   36.4283 C.3     1  UNL1        0.0958
     31 C           2.9657    2.0999   38.1323 C.3     1  UNL1        0.1327
     32 N           2.0471    3.2065   38.5587 N.am    1  UNL1       -0.2671
     33 C           1.5115    3.8665   37.3227 C.2     1  UNL1        0.4016
     34 O           0.5562    5.0222   37.2838 O.2     1  UNL1       -0.2264
     35 O           2.0991    3.1679   36.1325 O.3     1  UNL1       -0.4401
     36 H           1.8333    3.4558   39.4868 H       1  UNL1        0.1529
@<TRIPOS>BOND
     1     5     6    1
     2     6     7   ar
     3     7     8   ar
     4     8     9   ar
     5     9    14    1
     6    14    15   ar
     7    15    16   ar
     8    16    17   ar
     9    17    18   ar
    10     9    10   ar
    11    10    11   ar
    12    11     1    1
    13     1     2   am
    14     2     3    2
    15     2    19    1
    16    19    20   ar
    17    20    21   ar
    18    21    22   ar
    19    22    25    1
    20    25    26    1
    21    26    27    1
    22    27    28    1
    23    28    29    1
    24    29    30    1
    25    28    31    1
    26    31    32    1
    27    32    33   am
    28    33    34    2
    29    33    35    1
    30    22    23   ar
    31    23    24   ar
    32    11     6   ar
    33    24    19   ar
    34    18    14   ar
    35    30    25    1
    36    35    28    1
    37     5    12    1
    38     5    13    1
    39     1     4    1
    40    32    36    1
@<TRIPOS>MOLECULE
*****
 36 40 0 0 0
SMALL
GASTEIGER

@<TRIPOS>ATOM
      1 N           5.9967   -0.5915   35.1805 N.am    1  UNL1       -0.2794
      2 C           5.6923   -0.2500   33.7520 C.2     1  UNL1        0.2510
      3 O           5.0738    1.0738   33.4128 O.2     1  UNL1       -0.2698
      4 H           6.4026   -1.4603   35.4032 H       1  UNL1        0.1552
      5 N           8.1295    1.2606   36.1909 N.pl3   1  UNL1       -0.3560
      6 C           6.7490    1.3169   36.7750 C.ar    1  UNL1        0.0552
      7 C           6.4349    2.2991   37.8643 C.ar    1  UNL1        0.0154
      8 C           5.0545    2.3553   38.4484 C.ar    1  UNL1        0.0018
      9 C           3.9881    1.4292   37.9432 C.ar    1  UNL1        0.0073
     10 C           4.3021    0.4470   36.8540 C.ar    1  UNL1        0.0164
     11 C           5.6826    0.3908   36.2699 C.ar    1  UNL1        0.0636
     12 H           8.8294    1.8684   36.5224 H       1  UNL1        0.1424
     13 H           8.3356    0.6159   35.4759 H       1  UNL1        0.1424
     14 C           2.6076    1.4855   38.5274 C.ar    1  UNL1        0.0295
     15 C           1.8438    0.3274   39.0978 C.ar    1  UNL1        0.0070
     16 C           0.5127    0.8358   39.5666 C.ar    1  UNL1        0.0075
     17 C           0.4539    2.3082   39.2859 C.ar    1  UNL1        0.0354
     18 S           1.7487    2.7097   38.6437 S.2     1  UNL1       -0.0864
     19 C           6.0064   -1.2323   32.6628 C.ar    1  UNL1        0.0729
     20 C           6.8185   -2.4560   32.9677 C.ar    1  UNL1        0.0090
     21 C           7.1326   -3.4383   31.8785 C.ar    1  UNL1        0.0345
     22 C           6.6346   -3.1969   30.4844 C.ar    1  UNL1        0.1317
     23 N           5.8225   -1.9732   30.1794 N.ar    1  UNL1       -0.2290
     24 C           5.5084   -0.9908   31.2687 C.ar    1  UNL1        0.1048
     25 N           6.9487   -4.1792   29.3951 N.pl3   1  UNL1       -0.2930
     26 C           6.9043   -3.7468   27.9595 C.3     1  UNL1        0.0958
     27 C           7.2184   -4.7292   26.8703 C.3     1  UNL1        0.0634
     28 C           7.5770   -6.1439   27.2168 C.3     1  UNL1        0.1588
     29 C           7.6214   -6.5763   28.6524 C.3     1  UNL1        0.0634
     30 C           7.3073   -5.5939   29.7416 C.3     1  UNL1        0.0958
     31 C           7.9498   -7.5841   27.4090 C.3     1  UNL1        0.1327
     32 N           8.1767   -8.1888   26.0551 N.am    1  UNL1       -0.2671
     33 C           7.9440   -7.1224   25.0262 C.2     1  UNL1        0.4016
     34 O           8.0614   -7.2902   23.5403 O.2     1  UNL1       -0.2264
     35 O           7.5734   -5.8586   25.7441 O.3     1  UNL1       -0.4401
     36 H           8.4333   -9.1218   25.8737 H       1  UNL1        0.1529
@<TRIPOS>BOND
     1     5     6    1
     2     6     7   ar
     3     7     8   ar
     4     8     9   ar
     5     9    14    1
     6    14    15   ar
     7    15    16   ar
     8    16    17   ar
     9    17    18   ar
    10     9    10   ar
    11    10    11   ar
    12    11     1    1
    13     1     2   am
    14     2     3    2
    15     2    19    1
    16    19    20   ar
    17    20    21   ar
    18    21    22   ar
    19    22    25    1
    20    25    26    1
    21    26    27    1
    22    27    28    1
    23    28    29    1
    24    29    30    1
    25    28    31    1
    26    31    32    1
    27    32    33   am
    28    33    34    2
    29    33    35    1
    30    22    23   ar
    31    23    24   ar
    32    11     6   ar
    33    24    19   ar
    34    18    14   ar
    35    30    25    1
    36    35    28    1
    37     5    12    1
    38     5    13    1
    39     1     4    1
    40    32    36    1
@<TRIPOS>MOLECULE
*****
 36 40 0 0 0
SMALL
GASTEIGER

@<TRIPOS>ATOM
      1 N           2.1272   -0.1675   24.2286 N.am    1  UNL1       -0.2794
      2 C           1.7304    1.1285   23.5861 C.2     1  UNL1        0.2510
      3 O           2.5831    1.7210   22.5036 O.2     1  UNL1       -0.2698
      4 H           1.5676   -0.5563   24.9391 H       1  UNL1        0.1552
      5 N           4.4843   -0.3355   26.0768 N.pl3   1  UNL1       -0.3560
      6 C           4.5553   -0.9552   24.7126 C.ar    1  UNL1        0.0552
      7 C           5.8048   -1.6588   24.2726 C.ar    1  UNL1        0.0154
      8 C           5.8757   -2.2783   22.9084 C.ar    1  UNL1        0.0018
      9 C           4.6972   -2.1943   21.9843 C.ar    1  UNL1        0.0073
     10 C           3.4477   -1.4907   22.4243 C.ar    1  UNL1        0.0164
     11 C           3.3768   -0.8712   23.7885 C.ar    1  UNL1        0.0636
     12 H           5.2578   -0.3906   26.6834 H       1  UNL1        0.1424
     13 H           3.6642    0.1263   26.3657 H       1  UNL1        0.1424
     14 C           4.7682   -2.8140   20.6200 C.ar    1  UNL1        0.0295
     15 C           4.3884   -4.2224   20.2705 C.ar    1  UNL1        0.0070
     16 C           4.6170   -4.4128   18.8003 C.ar    1  UNL1        0.0075
     17 C           5.1381   -3.1221   18.2412 C.ar    1  UNL1        0.0354
     18 S           5.2316   -2.1340   19.3658 S.2     1  UNL1       -0.0864
     19 C           0.4809    1.8321   24.0262 C.ar    1  UNL1        0.0729
     20 C          -0.0548    1.6139   25.4102 C.ar    1  UNL1        0.0090
     21 C          -1.3043    2.3175   25.8504 C.ar    1  UNL1        0.0345
     22 C          -2.0181    3.2393   24.9065 C.ar    1  UNL1        0.1317
     23 N          -1.4824    3.4575   23.5226 N.ar    1  UNL1       -0.2290
     24 C          -0.2328    2.7539   23.0824 C.ar    1  UNL1        0.1048
     25 N          -3.2676    3.9429   25.3467 N.pl3   1  UNL1       -0.2930
     26 C          -3.4593    4.2976   26.7915 C.3     1  UNL1        0.0958
     27 C          -4.7088    5.0011   27.2316 C.3     1  UNL1        0.0634
     28 C          -5.7666    5.3500   26.2269 C.3     1  UNL1        0.1588
     29 C          -5.5749    4.9952   24.7822 C.3     1  UNL1        0.0634
     30 C          -4.3254    4.2917   24.3420 C.3     1  UNL1        0.0958
     31 C          -6.9056    5.7608   25.3415 C.3     1  UNL1        0.1327
     32 N          -7.9395    6.4310   26.1971 N.am    1  UNL1       -0.2671
     33 C          -7.4394    6.4344   27.6114 C.2     1  UNL1        0.4016
     34 O          -8.1563    7.0056   28.7986 O.2     1  UNL1       -0.2264
     35 O          -6.0965    5.7663   27.6298 O.3     1  UNL1       -0.4401
     36 H          -8.7959    6.8032   25.8853 H       1  UNL1        0.1529
@<TRIPOS>BOND
     1     5     6    1
     2     6     7   ar
     3     7     8   ar
     4     8     9   ar
     5     9    14    1
     6    14    15   ar
     7    15    16   ar
     8    16    17   ar
     9    17    18   ar
    10     9    10   ar
    11    10    11   ar
    12    11     1    1
    13     1     2   am
    14     2     3    2
    15     2    19    1
    16    19    20   ar
    17    20    21   ar
    18    21    22   ar
    19    22    25    1
    20    25    26    1
    21    26    27    1
    22    27    28    1
    23    28    29    1
    24    29    30    1
    25    28    31    1
    26    31    32    1
    27    32    33   am
    28    33    34    2
    29    33    35    1
    30    22    23   ar
    31    23    24   ar
    32    11     6   ar
    33    24    19   ar
    34    18    14   ar
    35    30    25    1
    36    35    28    1
    37     5    12    1
    38     5    13    1
    39     1     4    1
    40    32    36    1
@<TRIPOS>MOLECULE
*****
 36 40 0 0 0
SMALL
GASTEIGER

@<TRIPOS>ATOM
      1 N           6.3385   -4.3992   27.6573 N.am    1  UNL1       -0.2794
      2 C           7.2410   -3.6275   28.5737 C.2     1  UNL1        0.2510
      3 O           8.7213   -3.6138   28.3320 O.2     1  UNL1       -0.2698
      4 H           5.3670   -4.4082   27.8159 H       1  UNL1        0.1552
      5 N           7.3305   -7.2038   28.0455 N.pl3   1  UNL1       -0.3560
      6 C           7.4124   -6.5597   26.6932 C.ar    1  UNL1        0.0552
      7 C           7.9903   -7.3179   25.5351 C.ar    1  UNL1        0.0154
      8 C           8.0721   -6.6738   24.1829 C.ar    1  UNL1        0.0018
      9 C           7.5761   -5.2715   23.9889 C.ar    1  UNL1        0.0073
     10 C           6.9983   -4.5134   25.1469 C.ar    1  UNL1        0.0164
     11 C           6.9164   -5.1574   26.4991 C.ar    1  UNL1        0.0636
     12 H           7.6561   -8.1241   28.1729 H       1  UNL1        0.1424
     13 H           6.9513   -6.7061   28.8056 H       1  UNL1        0.1424
     14 C           7.6580   -4.6275   22.6366 C.ar    1  UNL1        0.0295
     15 C           6.5604   -3.8654   21.9550 C.ar    1  UNL1        0.0070
     16 C           7.0760   -3.3994   20.6257 C.ar    1  UNL1        0.0075
     17 C           8.4923   -3.8734   20.4857 C.ar    1  UNL1        0.0354
     18 S           8.8520   -4.6324   21.7285 S.2     1  UNL1       -0.0864
     19 C           6.6631   -2.8693   29.7318 C.ar    1  UNL1        0.0729
     20 C           6.5450   -3.5270   31.0748 C.ar    1  UNL1        0.0090
     21 C           5.9671   -2.7688   32.2329 C.ar    1  UNL1        0.0345
     22 C           5.5073   -1.3531   32.0481 C.ar    1  UNL1        0.1317
     23 N           5.6254   -0.6954   30.7051 N.ar    1  UNL1       -0.2290
     24 C           6.2033   -1.4536   29.5469 C.ar    1  UNL1        0.1048
     25 N           4.9294   -0.5949   33.2063 N.pl3   1  UNL1       -0.2930
     26 C           5.2783   -0.9903   34.6105 C.3     1  UNL1        0.0958
     27 C           4.7004   -0.2321   35.7686 C.3     1  UNL1        0.0634
     28 C           3.7736    0.9213   35.5224 C.3     1  UNL1        0.1588
     29 C           3.4247    1.3167   34.1182 C.3     1  UNL1        0.0634
     30 C           4.0026    0.5585   32.9601 C.3     1  UNL1        0.0958
     31 C           2.8380    2.0904   35.4323 C.3     1  UNL1        0.1327
     32 N           2.5160    2.5351   36.8283 N.am    1  UNL1       -0.2671
     33 C           3.2525    1.6409   37.7811 C.2     1  UNL1        0.4016
     34 O           3.2179    1.7286   39.2781 O.2     1  UNL1       -0.2264
     35 O           4.0297    0.6435   36.9741 O.3     1  UNL1       -0.4401
     36 H           1.9250    3.2826   37.0756 H       1  UNL1        0.1529
@<TRIPOS>BOND
     1     5     6    1
     2     6     7   ar
     3     7     8   ar
     4     8     9   ar
     5     9    14    1
     6    14    15   ar
     7    15    16   ar
     8    16    17   ar
     9    17    18   ar
    10     9    10   ar
    11    10    11   ar
    12    11     1    1
    13     1     2   am
    14     2     3    2
    15     2    19    1
    16    19    20   ar
    17    20    21   ar
    18    21    22   ar
    19    22    25    1
    20    25    26    1
    21    26    27    1
    22    27    28    1
    23    28    29    1
    24    29    30    1
    25    28    31    1
    26    31    32    1
    27    32    33   am
    28    33    34    2
    29    33    35    1
    30    22    23   ar
    31    23    24   ar
    32    11     6   ar
    33    24    19   ar
    34    18    14   ar
    35    30    25    1
    36    35    28    1
    37     5    12    1
    38     5    13    1
    39     1     4    1
    40    32    36    1
@<TRIPOS>MOLECULE
*****
 36 40 0 0 0
SMALL
GASTEIGER

@<TRIPOS>ATOM
      1 N           0.7471    0.5059   21.1532 N.am    1  UNL1       -0.2794
      2 C           0.9163    1.8603   21.7753 C.2     1  UNL1        0.2510
      3 O           2.2093    2.6034   21.6144 O.2     1  UNL1       -0.2698
      4 H          -0.1016    0.0182   21.2589 H       1  UNL1        0.1552
      5 N           1.0273    1.0923   18.2245 N.pl3   1  UNL1       -0.3560
      6 C           2.0111    0.1878   18.9057 C.ar    1  UNL1        0.0552
      7 C           3.1349   -0.4235   18.1226 C.ar    1  UNL1        0.0154
      8 C           4.1186   -1.3280   18.8038 C.ar    1  UNL1        0.0018
      9 C           3.9785   -1.6211   20.2682 C.ar    1  UNL1        0.0073
     10 C           2.8547   -1.0099   21.0513 C.ar    1  UNL1        0.0164
     11 C           1.8710   -0.1054   20.3701 C.ar    1  UNL1        0.0636
     12 H           1.1192    1.2848   17.2633 H       1  UNL1        0.1424
     13 H           0.2897    1.4935   18.7385 H       1  UNL1        0.1424
     14 C           4.9624   -2.5257   20.9494 C.ar    1  UNL1        0.0295
     15 C           4.7996   -3.1424   22.3071 C.ar    1  UNL1        0.0070
     16 C           6.0183   -3.9701   22.5893 C.ar    1  UNL1        0.0075
     17 C           6.9343   -3.8650   21.4061 C.ar    1  UNL1        0.0354
     18 S           6.2817   -2.9723   20.3926 S.2     1  UNL1       -0.0864
     19 C          -0.2076    2.4715   22.5584 C.ar    1  UNL1        0.0729
     20 C          -1.3343    3.1565   21.8433 C.ar    1  UNL1        0.0090
     21 C          -2.4582    3.7678   22.6264 C.ar    1  UNL1        0.0345
     22 C          -2.4554    3.6941   24.1246 C.ar    1  UNL1        0.1317
     23 N          -1.3287    3.0091   24.8397 N.ar    1  UNL1       -0.2290
     24 C          -0.2048    2.3978   24.0566 C.ar    1  UNL1        0.1048
     25 N          -3.5793    4.3054   24.9077 N.pl3   1  UNL1       -0.2930
     26 C          -3.5764    4.2320   26.4058 C.3     1  UNL1        0.0958
     27 C          -4.7003    4.8433   27.1888 C.3     1  UNL1        0.0634
     28 C          -5.8271    5.5280   26.4737 C.3     1  UNL1        0.1588
     29 C          -5.8300    5.6014   24.9755 C.3     1  UNL1        0.0634
     30 C          -4.7061    4.9901   24.1925 C.3     1  UNL1        0.0958
     31 C          -7.0154    6.2414   25.9001 C.3     1  UNL1        0.1327
     32 N          -7.8828    6.6876   27.0397 N.am    1  UNL1       -0.2671
     33 C          -7.2305    6.2498   28.3177 C.2     1  UNL1        0.4016
     34 O          -7.7564    6.4871   29.7022 O.2     1  UNL1       -0.2264
     35 O          -5.9601    5.5332   27.9678 O.3     1  UNL1       -0.4401
     36 H          -8.7312    7.1810   26.9625 H       1  UNL1        0.1529
@<TRIPOS>BOND
     1     5     6    1
     2     6     7   ar
     3     7     8   ar
     4     8     9   ar
     5     9    14    1
     6    14    15   ar
     7    15    16   ar
     8    16    17   ar
     9    17    18   ar
    10     9    10   ar
    11    10    11   ar
    12    11     1    1
    13     1     2   am
    14     2     3    2
    15     2    19    1
    16    19    20   ar
    17    20    21   ar
    18    21    22   ar
    19    22    25    1
    20    25    26    1
    21    26    27    1
    22    27    28    1
    23    28    29    1
    24    29    30    1
    25    28    31    1
    26    31    32    1
    27    32    33   am
    28    33    34    2
    29    33    35    1
    30    22    23   ar
    31    23    24   ar
    32    11     6   ar
    33    24    19   ar
    34    18    14   ar
    35    30    25    1
    36    35    28    1
    37     5    12    1
    38     5    13    1
    39     1     4    1
    40    32    36    1
@<TRIPOS>MOLECULE
*****
 36 40 0 0 0
SMALL
GASTEIGER

@<TRIPOS>ATOM
      1 N          -3.3087    3.4245   26.5635 N.am    1  UNL1       -0.2794
      2 C          -1.8273    3.6533   26.5080 C.2     1  UNL1        0.2510
      3 O          -1.2453    4.5458   25.4523 O.2     1  UNL1       -0.2698
      4 H          -3.6907    2.8387   27.2564 H       1  UNL1        0.1552
      5 N          -5.3682    5.4041   27.4799 N.pl3   1  UNL1       -0.3560
      6 C          -5.2379    5.0782   26.0215 C.ar    1  UNL1        0.0552
      7 C          -6.1373    5.7421   25.0214 C.ar    1  UNL1        0.0154
      8 C          -6.0070    5.4161   23.5630 C.ar    1  UNL1        0.0018
      9 C          -4.9772    4.4264   23.1048 C.ar    1  UNL1        0.0073
     10 C          -4.0778    3.7625   24.1050 C.ar    1  UNL1        0.0164
     11 C          -4.2081    4.0884   25.5633 C.ar    1  UNL1        0.0636
     12 H          -6.0441    6.0537   27.7806 H       1  UNL1        0.1424
     13 H          -4.7779    4.9684   28.1363 H       1  UNL1        0.1424
     14 C          -4.8469    4.1005   21.6464 C.ar    1  UNL1        0.0295
     15 C          -5.9760    3.9714   20.6675 C.ar    1  UNL1        0.0070
     16 C          -5.3915    3.6376   19.3270 C.ar    1  UNL1        0.0075
     17 C          -3.9010    3.5603   19.4775 C.ar    1  UNL1        0.0354
     18 S          -3.5645    3.8464   20.9110 S.2     1  UNL1       -0.0864
     19 C          -0.9280    2.9894   27.5082 C.ar    1  UNL1        0.0729
     20 C          -1.0218    1.5096   27.7352 C.ar    1  UNL1        0.0090
     21 C          -0.1225    0.8457   28.7354 C.ar    1  UNL1        0.0345
     22 C           0.8707    1.6616   29.5086 C.ar    1  UNL1        0.1317
     23 N           0.9646    3.1413   29.2816 N.ar    1  UNL1       -0.2290
     24 C           0.0653    3.8053   28.2814 C.ar    1  UNL1        0.1048
     25 N           1.7701    0.9977   30.5088 N.pl3   1  UNL1       -0.2930
     26 C           2.0675    1.6732   31.8146 C.3     1  UNL1        0.0958
     27 C           2.9669    1.0093   32.8147 C.3     1  UNL1        0.0634
     28 C           3.5688   -0.3302   32.5091 C.3     1  UNL1        0.1588
     29 C           3.2714   -1.0058   31.2033 C.3     1  UNL1        0.0634
     30 C           2.3720   -0.3418   30.2032 C.3     1  UNL1        0.0958
     31 C           4.2396   -1.6617   32.3443 C.3     1  UNL1        0.1327
     32 N           5.0407   -1.9337   33.5831 N.am    1  UNL1       -0.2671
     33 C           4.8649   -0.7702   34.5135 C.2     1  UNL1        0.4016
     34 O           5.4891   -0.6235   35.8694 O.2     1  UNL1       -0.2264
     35 O           3.9552    0.2207   33.8498 O.3     1  UNL1       -0.4401
     36 H           5.5861   -2.7350   33.7553 H       1  UNL1        0.1529
@<TRIPOS>BOND
     1     5     6    1
     2     6     7   ar
     3     7     8   ar
     4     8     9   ar
     5     9    14    1
     6    14    15   ar
     7    15    16   ar
     8    16    17   ar
     9    17    18   ar
    10     9    10   ar
    11    10    11   ar
    12    11     1    1
    13     1     2   am
    14     2     3    2
    15     2    19    1
    16    19    20   ar
    17    20    21   ar
    18    21    22   ar
    19    22    25    1
    20    25    26    1
    21    26    27    1
    22    27    28    1
    23    28    29    1
    24    29    30    1
    25    28    31    1
    26    31    32    1
    27    32    33   am
    28    33    34    2
    29    33    35    1
    30    22    23   ar
    31    23    24   ar
    32    11     6   ar
    33    24    19   ar
    34    18    14   ar
    35    30    25    1
    36    35    28    1
    37     5    12    1
    38     5    13    1
    39     1     4    1
    40    32    36    1
@<TRIPOS>MOLECULE
*****
 36 40 0 0 0
SMALL
GASTEIGER

@<TRIPOS>ATOM
      1 N           1.1928    1.7566   20.5345 N.am    1  UNL1       -0.2794
      2 C           0.0750    2.3867   19.7577 C.2     1  UNL1        0.2510
      3 O           0.1707    2.5021   18.2653 O.2     1  UNL1       -0.2698
      4 H           1.1300    1.6809   21.5140 H       1  UNL1        0.1552
      5 N           3.0933    3.6778   19.2318 N.pl3   1  UNL1       -0.3560
      6 C           3.3567    2.2025   19.1674 C.ar    1  UNL1        0.0552
      7 C           4.5703    1.6879   18.4517 C.ar    1  UNL1        0.0154
      8 C           4.8336    0.2126   18.3873 C.ar    1  UNL1        0.0018
      9 C           3.8834   -0.7480   19.0386 C.ar    1  UNL1        0.0073
     10 C           2.6698   -0.2334   19.7543 C.ar    1  UNL1        0.0164
     11 C           2.4065    1.2419   19.8187 C.ar    1  UNL1        0.0636
     12 H           3.7170    4.3084   18.8044 H       1  UNL1        0.1424
     13 H           2.2968    4.0156   19.7016 H       1  UNL1        0.1424
     14 C           4.1468   -2.2234   18.9741 C.ar    1  UNL1        0.0295
     15 C           3.1844   -3.3084   19.3569 C.ar    1  UNL1        0.0070
     16 C           3.8616   -4.6282   19.1350 C.ar    1  UNL1        0.0075
     17 C           5.2426   -4.3590   18.6150 C.ar    1  UNL1        0.0354
     18 S           5.4188   -2.8727   18.5156 S.2     1  UNL1       -0.0864
     19 C          -1.1386    2.9013   20.4735 C.ar    1  UNL1        0.0729
     20 C          -2.3756    3.2478   19.6989 C.ar    1  UNL1        0.0090
     21 C          -3.5891    3.7625   20.4147 C.ar    1  UNL1        0.0345
     22 C          -3.5658    3.9307   21.9050 C.ar    1  UNL1        0.1317
     23 N          -2.3289    3.5843   22.6796 N.ar    1  UNL1       -0.2290
     24 C          -1.1152    3.0696   21.9639 C.ar    1  UNL1        0.1048
     25 N          -4.7794    4.4454   22.6208 N.pl3   1  UNL1       -0.2930
     26 C          -6.1405    3.9342   22.2523 C.3     1  UNL1        0.0958
     27 C          -7.3541    4.4489   22.9680 C.3     1  UNL1        0.0634
     28 C          -7.2065    5.4749   24.0523 C.3     1  UNL1        0.1588
     29 C          -5.8453    5.9861   24.4208 C.3     1  UNL1        0.0634
     30 C          -4.6318    5.4714   23.7051 C.3     1  UNL1        0.0958
     31 C          -7.2151    6.4954   25.1516 C.3     1  UNL1        0.1327
     32 N          -8.6385    6.7107   25.5731 N.am    1  UNL1       -0.2671
     33 C          -9.5096    5.8232   24.7343 C.2     1  UNL1        0.4016
     34 O         -11.0034    5.7179   24.8203 O.2     1  UNL1       -0.2264
     35 O          -8.6246    5.0594   23.7944 O.3     1  UNL1       -0.4401
     36 H          -8.9469    7.3264   26.2768 H       1  UNL1        0.1529
@<TRIPOS>BOND
     1     5     6    1
     2     6     7   ar
     3     7     8   ar
     4     8     9   ar
     5     9    14    1
     6    14    15   ar
     7    15    16   ar
     8    16    17   ar
     9    17    18   ar
    10     9    10   ar
    11    10    11   ar
    12    11     1    1
    13     1     2   am
    14     2     3    2
    15     2    19    1
    16    19    20   ar
    17    20    21   ar
    18    21    22   ar
    19    22    25    1
    20    25    26    1
    21    26    27    1
    22    27    28    1
    23    28    29    1
    24    29    30    1
    25    28    31    1
    26    31    32    1
    27    32    33   am
    28    33    34    2
    29    33    35    1
    30    22    23   ar
    31    23    24   ar
    32    11     6   ar
    33    24    19   ar
    34    18    14   ar
    35    30    25    1
    36    35    28    1
    37     5    12    1
    38     5    13    1
    39     1     4    1
    40    32    36    1
@<TRIPOS>MOLECULE
*****
 36 40 0 0 0
SMALL
GASTEIGER

@<TRIPOS>ATOM
      1 N          -3.5518    2.8780   23.9593 N.am    1  UNL1       -0.2794
      2 C          -2.2992    3.5871   24.3812 C.2     1  UNL1        0.2510
      3 O          -1.8700    4.8373   23.6720 O.2     1  UNL1       -0.2698
      4 H          -3.8335    2.0574   24.4247 H       1  UNL1        0.1552
      5 N          -6.2908    3.9801   24.4913 N.pl3   1  UNL1       -0.3560
      6 C          -5.7447    3.9701   23.0942 C.ar    1  UNL1        0.0552
      7 C          -6.5682    4.5110   21.9632 C.ar    1  UNL1        0.0154
      8 C          -6.0221    4.5009   20.5662 C.ar    1  UNL1        0.0018
      9 C          -4.6526    3.9498   20.3002 C.ar    1  UNL1        0.0073
     10 C          -3.8292    3.4089   21.4312 C.ar    1  UNL1        0.0164
     11 C          -4.3752    3.4190   22.8282 C.ar    1  UNL1        0.0636
     12 H          -7.1896    4.3418   24.6659 H       1  UNL1        0.1424
     13 H          -5.7503    3.6251   25.2336 H       1  UNL1        0.1424
     14 C          -4.1066    3.9398   18.9031 C.ar    1  UNL1        0.0295
     15 C          -4.8763    3.6123   17.6580 C.ar    1  UNL1        0.0070
     16 C          -3.9404    3.7255   16.4912 C.ar    1  UNL1        0.0075
     17 C          -2.5922    4.1230   17.0153 C.ar    1  UNL1        0.0354
     18 S          -2.6950    4.2554   18.5059 S.2     1  UNL1       -0.0864
     19 C          -1.4758    3.0461   25.5122 C.ar    1  UNL1        0.0729
     20 C          -0.5943    1.8521   25.2941 C.ar    1  UNL1        0.0090
     21 C           0.2291    1.3111   26.4251 C.ar    1  UNL1        0.0345
     22 C           0.1710    1.9640   27.7743 C.ar    1  UNL1        0.1317
     23 N          -0.7104    3.1579   27.9925 N.ar    1  UNL1       -0.2290
     24 C          -1.5338    3.6990   26.8614 C.ar    1  UNL1        0.1048
     25 N           0.9945    1.4229   28.9054 N.pl3   1  UNL1       -0.2930
     26 C           1.3291   -0.0383   28.9575 C.3     1  UNL1        0.0958
     27 C           2.1525   -0.5793   30.0885 C.3     1  UNL1        0.0634
     28 C           2.6413    0.3409   31.1674 C.3     1  UNL1        0.1588
     29 C           2.3067    1.8022   31.1154 C.3     1  UNL1        0.0634
     30 C           1.4833    2.3432   29.9844 C.3     1  UNL1        0.0958
     31 C           3.1974    1.1353   32.3119 C.3     1  UNL1        0.1327
     32 N           3.9530    0.1958   33.2045 N.am    1  UNL1       -0.2671
     33 C           3.8639   -1.1792   32.6115 C.2     1  UNL1        0.4016
     34 O           4.4777   -2.4250   33.1780 O.2     1  UNL1       -0.2264
     35 O           3.0533   -1.0895   31.3526 O.3     1  UNL1       -0.4401
     36 H           4.4246    0.4390   34.0337 H       1  UNL1        0.1529
@<TRIPOS>BOND
     1     5     6    1
     2     6     7   ar
     3     7     8   ar
     4     8     9   ar
     5     9    14    1
     6    14    15   ar
     7    15    16   ar
     8    16    17   ar
     9    17    18   ar
    10     9    10   ar
    11    10    11   ar
    12    11     1    1
    13     1     2   am
    14     2     3    2
    15     2    19    1
    16    19    20   ar
    17    20    21   ar
    18    21    22   ar
    19    22    25    1
    20    25    26    1
    21    26    27    1
    22    27    28    1
    23    28    29    1
    24    29    30    1
    25    28    31    1
    26    31    32    1
    27    32    33   am
    28    33    34    2
    29    33    35    1
    30    22    23   ar
    31    23    24   ar
    32    11     6   ar
    33    24    19   ar
    34    18    14   ar
    35    30    25    1
    36    35    28    1
    37     5    12    1
    38     5    13    1
    39     1     4    1
    40    32    36    1
@<TRIPOS>MOLECULE
*****
 36 40 0 0 0
SMALL
GASTEIGER

@<TRIPOS>ATOM
      1 N           4.9006    0.3866   32.4869 N.am    1  UNL1       -0.2794
      2 C           4.2098   -0.7615   31.8126 C.2     1  UNL1        0.2510
      3 O           3.6934   -1.9096   32.6282 O.2     1  UNL1       -0.2698
      4 H           5.2395    1.1401   31.9516 H       1  UNL1        0.1552
      5 N           7.3265   -0.8831   33.7129 N.pl3   1  UNL1       -0.3560
      6 C           6.2880   -0.2483   34.5897 C.ar    1  UNL1        0.0552
      7 C           6.4626   -0.2483   36.0795 C.ar    1  UNL1        0.0154
      8 C           5.4242    0.3864   36.9563 C.ar    1  UNL1        0.0018
      9 C           4.2113    1.0213   36.3433 C.ar    1  UNL1        0.0073
     10 C           4.0367    1.0213   34.8535 C.ar    1  UNL1        0.0164
     11 C           5.0751    0.3866   33.9767 C.ar    1  UNL1        0.0636
     12 H           8.1225   -1.2998   34.1152 H       1  UNL1        0.1424
     13 H           7.2119   -0.8830   32.7351 H       1  UNL1        0.1424
     14 C           3.1728    1.6561   37.2201 C.ar    1  UNL1        0.0295
     15 C           2.5340    1.0308   38.4246 C.ar    1  UNL1        0.0070
     16 C           1.5573    2.0159   38.9953 C.ar    1  UNL1        0.0075
     17 C           1.5925    3.2501   38.1434 C.ar    1  UNL1        0.0354
     18 S           2.5910    3.0277   37.0463 S.2     1  UNL1       -0.0864
     19 C           4.0353   -0.7614   30.3228 C.ar    1  UNL1        0.0729
     20 C           5.2230   -0.9606   29.4286 C.ar    1  UNL1        0.0090
     21 C           5.0486   -0.9605   27.9388 C.ar    1  UNL1        0.0345
     22 C           3.6864   -0.7612   27.3432 C.ar    1  UNL1        0.1317
     23 N           2.4987   -0.5620   28.2374 N.ar    1  UNL1       -0.2290
     24 C           2.6731   -0.5621   29.7272 C.ar    1  UNL1        0.1048
     25 N           3.5120   -0.7612   25.8533 N.pl3   1  UNL1       -0.2930
     26 C           4.2675   -1.7447   25.0097 C.3     1  UNL1        0.0958
     27 C           4.0930   -1.7446   23.5199 C.3     1  UNL1        0.0634
     28 C           3.1631   -0.7609   22.8737 C.3     1  UNL1        0.1588
     29 C           2.4075    0.2226   23.7173 C.3     1  UNL1        0.0634
     30 C           2.5820    0.2225   25.2071 C.3     1  UNL1        0.0958
     31 C           2.2732    0.1580   22.0903 C.3     1  UNL1        0.1327
     32 N           2.4080   -0.1929   20.6380 N.am    1  UNL1       -0.2671
     33 C           3.3812   -1.3287   20.5240 C.2     1  UNL1        0.4016
     34 O           3.8121   -1.9962   19.2518 O.2     1  UNL1       -0.2264
     35 O           3.8478   -1.6798   21.9057 O.3     1  UNL1       -0.4401
     36 H           1.9400    0.2453   19.8909 H       1  UNL1        0.1529
@<TRIPOS>BOND
     1     5     6    1
     2     6     7   ar
     3     7     8   ar
     4     8     9   ar
     5     9    14    1
     6    14    15   ar
     7    15    16   ar
     8    16    17   ar
     9    17    18   ar
    10     9    10   ar
    11    10    11   ar
    12    11     1    1
    13     1     2   am
    14     2     3    2
    15     2    19    1
    16    19    20   ar
    17    20    21   ar
    18    21    22   ar
    19    22    25    1
    20    25    26    1
    21    26    27    1
    22    27    28    1
    23    28    29    1
    24    29    30    1
    25    28    31    1
    26    31    32    1
    27    32    33   am
    28    33    34    2
    29    33    35    1
    30    22    23   ar
    31    23    24   ar
    32    11     6   ar
    33    24    19   ar
    34    18    14   ar
    35    30    25    1
    36    35    28    1
    37     5    12    1
    38     5    13    1
    39     1     4    1
    40    32    36    1
