@<TRIPOS>MOLECULE
*****
 34 37 0 0 0
SMALL
GASTEIGER

@<TRIPOS>ATOM
      1 C          -9.7201  -17.5669   21.3551 C.3     1  UNL1        0.1379
      2 C          -8.2373  -15.9754   26.9469 C.3     1  UNL1        0.0310
      3 C          -8.6080  -16.3732   25.5489 C.ar    1  UNL1       -0.0219
      4 C          -8.2917  -15.4613   24.4008 C.ar    1  UNL1       -0.0045
      5 C          -8.6625  -15.8592   23.0028 C.ar    1  UNL1       -0.0029
      6 C          -9.3494  -17.1690   22.7530 C.ar    1  UNL1       -0.0007
      7 C          -9.6657  -18.0810   23.9012 C.ar    1  UNL1       -0.0029
      8 C          -9.2950  -17.6831   25.2992 C.ar    1  UNL1       -0.0045
      9 C         -10.8032  -16.8275   20.6271 C.ar    1  UNL1        0.1791
     10 N         -10.6507  -16.0961   19.3264 N.ar    1  UNL1       -0.1110
     11 N         -11.9822  -15.5061   18.9673 N.ar    1  UNL1       -0.0229
     12 N         -12.9577  -15.8729   20.0462 N.ar    1  UNL1       -0.0432
     13 N         -12.2291  -16.6895   21.0719 N.ar    1  UNL1       -0.2192
     14 C         -12.8221  -17.2668   22.3229 C.3     1  UNL1        0.0896
     15 C         -12.6403  -15.9497   23.0171 C.3     1  UNL1        0.0245
     16 C         -13.0813  -18.4152   22.0226 C.3     1  UNL1        0.0245
     17 C         -13.4152  -17.8442   23.5738 C.3     1  UNL1        0.0245
     18 N          -9.0077  -18.7044   20.6851 N.3     1  UNL1       -0.2876
     19 H          -9.1611  -18.5982   19.6824 H       1  UNL1        0.1239
     20 C          -7.5313  -18.8838   20.8807 C.3     1  UNL1        0.0905
     21 C          -7.0226  -19.8911   21.8688 C.3     1  UNL1        0.1044
     22 N          -5.5774  -19.8841   22.2704 N.pl3   1  UNL1       -0.3315
     23 H          -5.0988  -20.7344   22.4014 H       1  UNL1        0.1469
     24 C          -4.8614  -18.5816   22.4724 C.ar    1  UNL1        0.0477
     25 C          -5.4475  -17.5354   23.3734 C.ar    1  UNL1        0.0350
     26 C          -4.7315  -16.2329   23.5754 C.ar    1  UNL1        0.1001
     27 N          -3.4294  -15.9766   22.8763 N.ar    1  UNL1       -0.2437
     28 C          -2.8432  -17.0228   21.9753 C.ar    1  UNL1        0.0833
     29 C          -1.5411  -16.7665   21.2762 C.ar    1  UNL1        0.0305
     30 C          -0.9549  -17.8127   20.3752 C.ar    1  UNL1        0.0592
     31 CL          0.3472  -17.5564   19.6761 Cl      1  UNL1       -0.0822
     32 C          -1.6709  -19.1153   20.1732 C.ar    1  UNL1        0.0115
     33 C          -2.9731  -19.3716   20.8723 C.ar    1  UNL1        0.0036
     34 C          -3.5592  -18.3253   21.7733 C.ar    1  UNL1        0.0309
@<TRIPOS>BOND
     1     2     3    1
     2     3     4   ar
     3     4     5   ar
     4     5     6   ar
     5     6     1    1
     6     1    18    1
     7    18    20    1
     8    20    21    1
     9    21    22    1
    10    22    24    1
    11    24    25   ar
    12    25    26   ar
    13    26    27   ar
    14    27    28   ar
    15    28    29   ar
    16    29    30   ar
    17    30    31    1
    18    30    32   ar
    19    32    33   ar
    20    33    34   ar
    21     1     9    1
    22     9    10   ar
    23    10    11   ar
    24    11    12   ar
    25    12    13   ar
    26    13    14    1
    27    14    15    1
    28    14    16    1
    29    14    17    1
    30     6     7   ar
    31     7     8   ar
    32     8     3   ar
    33    34    24   ar
    34    13     9   ar
    35    34    28   ar
    36    18    19    1
    37    22    23    1
@<TRIPOS>MOLECULE
*****
 34 37 0 0 0
SMALL
GASTEIGER

@<TRIPOS>ATOM
      1 C         -10.3844  -18.6013   24.1057 C.3     1  UNL1        0.1379
      2 C          -7.0490  -14.7832   27.3148 C.3     1  UNL1        0.0310
      3 C          -7.8829  -15.7377   26.5125 C.ar    1  UNL1       -0.0219
      4 C          -8.4621  -16.9582   27.1643 C.ar    1  UNL1       -0.0045
      5 C          -9.2959  -17.9127   26.3620 C.ar    1  UNL1       -0.0029
      6 C          -9.5505  -17.6468   24.9079 C.ar    1  UNL1       -0.0007
      7 C          -8.9713  -16.4262   24.2561 C.ar    1  UNL1       -0.0029
      8 C          -8.1374  -15.4717   25.0583 C.ar    1  UNL1       -0.0045
      9 C         -11.8638  -18.3856   23.9844 C.ar    1  UNL1        0.1791
     10 N         -12.8884  -18.6899   25.0368 N.ar    1  UNL1       -0.1110
     11 N         -14.2362  -18.3201   24.4923 N.ar    1  UNL1       -0.0229
     12 N         -14.0446  -17.7872   23.1032 N.ar    1  UNL1       -0.0432
     13 N         -12.5784  -17.8277   22.7894 N.ar    1  UNL1       -0.2192
     14 C         -11.9390  -17.3876   21.5058 C.3     1  UNL1        0.0896
     15 C         -11.8820  -15.9786   22.0172 C.3     1  UNL1        0.0245
     16 C         -11.8585  -18.4087   20.8522 C.3     1  UNL1        0.0245
     17 C         -11.2997  -16.9476   20.2223 C.3     1  UNL1        0.0245
     18 N          -9.7387  -19.7715   23.4247 N.3     1  UNL1       -0.2876
     19 H         -10.4879  -20.3071   22.9862 H       1  UNL1        0.1239
     20 C          -8.6952  -19.5442   22.3714 C.3     1  UNL1        0.0905
     21 C          -7.3438  -20.1813   22.5047 C.3     1  UNL1        0.1044
     22 N          -6.2112  -19.7272   21.6323 N.pl3   1  UNL1       -0.3315
     23 H          -6.0653  -20.1500   20.7553 H       1  UNL1        0.1469
     24 C          -5.3010  -18.6288   22.0961 C.ar    1  UNL1        0.0477
     25 C          -5.7484  -17.6904   23.1774 C.ar    1  UNL1        0.0350
     26 C          -4.8381  -16.5921   23.6412 C.ar    1  UNL1        0.1001
     27 N          -3.4805  -16.4322   23.0238 N.ar    1  UNL1       -0.2437
     28 C          -3.0331  -17.3706   21.9425 C.ar    1  UNL1        0.0833
     29 C          -1.6755  -17.2107   21.3250 C.ar    1  UNL1        0.0305
     30 C          -1.2280  -18.1491   20.2438 C.ar    1  UNL1        0.0592
     31 CL          0.1296  -17.9892   19.6263 Cl      1  UNL1       -0.0822
     32 C          -2.1383  -19.2475   19.7799 C.ar    1  UNL1        0.0115
     33 C          -3.4959  -19.4074   20.3974 C.ar    1  UNL1        0.0036
     34 C          -3.9433  -18.4689   21.4787 C.ar    1  UNL1        0.0309
@<TRIPOS>BOND
     1     2     3    1
     2     3     4   ar
     3     4     5   ar
     4     5     6   ar
     5     6     1    1
     6     1    18    1
     7    18    20    1
     8    20    21    1
     9    21    22    1
    10    22    24    1
    11    24    25   ar
    12    25    26   ar
    13    26    27   ar
    14    27    28   ar
    15    28    29   ar
    16    29    30   ar
    17    30    31    1
    18    30    32   ar
    19    32    33   ar
    20    33    34   ar
    21     1     9    1
    22     9    10   ar
    23    10    11   ar
    24    11    12   ar
    25    12    13   ar
    26    13    14    1
    27    14    15    1
    28    14    16    1
    29    14    17    1
    30     6     7   ar
    31     7     8   ar
    32     8     3   ar
    33    34    24   ar
    34    13     9   ar
    35    34    28   ar
    36    18    19    1
    37    22    23    1
@<TRIPOS>MOLECULE
*****
 34 37 0 0 0
SMALL
GASTEIGER

@<TRIPOS>ATOM
      1 C          -9.0229  -17.0605   24.0914 C.3     1  UNL1        0.1379
      2 C         -12.8505  -15.8183   19.6409 C.3     1  UNL1        0.0310
      3 C         -11.8936  -16.1289   20.7535 C.ar    1  UNL1       -0.0219
      4 C         -10.4259  -15.8777   20.5725 C.ar    1  UNL1       -0.0045
      5 C          -9.4690  -16.1883   21.6851 C.ar    1  UNL1       -0.0029
      6 C          -9.9798  -16.7499   22.9787 C.ar    1  UNL1       -0.0007
      7 C         -11.4475  -17.0011   23.1598 C.ar    1  UNL1       -0.0029
      8 C         -12.4044  -16.6905   22.0472 C.ar    1  UNL1       -0.0045
      9 C          -7.6655  -16.4225   24.1132 C.ar    1  UNL1        0.1791
     10 N          -6.6522  -16.4677   23.0080 N.ar    1  UNL1       -0.1110
     11 N          -5.4436  -15.7005   23.4558 N.ar    1  UNL1       -0.0229
     12 N          -5.7098  -15.1812   24.8376 N.ar    1  UNL1       -0.0432
     13 N          -7.0831  -15.6274   25.2439 N.ar    1  UNL1       -0.2192
     14 C          -7.7557  -15.3307   26.5513 C.3     1  UNL1        0.0896
     15 C          -6.5207  -15.7627   27.2849 C.3     1  UNL1        0.0245
     16 C          -8.8583  -14.9330   26.2311 C.3     1  UNL1        0.0245
     17 C          -8.4285  -15.0339   27.8587 C.3     1  UNL1        0.0245
     18 N          -9.4235  -18.0090   25.1822 N.3     1  UNL1       -0.2876
     19 H          -9.7303  -17.4387   25.9703 H       1  UNL1        0.1239
     20 C         -10.5010  -19.0231   24.9361 C.3     1  UNL1        0.0905
     21 C         -10.1658  -20.3290   24.2787 C.3     1  UNL1        0.1044
     22 N          -8.8719  -20.4845   23.5359 N.pl3   1  UNL1       -0.3315
     23 H          -8.0905  -20.8798   23.9858 H       1  UNL1        0.1469
     24 C          -8.7687  -20.0377   22.1077 C.ar    1  UNL1        0.0477
     25 C         -10.0104  -19.8653   21.2842 C.ar    1  UNL1        0.0350
     26 C          -9.9071  -19.4185   19.8560 C.ar    1  UNL1        0.1001
     27 N          -8.5620  -19.1441   19.2514 N.ar    1  UNL1       -0.2437
     28 C          -7.3203  -19.3165   20.0749 C.ar    1  UNL1        0.0833
     29 C          -5.9752  -19.0422   19.4703 C.ar    1  UNL1        0.0305
     30 C          -4.7335  -19.2146   20.2939 C.ar    1  UNL1        0.0592
     31 CL         -3.3884  -18.9402   19.6893 Cl      1  UNL1       -0.0822
     32 C          -4.8367  -19.6614   21.7221 C.ar    1  UNL1        0.0115
     33 C          -6.1818  -19.9357   22.3267 C.ar    1  UNL1        0.0036
     34 C          -7.4236  -19.7633   21.5031 C.ar    1  UNL1        0.0309
@<TRIPOS>BOND
     1     2     3    1
     2     3     4   ar
     3     4     5   ar
     4     5     6   ar
     5     6     1    1
     6     1    18    1
     7    18    20    1
     8    20    21    1
     9    21    22    1
    10    22    24    1
    11    24    25   ar
    12    25    26   ar
    13    26    27   ar
    14    27    28   ar
    15    28    29   ar
    16    29    30   ar
    17    30    31    1
    18    30    32   ar
    19    32    33   ar
    20    33    34   ar
    21     1     9    1
    22     9    10   ar
    23    10    11   ar
    24    11    12   ar
    25    12    13   ar
    26    13    14    1
    27    14    15    1
    28    14    16    1
    29    14    17    1
    30     6     7   ar
    31     7     8   ar
    32     8     3   ar
    33    34    24   ar
    34    13     9   ar
    35    34    28   ar
    36    18    19    1
    37    22    23    1
@<TRIPOS>MOLECULE
*****
 34 37 0 0 0
SMALL
GASTEIGER

@<TRIPOS>ATOM
      1 C          -5.0426  -17.7321   22.8261 C.3     1  UNL1        0.1379
      2 C           0.3089  -17.5826   20.1169 C.3     1  UNL1        0.0310
      3 C          -1.0290  -17.6200   20.7942 C.ar    1  UNL1       -0.0219
      4 C          -1.7717  -18.9174   20.9165 C.ar    1  UNL1       -0.0045
      5 C          -3.1096  -18.9548   21.5938 C.ar    1  UNL1       -0.0029
      6 C          -3.7047  -17.6948   22.1488 C.ar    1  UNL1       -0.0007
      7 C          -2.9620  -16.3973   22.0265 C.ar    1  UNL1       -0.0029
      8 C          -1.6241  -16.3599   21.3492 C.ar    1  UNL1       -0.0045
      9 C          -5.3280  -16.8101   23.9743 C.ar    1  UNL1        0.1791
     10 N          -4.4350  -16.5701   25.1554 N.ar    1  UNL1       -0.1110
     11 N          -5.1116  -15.5778   26.0540 N.ar    1  UNL1       -0.0229
     12 N          -6.4228  -15.2045   25.4282 N.ar    1  UNL1       -0.0432
     13 N          -6.5565  -15.9661   24.1429 N.ar    1  UNL1       -0.2192
     14 C          -7.7152  -15.8959   23.1930 C.3     1  UNL1        0.0896
     15 C          -8.4948  -16.8254   24.0752 C.3     1  UNL1        0.0245
     16 C          -7.3297  -15.1517   22.3134 C.3     1  UNL1        0.0245
     17 C          -8.8739  -15.8257   22.2431 C.3     1  UNL1        0.0245
     18 N          -6.0951  -18.6916   22.3552 N.3     1  UNL1       -0.2876
     19 H          -6.9127  -18.5457   22.9473 H       1  UNL1        0.1239
     20 C          -6.5745  -18.6411   20.9348 C.3     1  UNL1        0.0905
     21 C          -7.7026  -19.5250   20.4920 C.3     1  UNL1        0.1044
     22 N          -8.8968  -19.7179   21.3790 N.pl3   1  UNL1       -0.3315
     23 H          -8.8743  -20.3934   22.0949 H       1  UNL1        0.1469
     24 C         -10.1253  -18.8815   21.1753 C.ar    1  UNL1        0.0477
     25 C         -10.3470  -18.1805   19.8679 C.ar    1  UNL1        0.0350
     26 C         -11.5754  -17.3441   19.6643 C.ar    1  UNL1        0.1001
     27 N         -12.5821  -17.2088   20.7680 N.ar    1  UNL1       -0.2437
     28 C         -12.3603  -17.9098   22.0754 C.ar    1  UNL1        0.0833
     29 C         -13.3670  -17.7745   23.1792 C.ar    1  UNL1        0.0305
     30 C         -13.1453  -18.4755   24.4866 C.ar    1  UNL1        0.0592
     31 CL        -14.1520  -18.3402   25.5904 Cl      1  UNL1       -0.0822
     32 C         -11.9168  -19.3119   24.6903 C.ar    1  UNL1        0.0115
     33 C         -10.9101  -19.4472   23.5865 C.ar    1  UNL1        0.0036
     34 C         -11.1319  -18.7462   22.2791 C.ar    1  UNL1        0.0309
@<TRIPOS>BOND
     1     2     3    1
     2     3     4   ar
     3     4     5   ar
     4     5     6   ar
     5     6     1    1
     6     1    18    1
     7    18    20    1
     8    20    21    1
     9    21    22    1
    10    22    24    1
    11    24    25   ar
    12    25    26   ar
    13    26    27   ar
    14    27    28   ar
    15    28    29   ar
    16    29    30   ar
    17    30    31    1
    18    30    32   ar
    19    32    33   ar
    20    33    34   ar
    21     1     9    1
    22     9    10   ar
    23    10    11   ar
    24    11    12   ar
    25    12    13   ar
    26    13    14    1
    27    14    15    1
    28    14    16    1
    29    14    17    1
    30     6     7   ar
    31     7     8   ar
    32     8     3   ar
    33    34    24   ar
    34    13     9   ar
    35    34    28   ar
    36    18    19    1
    37    22    23    1
@<TRIPOS>MOLECULE
*****
 34 37 0 0 0
SMALL
GASTEIGER

@<TRIPOS>ATOM
      1 C          -4.7214  -17.7612   22.7943 C.3     1  UNL1        0.1379
      2 C          -6.9015  -14.5878   27.3961 C.3     1  UNL1        0.0310
      3 C          -6.3565  -15.3812   26.2457 C.ar    1  UNL1       -0.0219
      4 C          -7.0940  -15.4123   24.9399 C.ar    1  UNL1       -0.0045
      5 C          -6.5489  -16.2056   23.7894 C.ar    1  UNL1       -0.0029
      6 C          -5.2664  -16.9678   23.9447 C.ar    1  UNL1       -0.0007
      7 C          -4.5288  -16.9367   25.2506 C.ar    1  UNL1       -0.0029
      8 C          -5.0739  -16.1434   26.4010 C.ar    1  UNL1       -0.0045
      9 C          -3.5191  -17.2674   22.0455 C.ar    1  UNL1        0.1791
     10 N          -2.7732  -15.9945   22.3163 N.ar    1  UNL1       -0.1110
     11 N          -1.6448  -15.9002   21.3325 N.ar    1  UNL1       -0.0229
     12 N          -1.6933  -17.1149   20.4537 N.ar    1  UNL1       -0.0432
     13 N          -2.8517  -17.9598   20.8944 N.ar    1  UNL1       -0.2192
     14 C          -3.2693  -19.2676   20.2900 C.3     1  UNL1        0.0896
     15 C          -2.3672  -19.9957   21.2418 C.3     1  UNL1        0.0245
     16 C          -4.0602  -18.9517   19.4234 C.3     1  UNL1        0.0245
     17 C          -3.6870  -20.5753   19.6855 C.3     1  UNL1        0.0245
     18 N          -5.3786  -19.0483   22.3926 N.3     1  UNL1       -0.2876
     19 H          -5.0293  -19.7675   23.0260 H       1  UNL1        0.1239
     20 C          -6.8745  -19.1591   22.3946 C.3     1  UNL1        0.0905
     21 C          -7.6633  -18.6845   21.2103 C.3     1  UNL1        0.1044
     22 N          -8.9947  -19.3017   20.8997 N.pl3   1  UNL1       -0.3315
     23 H          -9.0573  -20.2645   20.7043 H       1  UNL1        0.1469
     24 C         -10.2306  -18.4517   20.8868 C.ar    1  UNL1        0.0477
     25 C         -10.5368  -17.5913   19.6970 C.ar    1  UNL1        0.0350
     26 C         -11.7727  -16.7415   19.6841 C.ar    1  UNL1        0.1001
     27 N         -12.7025  -16.7521   20.8612 N.ar    1  UNL1       -0.2437
     28 C         -12.3963  -17.6125   22.0511 C.ar    1  UNL1        0.0833
     29 C         -13.3261  -17.6231   23.2281 C.ar    1  UNL1        0.0305
     30 C         -13.0199  -18.4835   24.4180 C.ar    1  UNL1        0.0592
     31 CL        -13.9496  -18.4941   25.5951 Cl      1  UNL1       -0.0822
     32 C         -11.7839  -19.3334   24.4309 C.ar    1  UNL1        0.0115
     33 C         -10.8542  -19.3228   23.2538 C.ar    1  UNL1        0.0036
     34 C         -11.1604  -18.4623   22.0639 C.ar    1  UNL1        0.0309
@<TRIPOS>BOND
     1     2     3    1
     2     3     4   ar
     3     4     5   ar
     4     5     6   ar
     5     6     1    1
     6     1    18    1
     7    18    20    1
     8    20    21    1
     9    21    22    1
    10    22    24    1
    11    24    25   ar
    12    25    26   ar
    13    26    27   ar
    14    27    28   ar
    15    28    29   ar
    16    29    30   ar
    17    30    31    1
    18    30    32   ar
    19    32    33   ar
    20    33    34   ar
    21     1     9    1
    22     9    10   ar
    23    10    11   ar
    24    11    12   ar
    25    12    13   ar
    26    13    14    1
    27    14    15    1
    28    14    16    1
    29    14    17    1
    30     6     7   ar
    31     7     8   ar
    32     8     3   ar
    33    34    24   ar
    34    13     9   ar
    35    34    28   ar
    36    18    19    1
    37    22    23    1
@<TRIPOS>MOLECULE
*****
 34 37 0 0 0
SMALL
GASTEIGER

@<TRIPOS>ATOM
      1 C          -8.5537  -16.5655   23.3535 C.3     1  UNL1        0.1379
      2 C         -13.1469  -16.0949   19.5220 C.3     1  UNL1        0.0310
      3 C         -11.9986  -16.2125   20.4799 C.ar    1  UNL1       -0.0219
      4 C         -12.1511  -15.7398   21.8952 C.ar    1  UNL1       -0.0045
      5 C         -11.0028  -15.8575   22.8531 C.ar    1  UNL1       -0.0029
      6 C          -9.7020  -16.4479   22.3956 C.ar    1  UNL1       -0.0007
      7 C          -9.5495  -16.9206   20.9802 C.ar    1  UNL1       -0.0029
      8 C         -10.6978  -16.8029   20.0223 C.ar    1  UNL1       -0.0045
      9 C          -8.7976  -17.0069   24.7662 C.ar    1  UNL1        0.1791
     10 N          -8.3619  -16.2810   26.0044 N.ar    1  UNL1       -0.1110
     11 N          -8.8150  -17.0772   27.1922 N.ar    1  UNL1       -0.0229
     12 N          -9.5309  -18.2952   26.6879 N.ar    1  UNL1       -0.0432
     13 N          -9.5201  -18.2517   25.1886 N.ar    1  UNL1       -0.2192
     14 C         -10.1255  -19.2737   24.2726 C.3     1  UNL1        0.0896
     15 C         -11.4945  -18.7533   24.5967 C.3     1  UNL1        0.0245
     16 C          -9.1682  -19.8830   23.8383 C.3     1  UNL1        0.0245
     17 C         -10.7308  -20.2956   23.3566 C.3     1  UNL1        0.0245
     18 N          -7.1614  -16.2418   22.8987 N.3     1  UNL1       -0.2876
     19 H          -7.2465  -15.7929   21.9867 H       1  UNL1        0.1239
     20 C          -6.2852  -15.3581   23.7362 C.3     1  UNL1        0.0905
     21 C          -4.8151  -15.6380   23.8368 C.3     1  UNL1        0.1044
     22 N          -4.3249  -17.0533   23.9180 N.pl3   1  UNL1       -0.3315
     23 H          -4.4523  -17.5717   24.7452 H       1  UNL1        0.1469
     24 C          -3.6405  -17.6788   22.7387 C.ar    1  UNL1        0.0477
     25 C          -2.2574  -17.2425   22.3559 C.ar    1  UNL1        0.0350
     26 C          -1.5732  -17.8679   21.1767 C.ar    1  UNL1        0.1001
     27 N          -2.2719  -18.9298   20.3804 N.ar    1  UNL1       -0.2437
     28 C          -3.6550  -19.3662   20.7633 C.ar    1  UNL1        0.0833
     29 C          -4.3538  -20.4281   19.9670 C.ar    1  UNL1        0.0305
     30 C          -5.7369  -20.8645   20.3498 C.ar    1  UNL1        0.0592
     31 CL         -6.4357  -21.9264   19.5535 Cl      1  UNL1       -0.0822
     32 C          -6.4212  -20.2390   21.5291 C.ar    1  UNL1        0.0115
     33 C          -5.7224  -19.1771   22.3254 C.ar    1  UNL1        0.0036
     34 C          -4.3393  -18.7407   21.9424 C.ar    1  UNL1        0.0309
@<TRIPOS>BOND
     1     2     3    1
     2     3     4   ar
     3     4     5   ar
     4     5     6   ar
     5     6     1    1
     6     1    18    1
     7    18    20    1
     8    20    21    1
     9    21    22    1
    10    22    24    1
    11    24    25   ar
    12    25    26   ar
    13    26    27   ar
    14    27    28   ar
    15    28    29   ar
    16    29    30   ar
    17    30    31    1
    18    30    32   ar
    19    32    33   ar
    20    33    34   ar
    21     1     9    1
    22     9    10   ar
    23    10    11   ar
    24    11    12   ar
    25    12    13   ar
    26    13    14    1
    27    14    15    1
    28    14    16    1
    29    14    17    1
    30     6     7   ar
    31     7     8   ar
    32     8     3   ar
    33    34    24   ar
    34    13     9   ar
    35    34    28   ar
    36    18    19    1
    37    22    23    1
@<TRIPOS>MOLECULE
*****
 34 37 0 0 0
SMALL
GASTEIGER

@<TRIPOS>ATOM
      1 C          -5.1392  -17.3454   22.4166 C.3     1  UNL1        0.1379
      2 C          -7.1848  -14.8727   27.4862 C.3     1  UNL1        0.0310
      3 C          -6.6734  -15.4909   26.2188 C.ar    1  UNL1       -0.0219
      4 C          -7.5895  -15.6577   25.0428 C.ar    1  UNL1       -0.0045
      5 C          -7.0781  -16.2759   23.7754 C.ar    1  UNL1       -0.0029
      6 C          -5.6506  -16.7272   23.6840 C.ar    1  UNL1       -0.0007
      7 C          -4.7344  -16.5604   24.8599 C.ar    1  UNL1       -0.0029
      8 C          -5.2458  -15.9423   26.1273 C.ar    1  UNL1       -0.0045
      9 C          -3.7467  -17.0472   21.9453 C.ar    1  UNL1        0.1791
     10 N          -2.9776  -15.7867   22.2091 N.ar    1  UNL1       -0.1110
     11 N          -1.6344  -15.9176   21.5544 N.ar    1  UNL1       -0.0229
     12 N          -1.5734  -17.2591   20.8860 N.ar    1  UNL1       -0.0432
     13 N          -2.8789  -17.9572   21.1276 N.ar    1  UNL1       -0.2192
     14 C          -3.2510  -19.3252   20.6376 C.3     1  UNL1        0.0896
     15 C          -3.6600  -18.7412   19.3179 C.3     1  UNL1        0.0245
     16 C          -3.0026  -20.0523   21.5787 C.3     1  UNL1        0.0245
     17 C          -3.6232  -20.6931   20.1476 C.3     1  UNL1        0.0245
     18 N          -6.0203  -18.2618   21.6204 N.3     1  UNL1       -0.2876
     19 H          -5.4713  -18.5769   20.8205 H       1  UNL1        0.1239
     20 C          -6.5978  -19.4897   22.2598 C.3     1  UNL1        0.0905
     21 C          -8.0854  -19.6589   22.3507 C.3     1  UNL1        0.1044
     22 N          -8.7998  -19.3396   23.6305 N.pl3   1  UNL1       -0.3315
     23 H          -8.3336  -19.4375   24.4921 H       1  UNL1        0.1469
     24 C         -10.2244  -18.8712   23.5975 C.ar    1  UNL1        0.0477
     25 C         -11.1615  -19.2414   24.7087 C.ar    1  UNL1        0.0350
     26 C         -12.5861  -18.7730   24.6756 C.ar    1  UNL1        0.1001
     27 N         -13.0735  -17.9343   23.5315 N.ar    1  UNL1       -0.2437
     28 C         -12.1364  -17.5642   22.4203 C.ar    1  UNL1        0.0833
     29 C         -12.6238  -16.7255   21.2762 C.ar    1  UNL1        0.0305
     30 C         -11.6867  -16.3553   20.1650 C.ar    1  UNL1        0.0592
     31 CL        -12.1742  -15.5167   19.0208 Cl      1  UNL1       -0.0822
     32 C         -10.2621  -16.8238   20.1980 C.ar    1  UNL1        0.0115
     33 C          -9.7746  -17.6624   21.3422 C.ar    1  UNL1        0.0036
     34 C         -10.7118  -18.0326   22.4533 C.ar    1  UNL1        0.0309
@<TRIPOS>BOND
     1     2     3    1
     2     3     4   ar
     3     4     5   ar
     4     5     6   ar
     5     6     1    1
     6     1    18    1
     7    18    20    1
     8    20    21    1
     9    21    22    1
    10    22    24    1
    11    24    25   ar
    12    25    26   ar
    13    26    27   ar
    14    27    28   ar
    15    28    29   ar
    16    29    30   ar
    17    30    31    1
    18    30    32   ar
    19    32    33   ar
    20    33    34   ar
    21     1     9    1
    22     9    10   ar
    23    10    11   ar
    24    11    12   ar
    25    12    13   ar
    26    13    14    1
    27    14    15    1
    28    14    16    1
    29    14    17    1
    30     6     7   ar
    31     7     8   ar
    32     8     3   ar
    33    34    24   ar
    34    13     9   ar
    35    34    28   ar
    36    18    19    1
    37    22    23    1
@<TRIPOS>MOLECULE
*****
 34 37 0 0 0
SMALL
GASTEIGER

@<TRIPOS>ATOM
      1 C         -12.9796   -6.0737   17.5325 C.3     1  UNL1        0.1379
      2 C         -17.0705   -9.9422   19.6059 C.3     1  UNL1        0.0310
      3 C         -16.0478   -8.9751   19.0875 C.ar    1  UNL1       -0.0219
      4 C         -15.1087   -9.3908   17.9943 C.ar    1  UNL1       -0.0045
      5 C         -14.0860   -8.4237   17.4759 C.ar    1  UNL1       -0.0029
      6 C         -14.0023   -7.0408   18.0508 C.ar    1  UNL1       -0.0007
      7 C         -14.9414   -6.6250   19.1441 C.ar    1  UNL1       -0.0029
      8 C         -15.9641   -7.5921   19.6625 C.ar    1  UNL1       -0.0045
      9 C         -11.6544   -5.9419   18.2226 C.ar    1  UNL1        0.1791
     10 N         -10.6515   -7.0393   18.4227 N.ar    1  UNL1       -0.1110
     11 N          -9.4766   -6.4652   19.1576 N.ar    1  UNL1       -0.0229
     12 N          -9.7535   -5.0130   19.4118 N.ar    1  UNL1       -0.0432
     13 N         -11.0994   -4.6896   18.8339 N.ar    1  UNL1       -0.2192
     14 C         -11.7721   -3.3493   18.8624 C.3     1  UNL1        0.0896
     15 C         -10.8236   -2.8508   17.8127 C.3     1  UNL1        0.0245
     16 C         -12.6494   -3.4782   19.6930 C.3     1  UNL1        0.0245
     17 C         -12.4449   -2.0089   18.8909 C.3     1  UNL1        0.0245
     18 N         -13.2822   -5.2383   16.3239 N.3     1  UNL1       -0.2876
     19 H         -12.8959   -5.7329   15.5198 H       1  UNL1        0.1239
     20 C         -14.7031   -4.9000   15.9825 C.3     1  UNL1        0.0905
     21 C         -15.4508   -3.8893   16.8006 C.3     1  UNL1        0.1044
     22 N         -16.9360   -3.7484   16.6445 N.pl3   1  UNL1       -0.3315
     23 H         -17.3072   -3.3025   15.8491 H       1  UNL1        0.1469
     24 C         -17.8555   -4.2871   17.7001 C.ar    1  UNL1        0.0477
     25 C         -18.2642   -3.4187   18.8529 C.ar    1  UNL1        0.0350
     26 C         -19.1837   -3.9573   19.9085 C.ar    1  UNL1        0.1001
     27 N         -19.6945   -5.3643   19.8113 N.ar    1  UNL1       -0.2437
     28 C         -19.2858   -6.2327   18.6586 C.ar    1  UNL1        0.0833
     29 C         -19.7967   -7.6397   18.5614 C.ar    1  UNL1        0.0305
     30 C         -19.3880   -8.5080   17.4087 C.ar    1  UNL1        0.0592
     31 CL        -19.8988   -9.9150   17.3115 Cl      1  UNL1       -0.0822
     32 C         -18.4684   -7.9694   16.3530 C.ar    1  UNL1        0.0115
     33 C         -17.9576   -6.5624   16.4501 C.ar    1  UNL1        0.0036
     34 C         -18.3663   -5.6940   17.6030 C.ar    1  UNL1        0.0309
@<TRIPOS>BOND
     1     2     3    1
     2     3     4   ar
     3     4     5   ar
     4     5     6   ar
     5     6     1    1
     6     1    18    1
     7    18    20    1
     8    20    21    1
     9    21    22    1
    10    22    24    1
    11    24    25   ar
    12    25    26   ar
    13    26    27   ar
    14    27    28   ar
    15    28    29   ar
    16    29    30   ar
    17    30    31    1
    18    30    32   ar
    19    32    33   ar
    20    33    34   ar
    21     1     9    1
    22     9    10   ar
    23    10    11   ar
    24    11    12   ar
    25    12    13   ar
    26    13    14    1
    27    14    15    1
    28    14    16    1
    29    14    17    1
    30     6     7   ar
    31     7     8   ar
    32     8     3   ar
    33    34    24   ar
    34    13     9   ar
    35    34    28   ar
    36    18    19    1
    37    22    23    1
@<TRIPOS>MOLECULE
*****
 34 37 0 0 0
SMALL
GASTEIGER

@<TRIPOS>ATOM
      1 C         -13.0195   -4.8813   18.7406 C.3     1  UNL1        0.1379
      2 C         -11.8436    0.7318   16.9770 C.3     1  UNL1        0.0310
      3 C         -12.1376   -0.6715   17.4179 C.ar    1  UNL1       -0.0219
      4 C         -13.2107   -1.4639   16.7319 C.ar    1  UNL1       -0.0045
      5 C         -13.5046   -2.8672   17.1728 C.ar    1  UNL1       -0.0029
      6 C         -12.7256   -3.4780   18.2997 C.ar    1  UNL1       -0.0007
      7 C         -11.6524   -2.6856   18.9857 C.ar    1  UNL1       -0.0029
      8 C         -11.3585   -1.2823   18.5448 C.ar    1  UNL1       -0.0045
      9 C         -12.7770   -6.0279   17.8044 C.ar    1  UNL1        0.1791
     10 N         -13.7395   -7.1380   17.5020 N.ar    1  UNL1       -0.1110
     11 N         -13.0867   -8.0620   16.5170 N.ar    1  UNL1       -0.0229
     12 N         -11.7208   -7.5229   16.2107 N.ar    1  UNL1       -0.0432
     13 N         -11.5294   -6.2658   17.0064 N.ar    1  UNL1       -0.2192
     14 C         -10.3053   -5.3989   17.0043 C.3     1  UNL1        0.0896
     15 C          -9.8715   -6.0082   18.3045 C.3     1  UNL1        0.0245
     16 C         -10.4063   -4.7501   15.9820 C.3     1  UNL1        0.0245
     17 C          -9.0813   -4.5319   17.0021 C.3     1  UNL1        0.0245
     18 N         -13.5561   -5.1380   20.1177 N.3     1  UNL1       -0.2876
     19 H         -12.7497   -5.2773   20.7266 H       1  UNL1        0.1239
     20 C         -14.4306   -4.1176   20.7840 C.3     1  UNL1        0.0905
     21 C         -15.6860   -3.6503   20.1090 C.3     1  UNL1        0.1044
     22 N         -16.8366   -4.5954   19.9278 N.pl3   1  UNL1       -0.3315
     23 H         -17.4973   -4.7105   20.6485 H       1  UNL1        0.1469
     24 C         -16.9804   -5.3653   18.6484 C.ar    1  UNL1        0.0477
     25 C         -17.1025   -4.6355   17.3437 C.ar    1  UNL1        0.0350
     26 C         -17.2463   -5.4054   16.0644 C.ar    1  UNL1        0.1001
     27 N         -17.2681   -6.9050   16.0899 N.ar    1  UNL1       -0.2437
     28 C         -17.1460   -7.6348   17.3947 C.ar    1  UNL1        0.0833
     29 C         -17.1678   -9.1344   17.4202 C.ar    1  UNL1        0.0305
     30 C         -17.0457   -9.8642   18.7249 C.ar    1  UNL1        0.0592
     31 CL        -17.0675  -11.3638   18.7504 Cl      1  UNL1       -0.0822
     32 C         -16.9019   -9.0943   20.0043 C.ar    1  UNL1        0.0115
     33 C         -16.8801   -7.5947   19.9788 C.ar    1  UNL1        0.0036
     34 C         -17.0022   -6.8649   18.6739 C.ar    1  UNL1        0.0309
@<TRIPOS>BOND
     1     2     3    1
     2     3     4   ar
     3     4     5   ar
     4     5     6   ar
     5     6     1    1
     6     1    18    1
     7    18    20    1
     8    20    21    1
     9    21    22    1
    10    22    24    1
    11    24    25   ar
    12    25    26   ar
    13    26    27   ar
    14    27    28   ar
    15    28    29   ar
    16    29    30   ar
    17    30    31    1
    18    30    32   ar
    19    32    33   ar
    20    33    34   ar
    21     1     9    1
    22     9    10   ar
    23    10    11   ar
    24    11    12   ar
    25    12    13   ar
    26    13    14    1
    27    14    15    1
    28    14    16    1
    29    14    17    1
    30     6     7   ar
    31     7     8   ar
    32     8     3   ar
    33    34    24   ar
    34    13     9   ar
    35    34    28   ar
    36    18    19    1
    37    22    23    1
