@<TRIPOS>MOLECULE
*****
 37 40 0 0 0
SMALL
GASTEIGER

@<TRIPOS>ATOM
      1 C          -9.8776  -19.5426   23.1733 C.2     1  UNL1        0.2661
      2 O         -10.7130  -20.7866   23.2405 O.2     1  UNL1       -0.2710
      3 N         -10.2204  -18.3616   24.0323 N.am    1  UNL1       -0.2714
      4 C         -11.3986  -18.4247   24.9585 C.3     1  UNL1        0.1153
      5 C          -3.7718  -19.3180   20.0239 C.ar    1  UNL1        0.0643
      6 C          -3.5569  -19.4087   21.5056 C.ar    1  UNL1        0.0189
      7 C          -4.7351  -19.4718   22.4319 C.ar    1  UNL1        0.0379
      8 C          -6.1282  -19.4442   21.8764 C.ar    1  UNL1        0.1351
      9 C          -6.3430  -19.3534   20.3946 C.ar    1  UNL1        0.0132
     10 C          -5.1648  -19.2903   19.4684 C.ar    1  UNL1        0.0146
     11 C          -7.7361  -19.3257   19.8390 C.3     1  UNL1        0.0337
     12 C          -8.9143  -19.3888   20.7653 C.3     1  UNL1        0.0579
     13 C          -8.6994  -19.4796   22.2471 C.3     1  UNL1        0.2415
     14 O          -7.3064  -19.5072   22.8026 O.3     1  UNL1       -0.4703
     15 N          -2.5936  -19.2549   19.0977 N.pl3   1  UNL1       -0.2188
     16 H          -2.5074  -19.9076   18.3657 H       1  UNL1        0.1734
     17 S          -1.5467  -18.1975   19.2868 S.O2    1  UNL1        0.0539
     18 O          -2.4070  -17.2140   18.5502 O.2     1  UNL1       -0.1545
     19 O          -0.6864  -19.1809   20.0234 O.2     1  UNL1       -0.1545
     20 C          -0.4998  -17.1399   19.4759 C.3     1  UNL1        0.1724
     21 C          -1.7522  -16.2171   21.5567 C.3     1  UNL1        0.0019
     22 C          -0.5227  -16.2721   20.6991 C.3     1  UNL1        0.0273
     23 C          -9.3850  -17.1176   23.9650 C.3     1  UNL1        0.1139
     24 C          -8.5721  -16.6950   25.1528 C.ar    1  UNL1       -0.0029
     25 C          -9.0181  -17.0640   26.5365 C.ar    1  UNL1       -0.0026
     26 C          -8.2052  -16.6413   27.7242 C.ar    1  UNL1       -0.0003
     27 C          -6.9464  -15.8496   27.5280 C.ar    1  UNL1       -0.0000
     28 C          -6.5004  -15.4806   26.1443 C.ar    1  UNL1       -0.0003
     29 C          -7.3133  -15.9032   24.9566 C.ar    1  UNL1       -0.0026
     30 C          -9.3624  -16.2963   22.7101 C.3     1  UNL1        0.0968
     31 N         -10.5887  -16.2057   21.8509 N.3     1  UNL1       -0.2689
     32 C         -11.9945  -16.4938   22.2875 C.3     1  UNL1        0.0748
     33 C         -12.8990  -16.2773   21.1106 C.3     1  UNL1        0.0480
     34 C         -12.0521  -15.8555   19.9466 C.3     1  UNL1        0.1278
     35 O         -12.5464  -15.5342   18.5673 O.3     1  UNL1       -0.3830
     36 C         -10.6242  -15.8112   20.4041 C.3     1  UNL1        0.1017
     37 H         -11.7958  -15.2894   18.0037 H       1  UNL1        0.2104
@<TRIPOS>BOND
     1    21    22    1
     2    22    20    1
     3    20    17    1
     4    17    18    2
     5    17    19    2
     6    17    15    1
     7    15     5    1
     8     5     6   ar
     9     6     7   ar
    10     7     8   ar
    11     8     9   ar
    12     9    10   ar
    13     9    11    1
    14    11    12    1
    15    12    13    1
    16    13     1    1
    17     1     2    2
    18     1     3   am
    19     3     4    1
    20     3    23    1
    21    23    30    1
    22    30    31    1
    23    31    32    1
    24    32    33    1
    25    33    34    1
    26    34    35    1
    27    34    36    1
    28    23    24    1
    29    24    25   ar
    30    25    26   ar
    31    26    27   ar
    32    27    28   ar
    33    28    29   ar
    34    13    14    1
    35    10     5   ar
    36    36    31    1
    37    29    24   ar
    38    14     8    1
    39    15    16    1
    40    35    37    1
@<TRIPOS>MOLECULE
*****
 37 40 0 0 0
SMALL
GASTEIGER

@<TRIPOS>ATOM
      1 C         -10.5809  -19.6925   23.1697 C.2     1  UNL1        0.2661
      2 O         -11.0825  -21.0547   23.5475 O.2     1  UNL1       -0.2710
      3 N         -11.2742  -18.4676   23.6883 N.am    1  UNL1       -0.2714
      4 C         -12.4690  -18.6049   24.5847 C.3     1  UNL1        0.1153
      5 C          -4.4196  -19.2917   20.1486 C.ar    1  UNL1        0.0643
      6 C          -4.2326  -19.5775   21.6091 C.ar    1  UNL1        0.0189
      7 C          -5.4275  -19.7149   22.5055 C.ar    1  UNL1        0.0379
      8 C          -6.8093  -19.5664   21.9413 C.ar    1  UNL1        0.1351
      9 C          -6.9963  -19.2806   20.4807 C.ar    1  UNL1        0.0132
     10 C          -5.8014  -19.1432   19.5844 C.ar    1  UNL1        0.0146
     11 C          -8.3782  -19.1320   19.9164 C.3     1  UNL1        0.0337
     12 C          -9.5731  -19.2694   20.8128 C.3     1  UNL1        0.0579
     13 C          -9.3860  -19.5552   22.2734 C.3     1  UNL1        0.2415
     14 O          -8.0042  -19.7037   22.8376 O.3     1  UNL1       -0.4703
     15 N          -3.2247  -19.1544   19.2522 N.pl3   1  UNL1       -0.2188
     16 H          -3.1236  -19.7468   18.4724 H       1  UNL1        0.1734
     17 S          -2.1839  -18.1145   19.5439 S.O2    1  UNL1        0.0539
     18 O          -1.3168  -19.1606   20.1793 O.2     1  UNL1       -0.1545
     19 O          -3.0510  -17.0684   18.9085 O.2     1  UNL1       -0.1545
     20 C          -1.1429  -17.0745   19.8357 C.3     1  UNL1        0.1724
     21 C          -2.3592  -16.4180   22.0357 C.3     1  UNL1        0.0019
     22 C          -1.1476  -16.3576   21.1532 C.3     1  UNL1        0.0273
     23 C         -10.7726  -17.1053   23.3106 C.3     1  UNL1        0.1139
     24 C         -10.9970  -16.5816   21.9229 C.ar    1  UNL1       -0.0029
     25 C          -9.9834  -15.6747   21.2905 C.ar    1  UNL1       -0.0026
     26 C         -10.2079  -15.1511   19.9030 C.ar    1  UNL1       -0.0003
     27 C         -11.4460  -15.5343   19.1478 C.ar    1  UNL1       -0.0000
     28 C         -12.4596  -16.4412   19.7803 C.ar    1  UNL1       -0.0003
     29 C         -12.2351  -16.9649   21.1678 C.ar    1  UNL1       -0.0026
     30 C         -10.0466  -16.2668   24.3204 C.3     1  UNL1        0.0968
     31 N          -8.5617  -16.0821   24.2135 N.3     1  UNL1       -0.2689
     32 C          -7.6806  -16.6310   23.1308 C.3     1  UNL1        0.0748
     33 C          -6.2718  -16.2043   23.4188 C.3     1  UNL1        0.0480
     34 C          -6.2821  -15.3916   24.6796 C.3     1  UNL1        0.1278
     35 O          -5.0871  -14.7646   25.3343 O.3     1  UNL1       -0.3830
     36 C          -7.6975  -15.3161   25.1708 C.3     1  UNL1        0.1017
     37 H          -5.3667  -14.2948   26.1355 H       1  UNL1        0.2104
@<TRIPOS>BOND
     1    21    22    1
     2    22    20    1
     3    20    17    1
     4    17    18    2
     5    17    19    2
     6    17    15    1
     7    15     5    1
     8     5     6   ar
     9     6     7   ar
    10     7     8   ar
    11     8     9   ar
    12     9    10   ar
    13     9    11    1
    14    11    12    1
    15    12    13    1
    16    13     1    1
    17     1     2    2
    18     1     3   am
    19     3     4    1
    20     3    23    1
    21    23    30    1
    22    30    31    1
    23    31    32    1
    24    32    33    1
    25    33    34    1
    26    34    35    1
    27    34    36    1
    28    23    24    1
    29    24    25   ar
    30    25    26   ar
    31    26    27   ar
    32    27    28   ar
    33    28    29   ar
    34    13    14    1
    35    10     5   ar
    36    36    31    1
    37    29    24   ar
    38    14     8    1
    39    15    16    1
    40    35    37    1
@<TRIPOS>MOLECULE
*****
 37 40 0 0 0
SMALL
GASTEIGER

@<TRIPOS>ATOM
      1 C          -9.0593  -19.4044   23.2617 C.2     1  UNL1        0.2661
      2 O          -9.7951  -20.7114   23.2816 O.2     1  UNL1       -0.2710
      3 N          -9.7500  -18.1480   23.7028 N.am    1  UNL1       -0.2714
      4 C         -11.1766  -18.1987   24.1637 C.3     1  UNL1        0.1153
      5 C          -2.4118  -18.1906   22.0020 C.ar    1  UNL1        0.0643
      6 C          -2.8970  -17.2299   23.0468 C.ar    1  UNL1        0.0189
      7 C          -4.3235  -17.2805   23.5077 C.ar    1  UNL1        0.0379
      8 C          -5.2649  -18.2918   22.9238 C.ar    1  UNL1        0.1351
      9 C          -4.7797  -19.2526   21.8790 C.ar    1  UNL1        0.0132
     10 C          -3.3532  -19.2019   21.4181 C.ar    1  UNL1        0.0146
     11 C          -5.7211  -20.2640   21.2951 C.3     1  UNL1        0.0337
     12 C          -7.1476  -20.3146   21.7560 C.3     1  UNL1        0.0579
     13 C          -7.6328  -19.3538   22.8008 C.3     1  UNL1        0.2415
     14 O          -6.6914  -18.3425   23.3847 O.3     1  UNL1       -0.4703
     15 N          -0.9853  -18.1400   21.5411 N.pl3   1  UNL1       -0.2188
     16 H          -0.2541  -18.2661   22.1882 H       1  UNL1        0.1734
     17 S          -0.6727  -17.8972   20.0943 S.O2    1  UNL1        0.0539
     18 O          -0.8685  -16.4242   20.2991 O.2     1  UNL1       -0.1545
     19 O          -0.4769  -19.3702   19.8894 O.2     1  UNL1       -0.1545
     20 C          -0.3601  -17.6544   18.6474 C.3     1  UNL1        0.1724
     21 C          -2.8956  -17.4144   18.1337 C.3     1  UNL1        0.0019
     22 C          -1.4743  -17.4795   17.6585 C.3     1  UNL1        0.0273
     23 C          -9.0142  -16.8411   23.6829 C.3     1  UNL1        0.1139
     24 C          -8.3378  -16.3422   24.9253 C.ar    1  UNL1       -0.0029
     25 C          -7.1397  -15.4461   24.8187 C.ar    1  UNL1       -0.0026
     26 C          -6.4633  -14.9472   26.0611 C.ar    1  UNL1       -0.0003
     27 C          -6.9850  -15.3446   27.4102 C.ar    1  UNL1       -0.0000
     28 C          -8.1831  -16.2407   27.5168 C.ar    1  UNL1       -0.0003
     29 C          -8.8595  -16.7396   26.2744 C.ar    1  UNL1       -0.0026
     30 C          -8.9548  -16.0330   22.4206 C.3     1  UNL1        0.0968
     31 N          -9.9305  -16.2994   21.3128 N.3     1  UNL1       -0.2689
     32 C         -10.1546  -17.6178   20.6333 C.3     1  UNL1        0.0748
     33 C         -11.2160  -17.4274   19.5907 C.3     1  UNL1        0.0480
     34 C         -11.6480  -15.9913   19.6258 C.3     1  UNL1        0.1278
     35 O         -12.6913  -15.3628   18.7503 O.3     1  UNL1       -0.3830
     36 C         -10.8535  -15.2942   20.6902 C.3     1  UNL1        0.1017
     37 H         -12.7795  -14.4235   18.9759 H       1  UNL1        0.2104
@<TRIPOS>BOND
     1    21    22    1
     2    22    20    1
     3    20    17    1
     4    17    18    2
     5    17    19    2
     6    17    15    1
     7    15     5    1
     8     5     6   ar
     9     6     7   ar
    10     7     8   ar
    11     8     9   ar
    12     9    10   ar
    13     9    11    1
    14    11    12    1
    15    12    13    1
    16    13     1    1
    17     1     2    2
    18     1     3   am
    19     3     4    1
    20     3    23    1
    21    23    30    1
    22    30    31    1
    23    31    32    1
    24    32    33    1
    25    33    34    1
    26    34    35    1
    27    34    36    1
    28    23    24    1
    29    24    25   ar
    30    25    26   ar
    31    26    27   ar
    32    27    28   ar
    33    28    29   ar
    34    13    14    1
    35    10     5   ar
    36    36    31    1
    37    29    24   ar
    38    14     8    1
    39    15    16    1
    40    35    37    1
@<TRIPOS>MOLECULE
*****
 37 40 0 0 0
SMALL
GASTEIGER

@<TRIPOS>ATOM
      1 C         -11.2761  -17.0949   20.6365 C.2     1  UNL1        0.2661
      2 O         -12.1168  -16.8355   19.4217 O.2     1  UNL1       -0.2710
      3 N         -11.7382  -16.6225   21.9832 N.am    1  UNL1       -0.2714
      4 C         -13.0410  -15.8909   22.1149 C.3     1  UNL1        0.1153
      5 C          -4.9298  -19.7051   21.0377 C.ar    1  UNL1        0.0643
      6 C          -5.0975  -18.6569   22.0975 C.ar    1  UNL1        0.0189
      7 C          -6.4003  -17.9252   22.2292 C.ar    1  UNL1        0.0379
      8 C          -7.5354  -18.2417   21.3011 C.ar    1  UNL1        0.1351
      9 C          -7.3677  -19.2900   20.2414 C.ar    1  UNL1        0.0132
     10 C          -6.0649  -20.0216   20.1097 C.ar    1  UNL1        0.0146
     11 C          -8.5029  -19.6065   19.3133 C.3     1  UNL1        0.0337
     12 C          -9.8057  -18.8748   19.4450 C.3     1  UNL1        0.0579
     13 C          -9.9733  -17.8266   20.5048 C.3     1  UNL1        0.2415
     14 O          -8.8382  -17.5100   21.4329 O.3     1  UNL1       -0.4703
     15 N          -3.6270  -20.4368   20.9060 N.pl3   1  UNL1       -0.2188
     16 H          -3.5913  -21.4092   21.0555 H       1  UNL1        0.1734
     17 S          -2.3787  -19.6869   20.5465 S.O2    1  UNL1        0.0539
     18 O          -1.7465  -20.1213   21.8355 O.2     1  UNL1       -0.1545
     19 O          -3.0109  -19.2526   19.2574 O.2     1  UNL1       -0.1545
     20 C          -1.1303  -18.9370   20.1870 C.3     1  UNL1        0.1724
     21 C          -1.7938  -16.6380   21.1990 C.3     1  UNL1        0.0019
     22 C          -1.1522  -17.4395   20.1053 C.3     1  UNL1        0.0273
     23 C         -10.8976  -16.8819   23.1981 C.3     1  UNL1        0.1139
     24 C         -10.6115  -18.2911   23.6254 C.ar    1  UNL1       -0.0029
     25 C         -11.0196  -19.4380   22.7490 C.ar    1  UNL1       -0.0026
     26 C         -10.7336  -20.8471   23.1763 C.ar    1  UNL1       -0.0003
     27 C         -10.0395  -21.1093   24.4799 C.ar    1  UNL1       -0.0000
     28 C          -9.6314  -19.9624   25.3563 C.ar    1  UNL1       -0.0003
     29 C          -9.9174  -18.5533   24.9290 C.ar    1  UNL1       -0.0026
     30 C         -10.3429  -15.7322   23.9857 C.3     1  UNL1        0.0968
     31 N          -8.8619  -15.6074   24.1890 N.3     1  UNL1       -0.2689
     32 C          -8.1048  -16.0022   25.4222 C.3     1  UNL1        0.0748
     33 C          -6.6531  -15.7047   25.1900 C.3     1  UNL1        0.0480
     34 C          -6.5129  -15.1261   23.8132 C.3     1  UNL1        0.1278
     35 O          -5.2324  -14.6851   23.1683 O.3     1  UNL1       -0.3830
     36 C          -7.8781  -15.0660   23.1945 C.3     1  UNL1        0.1017
     37 H          -5.4180  -14.3494   22.2774 H       1  UNL1        0.2104
@<TRIPOS>BOND
     1    21    22    1
     2    22    20    1
     3    20    17    1
     4    17    18    2
     5    17    19    2
     6    17    15    1
     7    15     5    1
     8     5     6   ar
     9     6     7   ar
    10     7     8   ar
    11     8     9   ar
    12     9    10   ar
    13     9    11    1
    14    11    12    1
    15    12    13    1
    16    13     1    1
    17     1     2    2
    18     1     3   am
    19     3     4    1
    20     3    23    1
    21    23    30    1
    22    30    31    1
    23    31    32    1
    24    32    33    1
    25    33    34    1
    26    34    35    1
    27    34    36    1
    28    23    24    1
    29    24    25   ar
    30    25    26   ar
    31    26    27   ar
    32    27    28   ar
    33    28    29   ar
    34    13    14    1
    35    10     5   ar
    36    36    31    1
    37    29    24   ar
    38    14     8    1
    39    15    16    1
    40    35    37    1
@<TRIPOS>MOLECULE
*****
 37 40 0 0 0
SMALL
GASTEIGER

@<TRIPOS>ATOM
      1 C           4.8615   -3.2568   21.3628 C.2     1  UNL1        0.2661
      2 O           4.3678   -4.6721   21.3083 O.2     1  UNL1       -0.2710
      3 N           6.3195   -2.9629   21.1676 N.am    1  UNL1       -0.2714
      4 C           7.2837   -4.0845   20.9179 C.3     1  UNL1        0.1153
      5 C           0.1439    1.7413   21.2449 C.ar    1  UNL1        0.0643
      6 C           0.2474    1.1314   19.8784 C.ar    1  UNL1        0.0189
      7 C           1.2116    0.0098   19.6287 C.ar    1  UNL1        0.0379
      8 C           2.0724   -0.5019   20.7455 C.ar    1  UNL1        0.1351
      9 C           1.9689    0.1080   22.1119 C.ar    1  UNL1        0.0132
     10 C           1.0047    1.2295   22.3616 C.ar    1  UNL1        0.0146
     11 C           2.8296   -0.4038   23.2288 C.3     1  UNL1        0.0337
     12 C           3.7939   -1.5253   22.9791 C.3     1  UNL1        0.0579
     13 C           3.8973   -2.1352   21.6125 C.3     1  UNL1        0.2415
     14 O           3.0366   -1.6235   20.4957 O.3     1  UNL1       -0.4703
     15 N          -0.8203    2.8628   21.4946 N.pl3   1  UNL1       -0.2188
     16 H          -0.9559    3.2010   22.4092 H       1  UNL1        0.1734
     17 S          -1.5779    3.4692   20.3508 S.O2    1  UNL1        0.0539
     18 O          -0.4069    4.3554   20.0450 O.2     1  UNL1       -0.1545
     19 O          -2.7488    2.5831   20.6566 O.2     1  UNL1       -0.1545
     20 C          -2.3355    4.0757   19.2069 C.3     1  UNL1        0.1724
     21 C          -4.4977    3.7359   17.8071 C.3     1  UNL1        0.0019
     22 C          -3.8267    3.9311   19.1345 C.3     1  UNL1        0.0273
     23 C           6.8132   -1.5476   21.2221 C.3     1  UNL1        0.1139
     24 C           7.0342   -0.8808   22.5475 C.ar    1  UNL1       -0.0029
     25 C           7.4686   -1.6921   23.7320 C.ar    1  UNL1       -0.0026
     26 C           7.6896   -1.0253   25.0573 C.ar    1  UNL1       -0.0003
     27 C           7.4761    0.4527   25.1982 C.ar    1  UNL1       -0.0000
     28 C           7.0417    1.2640   24.0137 C.ar    1  UNL1       -0.0003
     29 C           6.8207    0.5972   22.6883 C.ar    1  UNL1       -0.0026
     30 C           7.0859   -0.7989   19.9512 C.3     1  UNL1        0.0968
     31 N           5.9701   -0.5287   18.9857 N.3     1  UNL1       -0.2689
     32 C           5.1381    0.7179   18.9263 C.3     1  UNL1        0.0748
     33 C           4.1443    0.5593   17.8140 C.3     1  UNL1        0.0480
     34 C           4.3621   -0.7854   17.1860 C.3     1  UNL1        0.1278
     35 O           3.5874   -1.3572   16.0358 O.3     1  UNL1       -0.3830
     36 C           5.4906   -1.4579   17.9102 C.3     1  UNL1        0.1017
     37 H           3.9277   -2.2406   15.8241 H       1  UNL1        0.2104
@<TRIPOS>BOND
     1    21    22    1
     2    22    20    1
     3    20    17    1
     4    17    18    2
     5    17    19    2
     6    17    15    1
     7    15     5    1
     8     5     6   ar
     9     6     7   ar
    10     7     8   ar
    11     8     9   ar
    12     9    10   ar
    13     9    11    1
    14    11    12    1
    15    12    13    1
    16    13     1    1
    17     1     2    2
    18     1     3   am
    19     3     4    1
    20     3    23    1
    21    23    30    1
    22    30    31    1
    23    31    32    1
    24    32    33    1
    25    33    34    1
    26    34    35    1
    27    34    36    1
    28    23    24    1
    29    24    25   ar
    30    25    26   ar
    31    26    27   ar
    32    27    28   ar
    33    28    29   ar
    34    13    14    1
    35    10     5   ar
    36    36    31    1
    37    29    24   ar
    38    14     8    1
    39    15    16    1
    40    35    37    1
@<TRIPOS>MOLECULE
*****
 37 40 0 0 0
SMALL
GASTEIGER

@<TRIPOS>ATOM
      1 C           4.5668   -3.4972   20.8329 C.2     1  UNL1        0.2661
      2 O           4.1001   -4.9097   20.6405 O.2     1  UNL1       -0.2710
      3 N           5.1019   -2.7188   19.6676 N.am    1  UNL1       -0.2714
      4 C           5.1703   -3.3530   18.3100 C.3     1  UNL1        0.1153
      5 C           3.3085    0.1395   26.5286 C.ar    1  UNL1        0.0643
      6 C           2.3924    0.6055   25.4361 C.ar    1  UNL1        0.0189
      7 C           2.4608   -0.0287   24.0785 C.ar    1  UNL1        0.0379
      8 C           3.4454   -1.1288   23.8133 C.ar    1  UNL1        0.1351
      9 C           4.3615   -1.5948   24.9058 C.ar    1  UNL1        0.0132
     10 C           4.2931   -0.9606   26.2634 C.ar    1  UNL1        0.0146
     11 C           5.3461   -2.6949   24.6406 C.3     1  UNL1        0.0337
     12 C           5.4145   -3.3291   23.2830 C.3     1  UNL1        0.0579
     13 C           4.4983   -2.8631   22.1905 C.3     1  UNL1        0.2415
     14 O           3.5138   -1.7630   22.4557 O.3     1  UNL1       -0.4703
     15 N           3.2401    0.7737   27.8862 N.pl3   1  UNL1       -0.2188
     16 H           4.0600    1.1121   28.3133 H       1  UNL1        0.1734
     17 S           1.9225    0.8922   28.5931 S.O2    1  UNL1        0.0539
     18 O           1.8646   -0.5999   28.7354 O.2     1  UNL1       -0.1545
     19 O           1.9803    2.3843   28.4508 O.2     1  UNL1       -0.1545
     20 C           0.6048    1.0107   29.3000 C.3     1  UNL1        0.1724
     21 C          -1.7544   -0.0694   29.1659 C.3     1  UNL1        0.0019
     22 C          -0.6723    0.7684   28.5515 C.3     1  UNL1        0.0273
     23 C           5.5685   -1.3064   19.8600 C.3     1  UNL1        0.1139
     24 C           6.7774   -1.0240   20.7021 C.ar    1  UNL1       -0.0029
     25 C           6.7282    0.0493   21.7487 C.ar    1  UNL1       -0.0026
     26 C           7.9370    0.3317   22.5907 C.ar    1  UNL1       -0.0003
     27 C           9.1950   -0.4592   22.3861 C.ar    1  UNL1       -0.0000
     28 C           9.2442   -1.5325   21.3394 C.ar    1  UNL1       -0.0003
     29 C           8.0354   -1.8149   20.4974 C.ar    1  UNL1       -0.0026
     30 C           4.8264   -0.1762   19.2103 C.3     1  UNL1        0.0968
     31 N           3.5054    0.2698   19.7636 N.3     1  UNL1       -0.2689
     32 C           3.2509    1.5370   20.5248 C.3     1  UNL1        0.0748
     33 C           1.7953    1.5773   20.8844 C.3     1  UNL1        0.0480
     34 C           1.1500    0.3350   20.3455 C.3     1  UNL1        0.1278
     35 O          -0.2979   -0.0344   20.4763 O.3     1  UNL1       -0.3830
     36 C           2.2071   -0.4731   19.6528 C.3     1  UNL1        0.1017
     37 H          -0.4548   -0.8866   20.0405 H       1  UNL1        0.2104
@<TRIPOS>BOND
     1    21    22    1
     2    22    20    1
     3    20    17    1
     4    17    18    2
     5    17    19    2
     6    17    15    1
     7    15     5    1
     8     5     6   ar
     9     6     7   ar
    10     7     8   ar
    11     8     9   ar
    12     9    10   ar
    13     9    11    1
    14    11    12    1
    15    12    13    1
    16    13     1    1
    17     1     2    2
    18     1     3   am
    19     3     4    1
    20     3    23    1
    21    23    30    1
    22    30    31    1
    23    31    32    1
    24    32    33    1
    25    33    34    1
    26    34    35    1
    27    34    36    1
    28    23    24    1
    29    24    25   ar
    30    25    26   ar
    31    26    27   ar
    32    27    28   ar
    33    28    29   ar
    34    13    14    1
    35    10     5   ar
    36    36    31    1
    37    29    24   ar
    38    14     8    1
    39    15    16    1
    40    35    37    1
@<TRIPOS>MOLECULE
*****
 37 40 0 0 0
SMALL
GASTEIGER

@<TRIPOS>ATOM
      1 C           6.4398    0.1153   19.9794 C.2     1  UNL1        0.2661
      2 O           7.7168    0.7705   19.5438 O.2     1  UNL1       -0.2710
      3 N           5.8719   -1.0233   19.1849 N.am    1  UNL1       -0.2714
      4 C           6.5812   -1.5067   17.9547 C.3     1  UNL1        0.1153
      5 C           3.6958    1.2658   26.1759 C.ar    1  UNL1        0.0643
      6 C           4.4983   -0.0006   26.2217 C.ar    1  UNL1        0.0189
      7 C           5.2076   -0.4839   24.9916 C.ar    1  UNL1        0.0379
      8 C           5.1144    0.2991   23.7156 C.ar    1  UNL1        0.1351
      9 C           4.3118    1.5655   23.6698 C.ar    1  UNL1        0.0132
     10 C           3.6025    2.0488   24.8999 C.ar    1  UNL1        0.0146
     11 C           4.2186    2.3485   22.3938 C.3     1  UNL1        0.0337
     12 C           4.9279    1.8652   21.1636 C.3     1  UNL1        0.0579
     13 C           5.7305    0.5987   21.2095 C.3     1  UNL1        0.2415
     14 O           5.8237   -0.1843   22.4855 O.3     1  UNL1       -0.4703
     15 N           2.9864    1.7492   27.4060 N.pl3   1  UNL1       -0.2188
     16 H           3.1433    2.6628   27.7377 H       1  UNL1        0.1734
     17 S           2.0381    0.8407   28.1308 S.O2    1  UNL1        0.0539
     18 O           1.0979    0.8907   26.9631 O.2     1  UNL1       -0.1545
     19 O           2.9783    0.7908   29.2984 O.2     1  UNL1       -0.1545
     20 C           1.0897   -0.0678   28.8555 C.3     1  UNL1        0.1724
     21 C          -1.4661   -0.5341   28.8385 C.3     1  UNL1        0.0019
     22 C          -0.3144    0.3808   29.1328 C.3     1  UNL1        0.0273
     23 C           4.5949   -1.6785   19.6205 C.3     1  UNL1        0.1139
     24 C           3.3014   -0.9222   19.5485 C.ar    1  UNL1       -0.0029
     25 C           2.9957   -0.0714   18.3517 C.ar    1  UNL1       -0.0026
     26 C           1.7023    0.6848   18.2798 C.ar    1  UNL1       -0.0003
     27 C           0.7146    0.5902   19.4047 C.ar    1  UNL1       -0.0000
     28 C           1.0203   -0.2607   20.6016 C.ar    1  UNL1       -0.0003
     29 C           2.3137   -1.0169   20.6735 C.ar    1  UNL1       -0.0026
     30 C           4.6112   -3.0899   20.1281 C.3     1  UNL1        0.0968
     31 N           5.4281   -3.4433   21.3355 N.3     1  UNL1       -0.2689
     32 C           6.8844   -3.8025   21.3404 C.3     1  UNL1        0.0748
     33 C           7.2885   -4.0808   22.7579 C.3     1  UNL1        0.0480
     34 C           6.0818   -3.8935   23.6291 C.3     1  UNL1        0.1278
     35 O           6.0335   -4.0693   25.1180 O.3     1  UNL1       -0.3830
     36 C           4.9320   -3.4995   22.7500 C.3     1  UNL1        0.1017
     37 H           5.1351   -3.8882   25.4359 H       1  UNL1        0.2104
@<TRIPOS>BOND
     1    21    22    1
     2    22    20    1
     3    20    17    1
     4    17    18    2
     5    17    19    2
     6    17    15    1
     7    15     5    1
     8     5     6   ar
     9     6     7   ar
    10     7     8   ar
    11     8     9   ar
    12     9    10   ar
    13     9    11    1
    14    11    12    1
    15    12    13    1
    16    13     1    1
    17     1     2    2
    18     1     3   am
    19     3     4    1
    20     3    23    1
    21    23    30    1
    22    30    31    1
    23    31    32    1
    24    32    33    1
    25    33    34    1
    26    34    35    1
    27    34    36    1
    28    23    24    1
    29    24    25   ar
    30    25    26   ar
    31    26    27   ar
    32    27    28   ar
    33    28    29   ar
    34    13    14    1
    35    10     5   ar
    36    36    31    1
    37    29    24   ar
    38    14     8    1
    39    15    16    1
    40    35    37    1
@<TRIPOS>MOLECULE
*****
 37 40 0 0 0
SMALL
GASTEIGER

@<TRIPOS>ATOM
      1 C           3.9684   -2.5102   19.6900 C.2     1  UNL1        0.2661
      2 O           3.4300   -3.8827   19.4140 O.2     1  UNL1       -0.2710
      3 N           5.4201   -2.3263   20.0197 N.am    1  UNL1       -0.2714
      4 C           6.3334   -3.5149   20.0734 C.3     1  UNL1        0.1153
      5 C          -0.3128    2.7654   20.7341 C.ar    1  UNL1        0.0643
      6 C          -0.0274    2.0975   22.0465 C.ar    1  UNL1        0.0189
      7 C           0.8859    0.9088   22.1002 C.ar    1  UNL1        0.0379
      8 C           1.5138    0.3880   20.8415 C.ar    1  UNL1        0.1351
      9 C           1.2284    1.0559   19.5291 C.ar    1  UNL1        0.0132
     10 C           0.3151    2.2446   19.4754 C.ar    1  UNL1        0.0146
     11 C           1.8563    0.5351   18.2702 C.3     1  UNL1        0.0337
     12 C           2.7696   -0.6536   18.3239 C.3     1  UNL1        0.0579
     13 C           3.0550   -1.3215   19.6364 C.3     1  UNL1        0.2415
     14 O           2.4271   -0.8007   20.8951 O.3     1  UNL1       -0.4703
     15 N          -1.2261    3.9540   20.6805 N.pl3   1  UNL1       -0.2188
     16 H          -1.0042    4.7686   21.1870 H       1  UNL1        0.1734
     17 S          -2.4776    3.9017   19.8552 S.O2    1  UNL1        0.0539
     18 O          -1.9408    4.9891   18.9723 O.2     1  UNL1       -0.1545
     19 O          -3.0143    2.8143   20.7381 O.2     1  UNL1       -0.1545
     20 C          -3.7290    3.8494   19.0298 C.3     1  UNL1        0.1724
     21 C          -6.2442    3.2335   18.8181 C.3     1  UNL1        0.0019
     22 C          -5.0349    3.4822   19.6700 C.3     1  UNL1        0.0273
     23 C           5.9585   -0.9537   20.2958 C.3     1  UNL1        0.1139
     24 C           6.0097    0.0667   19.1975 C.ar    1  UNL1       -0.0029
     25 C           5.5531    1.4717   19.4573 C.ar    1  UNL1       -0.0026
     26 C           5.6044    2.4921   18.3590 C.ar    1  UNL1       -0.0003
     27 C           6.1122    2.1075   17.0010 C.ar    1  UNL1       -0.0000
     28 C           6.5688    0.7025   16.7413 C.ar    1  UNL1       -0.0003
     29 C           6.5175   -0.3179   17.8395 C.ar    1  UNL1       -0.0026
     30 C           6.4457   -0.6016   21.6701 C.3     1  UNL1        0.0968
     31 N           5.4740   -0.5075   22.8090 N.3     1  UNL1       -0.2689
     32 C           4.5888    0.6632   23.1184 C.3     1  UNL1        0.0748
     33 C           3.7848    0.3266   24.3391 C.3     1  UNL1        0.0480
     34 C           4.1730   -1.0523   24.7842 C.3     1  UNL1        0.1278
     35 O           3.6152   -1.7868   25.9671 O.3     1  UNL1       -0.3830
     36 C           5.2171   -1.5678   23.8384 C.3     1  UNL1        0.1017
     37 H           4.0346   -2.6589   26.0335 H       1  UNL1        0.2104
@<TRIPOS>BOND
     1    21    22    1
     2    22    20    1
     3    20    17    1
     4    17    18    2
     5    17    19    2
     6    17    15    1
     7    15     5    1
     8     5     6   ar
     9     6     7   ar
    10     7     8   ar
    11     8     9   ar
    12     9    10   ar
    13     9    11    1
    14    11    12    1
    15    12    13    1
    16    13     1    1
    17     1     2    2
    18     1     3   am
    19     3     4    1
    20     3    23    1
    21    23    30    1
    22    30    31    1
    23    31    32    1
    24    32    33    1
    25    33    34    1
    26    34    35    1
    27    34    36    1
    28    23    24    1
    29    24    25   ar
    30    25    26   ar
    31    26    27   ar
    32    27    28   ar
    33    28    29   ar
    34    13    14    1
    35    10     5   ar
    36    36    31    1
    37    29    24   ar
    38    14     8    1
    39    15    16    1
    40    35    37    1
@<TRIPOS>MOLECULE
*****
 37 40 0 0 0
SMALL
GASTEIGER

@<TRIPOS>ATOM
      1 C          -2.4485    3.2650   20.9290 C.2     1  UNL1        0.2661
      2 O          -3.7008    3.0572   20.1298 O.2     1  UNL1       -0.2710
      3 N          -2.5226    3.8920   22.2897 N.am    1  UNL1       -0.2714
      4 C          -3.8488    4.3112   22.8511 C.3     1  UNL1        0.1153
      5 C           3.4349    0.2518   19.0433 C.ar    1  UNL1        0.0643
      6 C           2.6870   -0.6653   19.9651 C.ar    1  UNL1        0.0189
      7 C           1.3607   -0.2460   20.5265 C.ar    1  UNL1        0.0379
      8 C           0.7824    1.0902   20.1663 C.ar    1  UNL1        0.1351
      9 C           1.5303    2.0073   19.2446 C.ar    1  UNL1        0.0132
     10 C           2.8566    1.5881   18.6831 C.ar    1  UNL1        0.0146
     11 C           0.9519    3.3436   18.8843 C.3     1  UNL1        0.0337
     12 C          -0.3744    3.7629   19.4457 C.3     1  UNL1        0.0579
     13 C          -1.1223    2.8457   20.3675 C.3     1  UNL1        0.2415
     14 O          -0.5439    1.5095   20.7277 O.3     1  UNL1       -0.4703
     15 N           4.7612   -0.1674   18.4819 N.pl3   1  UNL1       -0.2188
     16 H           5.4196    0.5136   18.2136 H       1  UNL1        0.1734
     17 S           5.0843   -1.6242   18.3292 S.O2    1  UNL1        0.0539
     18 O           5.8712   -1.5834   19.6055 O.2     1  UNL1       -0.1545
     19 O           4.2974   -1.6650   17.0528 O.2     1  UNL1       -0.1545
     20 C           5.4075   -3.0810   18.1765 C.3     1  UNL1        0.1724
     21 C           3.2822   -4.2452   19.1135 C.3     1  UNL1        0.0019
     22 C           4.7739   -4.0894   19.0885 C.3     1  UNL1        0.0273
     23 C          -1.2703    4.0997   23.0888 C.3     1  UNL1        0.1139
     24 C          -0.9236    3.1529   24.1995 C.ar    1  UNL1       -0.0029
     25 C          -1.5374    3.3316   25.5564 C.ar    1  UNL1       -0.0026
     26 C          -1.1907    2.3848   26.6669 C.ar    1  UNL1       -0.0003
     27 C          -0.2302    1.2593   26.4205 C.ar    1  UNL1       -0.0000
     28 C           0.3837    1.0806   25.0636 C.ar    1  UNL1       -0.0003
     29 C           0.0369    2.0274   23.9531 C.ar    1  UNL1       -0.0026
     30 C          -0.3647    5.2543   22.7775 C.3     1  UNL1        0.0968
     31 N           1.1065    5.1483   23.0502 N.3     1  UNL1       -0.2689
     32 C           2.1219    4.4878   22.1655 C.3     1  UNL1        0.0748
     33 C           3.4635    4.6154   22.8241 C.3     1  UNL1        0.0480
     34 C           3.2773    5.3549   24.1159 C.3     1  UNL1        0.1278
     35 O           4.3580    5.7038   25.0958 O.3     1  UNL1       -0.3830
     36 C           1.8205    5.6842   24.2556 C.3     1  UNL1        0.1017
     37 H           3.9719    6.1817   25.8464 H       1  UNL1        0.2104
@<TRIPOS>BOND
     1    21    22    1
     2    22    20    1
     3    20    17    1
     4    17    18    2
     5    17    19    2
     6    17    15    1
     7    15     5    1
     8     5     6   ar
     9     6     7   ar
    10     7     8   ar
    11     8     9   ar
    12     9    10   ar
    13     9    11    1
    14    11    12    1
    15    12    13    1
    16    13     1    1
    17     1     2    2
    18     1     3   am
    19     3     4    1
    20     3    23    1
    21    23    30    1
    22    30    31    1
    23    31    32    1
    24    32    33    1
    25    33    34    1
    26    34    35    1
    27    34    36    1
    28    23    24    1
    29    24    25   ar
    30    25    26   ar
    31    26    27   ar
    32    27    28   ar
    33    28    29   ar
    34    13    14    1
    35    10     5   ar
    36    36    31    1
    37    29    24   ar
    38    14     8    1
    39    15    16    1
    40    35    37    1
