@<TRIPOS>MOLECULE
*****
 33 37 0 0 0
SMALL
GASTEIGER

@<TRIPOS>ATOM
      1 O          -0.2215  -18.1595   21.2958 O.2     1  UNL1       -0.1730
      2 S          -1.6328  -18.4909   20.9107 S.O2    1  UNL1       -0.0100
      3 O          -0.8984  -19.0864   19.7462 O.2     1  UNL1       -0.1730
      4 C          -2.7891  -19.0291   20.1212 C.3     1  UNL1        0.1508
      5 C          -4.1896  -18.8567   20.6299 C.3     1  UNL1        0.0255
      6 C          -4.4339  -18.1462   21.9281 C.3     1  UNL1        0.0087
      7 C          -4.6782  -17.4356   23.2263 C.3     1  UNL1        0.0004
      8 C          -6.0787  -17.2633   23.7351 C.3     1  UNL1        0.0020
      9 C          -7.2350  -17.8014   22.9456 C.3     1  UNL1        0.0268
     10 C          -6.9907  -18.5120   21.6473 C.3     1  UNL1        0.1419
     11 C          -8.1470  -19.0502   20.8578 C.ar    1  UNL1        0.0616
     12 C          -9.5476  -18.8778   21.3665 C.ar    1  UNL1        0.1407
     13 F         -10.1417  -18.2395   22.5869 F       1  UNL1       -0.2043
     14 C         -10.7038  -19.4160   20.5770 C.ar    1  UNL1        0.0319
     15 C         -10.4596  -20.1266   19.2787 C.ar    1  UNL1        0.0351
     16 C          -9.0591  -20.2989   18.7700 C.ar    1  UNL1        0.1737
     17 F          -8.8148  -21.0095   17.4717 F       1  UNL1       -0.2010
     18 C          -7.9028  -19.7607   19.5595 C.ar    1  UNL1        0.1654
     19 O          -6.5022  -19.9331   19.0508 O.3     1  UNL1       -0.4733
     20 C          -5.3460  -19.3949   19.8403 C.3     1  UNL1        0.2074
     21 C          -5.5902  -18.6843   21.1386 C.3     1  UNL1        0.0685
     22 C          -3.2776  -17.6080   22.7176 C.3     1  UNL1        0.0255
     23 C          -1.8771  -17.7804   22.2089 C.3     1  UNL1        0.1508
     24 S          -8.3913  -18.3396   22.1561 S.O2    1  UNL1        0.0093
     25 O          -8.6944  -18.9130   22.6195 O.2     1  UNL1       -0.1684
     26 O          -8.8261  -17.0232   21.5833 O.2     1  UNL1       -0.1684
     27 C          -9.7918  -18.1672   22.6648 C.ar    1  UNL1        0.1059
     28 C         -10.3666  -19.1608   23.6303 C.ar    1  UNL1        0.0192
     29 C         -11.7672  -18.9885   24.1390 C.ar    1  UNL1        0.0127
     30 C         -12.5929  -17.8225   23.6822 C.ar    1  UNL1        0.0578
     31 CL        -13.9934  -17.6501   24.1909 Cl      1  UNL1       -0.0822
     32 C         -12.0180  -16.8288   22.7166 C.ar    1  UNL1        0.0127
     33 C         -10.6175  -17.0012   22.2079 C.ar    1  UNL1        0.0192
@<TRIPOS>BOND
     1     1     2    2
     2     2     3    2
     3     2     4    1
     4     4     5    1
     5     5     6    1
     6     6     7    1
     7     7     8    1
     8     8     9    1
     9     9    10    1
    10    10    24    1
    11    24    25    2
    12    24    26    2
    13    24    27    1
    14    27    28   ar
    15    28    29   ar
    16    29    30   ar
    17    30    31    1
    18    30    32   ar
    19    32    33   ar
    20    10    11    1
    21    11    12   ar
    22    12    13    1
    23    12    14   ar
    24    14    15   ar
    25    15    16   ar
    26    16    17    1
    27    16    18   ar
    28    18    19    1
    29    19    20    1
    30    21    20    1
    31     6    22    1
    32    22    23    1
    33    23     2    1
    34    21     6    1
    35    21    10    1
    36    33    27   ar
    37    18    11   ar
@<TRIPOS>MOLECULE
*****
 33 37 0 0 0
SMALL
GASTEIGER

@<TRIPOS>ATOM
      1 O         -18.1260  -10.8495   18.1429 O.2     1  UNL1       -0.1730
      2 S         -16.8856  -10.0148   18.2652 S.O2    1  UNL1       -0.0100
      3 O         -16.3379  -11.3547   18.6589 O.2     1  UNL1       -0.1730
      4 C         -15.4551   -9.6455   18.5242 C.3     1  UNL1        0.1508
      5 C         -15.0031   -8.2263   18.3471 C.3     1  UNL1        0.0255
      6 C         -15.9815   -7.1763   17.9109 C.3     1  UNL1        0.0087
      7 C         -16.9600   -6.1264   17.4748 C.3     1  UNL1        0.0004
      8 C         -16.5079   -4.7072   17.2977 C.3     1  UNL1        0.0020
      9 C         -15.0774   -4.3379   17.5567 C.3     1  UNL1        0.0268
     10 C         -14.0989   -5.3878   17.9928 C.3     1  UNL1        0.1419
     11 C         -12.6683   -5.0184   18.2519 C.ar    1  UNL1        0.0616
     12 C         -12.2162   -3.5992   18.0747 C.ar    1  UNL1        0.1407
     13 F         -12.9027   -2.3306   17.6630 F       1  UNL1       -0.2043
     14 C         -10.7857   -3.2299   18.3338 C.ar    1  UNL1        0.0319
     15 C          -9.8072   -4.2798   18.7699 C.ar    1  UNL1        0.0351
     16 C         -10.2592   -5.6990   18.9471 C.ar    1  UNL1        0.1737
     17 F          -9.2808   -6.7489   19.3832 F       1  UNL1       -0.2010
     18 C         -11.6899   -6.0683   18.6880 C.ar    1  UNL1        0.1654
     19 O         -12.1419   -7.4876   18.8652 O.3     1  UNL1       -0.4733
     20 C         -13.5724   -7.8569   18.6061 C.3     1  UNL1        0.2074
     21 C         -14.5510   -6.8070   18.1700 C.3     1  UNL1        0.0685
     22 C         -17.4120   -7.5457   17.6519 C.3     1  UNL1        0.0255
     23 C         -17.8641   -8.9649   17.8291 C.3     1  UNL1        0.1508
     24 S         -13.6469   -3.9685   17.8157 S.O2    1  UNL1        0.0093
     25 O         -13.4341   -3.7319   17.0848 O.2     1  UNL1       -0.1684
     26 O         -13.7441   -3.3820   19.1928 O.2     1  UNL1       -0.1684
     27 C         -13.1948   -2.5493   17.6386 C.ar    1  UNL1        0.1059
     28 C         -13.3014   -1.5803   18.7786 C.ar    1  UNL1        0.0192
     29 C         -12.8494   -0.1611   18.6015 C.ar    1  UNL1        0.0127
     30 C         -12.2907    0.2892   17.2843 C.ar    1  UNL1        0.0578
     31 CL        -11.8386    1.7085   17.1072 Cl      1  UNL1       -0.0822
     32 C         -12.1840   -0.6797   16.1442 C.ar    1  UNL1        0.0127
     33 C         -12.6360   -2.0990   16.3213 C.ar    1  UNL1        0.0192
@<TRIPOS>BOND
     1     1     2    2
     2     2     3    2
     3     2     4    1
     4     4     5    1
     5     5     6    1
     6     6     7    1
     7     7     8    1
     8     8     9    1
     9     9    10    1
    10    10    24    1
    11    24    25    2
    12    24    26    2
    13    24    27    1
    14    27    28   ar
    15    28    29   ar
    16    29    30   ar
    17    30    31    1
    18    30    32   ar
    19    32    33   ar
    20    10    11    1
    21    11    12   ar
    22    12    13    1
    23    12    14   ar
    24    14    15   ar
    25    15    16   ar
    26    16    17    1
    27    16    18   ar
    28    18    19    1
    29    19    20    1
    30    21    20    1
    31     6    22    1
    32    22    23    1
    33    23     2    1
    34    21     6    1
    35    21    10    1
    36    33    27   ar
    37    18    11   ar
@<TRIPOS>MOLECULE
*****
 33 37 0 0 0
SMALL
GASTEIGER

@<TRIPOS>ATOM
      1 O         -18.4609   -9.9140   19.7889 O.2     1  UNL1       -0.1730
      2 S         -17.3454   -8.9198   19.6568 S.O2    1  UNL1       -0.0100
      3 O         -16.5564  -10.1564   19.9706 O.2     1  UNL1       -0.1730
      4 C         -15.9560   -8.3552   19.6336 C.3     1  UNL1        0.1508
      5 C         -15.7428   -6.8992   19.3426 C.3     1  UNL1        0.0255
      6 C         -16.9192   -6.0079   19.0746 C.3     1  UNL1        0.0087
      7 C         -18.0955   -5.1166   18.8067 C.3     1  UNL1        0.0004
      8 C         -17.8823   -3.6606   18.5157 C.3     1  UNL1        0.0020
      9 C         -16.4929   -3.0959   18.4925 C.3     1  UNL1        0.0268
     10 C         -15.3166   -3.9872   18.7604 C.3     1  UNL1        0.1419
     11 C         -13.9271   -3.4226   18.7373 C.ar    1  UNL1        0.0616
     12 C         -13.7139   -1.9666   18.4462 C.ar    1  UNL1        0.1407
     13 F         -14.6315   -0.8195   18.1424 F       1  UNL1       -0.2043
     14 C         -12.3245   -1.4019   18.4231 C.ar    1  UNL1        0.0319
     15 C         -11.1481   -2.2933   18.6910 C.ar    1  UNL1        0.0351
     16 C         -11.3612   -3.7492   18.9821 C.ar    1  UNL1        0.1737
     17 F         -10.1849   -4.6405   19.2500 F       1  UNL1       -0.2010
     18 C         -12.7508   -4.3139   19.0052 C.ar    1  UNL1        0.1654
     19 O         -12.9639   -5.7699   19.2963 O.3     1  UNL1       -0.4733
     20 C         -14.3533   -6.3345   19.3194 C.3     1  UNL1        0.2074
     21 C         -15.5297   -5.4432   19.0515 C.3     1  UNL1        0.0685
     22 C         -18.3086   -6.5725   19.0978 C.3     1  UNL1        0.0255
     23 C         -18.5217   -8.0285   19.3889 C.3     1  UNL1        0.1508
     24 S         -15.1035   -2.5313   18.4694 S.O2    1  UNL1        0.0093
     25 O         -15.1311   -2.2936   17.7090 O.2     1  UNL1       -0.1684
     26 O         -14.8849   -1.9190   19.8212 O.2     1  UNL1       -0.1684
     27 C         -14.8904   -1.0753   18.1783 C.ar    1  UNL1        0.1059
     28 C         -14.5240   -0.6332   16.7926 C.ar    1  UNL1        0.0192
     29 C         -14.3109    0.8227   16.5015 C.ar    1  UNL1        0.0127
     30 C         -14.4641    1.8367   17.5962 C.ar    1  UNL1        0.0578
     31 CL        -14.2510    3.2926   17.3051 Cl      1  UNL1       -0.0822
     32 C         -14.8305    1.3947   18.9820 C.ar    1  UNL1        0.0127
     33 C         -15.0436   -0.0613   19.2731 C.ar    1  UNL1        0.0192
@<TRIPOS>BOND
     1     1     2    2
     2     2     3    2
     3     2     4    1
     4     4     5    1
     5     5     6    1
     6     6     7    1
     7     7     8    1
     8     8     9    1
     9     9    10    1
    10    10    24    1
    11    24    25    2
    12    24    26    2
    13    24    27    1
    14    27    28   ar
    15    28    29   ar
    16    29    30   ar
    17    30    31    1
    18    30    32   ar
    19    32    33   ar
    20    10    11    1
    21    11    12   ar
    22    12    13    1
    23    12    14   ar
    24    14    15   ar
    25    15    16   ar
    26    16    17    1
    27    16    18   ar
    28    18    19    1
    29    19    20    1
    30    21    20    1
    31     6    22    1
    32    22    23    1
    33    23     2    1
    34    21     6    1
    35    21    10    1
    36    33    27   ar
    37    18    11   ar
@<TRIPOS>MOLECULE
*****
 33 37 0 0 0
SMALL
GASTEIGER

@<TRIPOS>ATOM
      1 O           4.9837   -4.1292   18.4666 O.2     1  UNL1       -0.1730
      2 S           4.8002   -3.5773   19.8493 S.O2    1  UNL1       -0.0100
      3 O           5.8108   -4.6500   20.1290 O.2     1  UNL1       -0.1730
      4 C           4.9676   -3.3979   21.3290 C.3     1  UNL1        0.1508
      5 C           4.1883   -2.3376   22.0489 C.3     1  UNL1        0.0255
      6 C           3.2415   -1.4566   21.2891 C.3     1  UNL1        0.0087
      7 C           2.2947   -0.5757   20.5292 C.3     1  UNL1        0.0004
      8 C           1.5153    0.4847   21.2491 C.3     1  UNL1        0.0020
      9 C           1.6827    0.6641   22.7289 C.3     1  UNL1        0.0268
     10 C           2.6295   -0.2169   23.4887 C.3     1  UNL1        0.1419
     11 C           2.7970   -0.0375   24.9686 C.ar    1  UNL1        0.0616
     12 C           2.0176    1.0228   25.6885 C.ar    1  UNL1        0.1407
     13 F           1.0135    2.0508   25.2584 F       1  UNL1       -0.2043
     14 C           2.1851    1.2022   27.1682 C.ar    1  UNL1        0.0319
     15 C           3.1319    0.3212   27.9282 C.ar    1  UNL1        0.0351
     16 C           3.9113   -0.7391   27.2083 C.ar    1  UNL1        0.1737
     17 F           4.8581   -1.6201   27.9681 F       1  UNL1       -0.2010
     18 C           3.7438   -0.9185   25.7284 C.ar    1  UNL1        0.1654
     19 O           4.5232   -1.9788   25.0085 O.3     1  UNL1       -0.4733
     20 C           4.3557   -2.1582   23.5288 C.3     1  UNL1        0.2074
     21 C           3.4089   -1.2772   22.7688 C.3     1  UNL1        0.0685
     22 C           3.0740   -1.6360   19.8093 C.3     1  UNL1        0.0255
     23 C           3.8534   -2.6963   19.0894 C.3     1  UNL1        0.1508
     24 S           1.8502    0.8434   24.2086 S.O2    1  UNL1        0.0093
     25 O           1.1183    0.6602   24.4661 O.2     1  UNL1       -0.1684
     26 O           2.7728    2.0261   24.2219 O.2     1  UNL1       -0.1684
     27 C           1.0708    1.9038   24.9285 C.ar    1  UNL1        0.1059
     28 C           1.6233    3.2937   25.0422 C.ar    1  UNL1        0.0192
     29 C           0.8439    4.3540   25.7621 C.ar    1  UNL1        0.0127
     30 C          -0.4880    4.0245   26.3684 C.ar    1  UNL1        0.0578
     31 CL         -1.2673    5.0848   27.0883 Cl      1  UNL1       -0.0822
     32 C          -1.0405    2.6345   26.2547 C.ar    1  UNL1        0.0127
     33 C          -0.2611    1.5742   25.5348 C.ar    1  UNL1        0.0192
@<TRIPOS>BOND
     1     1     2    2
     2     2     3    2
     3     2     4    1
     4     4     5    1
     5     5     6    1
     6     6     7    1
     7     7     8    1
     8     8     9    1
     9     9    10    1
    10    10    24    1
    11    24    25    2
    12    24    26    2
    13    24    27    1
    14    27    28   ar
    15    28    29   ar
    16    29    30   ar
    17    30    31    1
    18    30    32   ar
    19    32    33   ar
    20    10    11    1
    21    11    12   ar
    22    12    13    1
    23    12    14   ar
    24    14    15   ar
    25    15    16   ar
    26    16    17    1
    27    16    18   ar
    28    18    19    1
    29    19    20    1
    30    21    20    1
    31     6    22    1
    32    22    23    1
    33    23     2    1
    34    21     6    1
    35    21    10    1
    36    33    27   ar
    37    18    11   ar
@<TRIPOS>MOLECULE
*****
 33 37 0 0 0
SMALL
GASTEIGER

@<TRIPOS>ATOM
      1 O          -4.7016    4.5388   27.4725 O.2     1  UNL1       -0.1730
      2 S          -4.3217    4.4802   26.0225 S.O2    1  UNL1       -0.0100
      3 O          -5.6250    5.2158   25.9208 O.2     1  UNL1       -0.1730
      4 C          -4.3945    4.6771   24.5373 C.3     1  UNL1        0.1508
      5 C          -3.2959    4.1588   23.6573 C.3     1  UNL1        0.0255
      6 C          -2.1245    3.4436   24.2625 C.3     1  UNL1        0.0087
      7 C          -0.9531    2.7283   24.8677 C.3     1  UNL1        0.0004
      8 C           0.1455    2.2100   23.9877 C.3     1  UNL1        0.0020
      9 C           0.0727    2.4069   22.5025 C.3     1  UNL1        0.0268
     10 C          -1.0987    3.1221   21.8973 C.3     1  UNL1        0.1419
     11 C          -1.1715    3.3190   20.4120 C.ar    1  UNL1        0.0616
     12 C          -0.0729    2.8007   19.5320 C.ar    1  UNL1        0.1407
     13 F           1.2070    2.0618   19.7889 F       1  UNL1       -0.2043
     14 C          -0.1456    2.9976   18.0468 C.ar    1  UNL1        0.0319
     15 C          -1.3170    3.7128   17.4415 C.ar    1  UNL1        0.0351
     16 C          -2.4156    4.2312   18.3215 C.ar    1  UNL1        0.1737
     17 F          -3.5870    4.9464   17.7163 F       1  UNL1       -0.2010
     18 C          -2.3428    4.0342   19.8068 C.ar    1  UNL1        0.1654
     19 O          -3.4414    4.5526   20.6868 O.3     1  UNL1       -0.4733
     20 C          -3.3687    4.3557   22.1720 C.3     1  UNL1        0.2074
     21 C          -2.1973    3.6404   22.7773 C.3     1  UNL1        0.0685
     22 C          -2.0517    3.2467   25.7477 C.3     1  UNL1        0.0255
     23 C          -3.1503    3.7650   26.6277 C.3     1  UNL1        0.1508
     24 S          -0.0001    2.6038   21.0173 S.O2    1  UNL1        0.0093
     25 O           0.6220    3.0813   20.8746 O.2     1  UNL1       -0.1684
     26 O          -0.4537    1.2232   20.6454 O.2     1  UNL1       -0.1684
     27 C           1.0985    2.0854   20.1373 C.ar    1  UNL1        0.1059
     28 C           2.2648    2.9650   19.7968 C.ar    1  UNL1        0.0192
     29 C           3.3634    2.4467   18.9168 C.ar    1  UNL1        0.0127
     30 C           3.2957    1.0487   18.3773 C.ar    1  UNL1        0.0578
     31 CL          4.3943    0.5304   17.4973 Cl      1  UNL1       -0.0822
     32 C           2.1294    0.1690   18.7179 C.ar    1  UNL1        0.0127
     33 C           1.0308    0.6874   19.5979 C.ar    1  UNL1        0.0192
@<TRIPOS>BOND
     1     1     2    2
     2     2     3    2
     3     2     4    1
     4     4     5    1
     5     5     6    1
     6     6     7    1
     7     7     8    1
     8     8     9    1
     9     9    10    1
    10    10    24    1
    11    24    25    2
    12    24    26    2
    13    24    27    1
    14    27    28   ar
    15    28    29   ar
    16    29    30   ar
    17    30    31    1
    18    30    32   ar
    19    32    33   ar
    20    10    11    1
    21    11    12   ar
    22    12    13    1
    23    12    14   ar
    24    14    15   ar
    25    15    16   ar
    26    16    17    1
    27    16    18   ar
    28    18    19    1
    29    19    20    1
    30    21    20    1
    31     6    22    1
    32    22    23    1
    33    23     2    1
    34    21     6    1
    35    21    10    1
    36    33    27   ar
    37    18    11   ar
@<TRIPOS>MOLECULE
*****
 33 37 0 0 0
SMALL
GASTEIGER

@<TRIPOS>ATOM
      1 O           7.5314   -3.9437   28.5664 O.2     1  UNL1       -0.1730
      2 S           7.0739   -3.9304   27.1379 S.O2    1  UNL1       -0.0100
      3 O           7.8682   -5.2029   27.1453 O.2     1  UNL1       -0.1730
      4 C           6.8923   -4.3591   25.7121 C.3     1  UNL1        0.1508
      5 C           6.0752   -3.5200   24.7749 C.3     1  UNL1        0.0255
      6 C           5.4399   -2.2521   25.2636 C.3     1  UNL1        0.0087
      7 C           4.8045   -0.9843   25.7523 C.3     1  UNL1        0.0004
      8 C           3.9875   -0.1452   24.8151 C.3     1  UNL1        0.0020
      9 C           3.8058   -0.5739   23.3892 C.3     1  UNL1        0.0268
     10 C           4.4412   -1.8417   22.9005 C.3     1  UNL1        0.1419
     11 C           4.2596   -2.2704   21.4745 C.ar    1  UNL1        0.0616
     12 C           3.4426   -1.4313   20.5374 C.ar    1  UNL1        0.1407
     13 F           2.6866   -0.1438   20.6815 F       1  UNL1       -0.2043
     14 C           3.2609   -1.8599   19.1115 C.ar    1  UNL1        0.0319
     15 C           3.8963   -3.1278   18.6227 C.ar    1  UNL1        0.0351
     16 C           4.7133   -3.9670   19.5599 C.ar    1  UNL1        0.1737
     17 F           5.3487   -5.2348   19.0712 F       1  UNL1       -0.2010
     18 C           4.8949   -3.5382   20.9858 C.ar    1  UNL1        0.1654
     19 O           5.7120   -4.3774   21.9230 O.3     1  UNL1       -0.4733
     20 C           5.8936   -3.9487   23.3489 C.3     1  UNL1        0.2074
     21 C           5.2582   -2.6808   23.8377 C.3     1  UNL1        0.0685
     22 C           5.6215   -1.8235   26.6894 C.3     1  UNL1        0.0255
     23 C           6.4385   -2.6626   27.6266 C.3     1  UNL1        0.1508
     24 S           3.6242   -1.0025   21.9633 S.O2    1  UNL1        0.0093
     25 O           2.8301   -1.0517   22.0124 O.2     1  UNL1       -0.1684
     26 O           4.6470   -0.2647   21.1513 O.2     1  UNL1       -0.1684
     27 C           2.8072   -0.1634   21.0261 C.ar    1  UNL1        0.1059
     28 C           3.4449    0.9791   20.2927 C.ar    1  UNL1        0.0192
     29 C           2.6279    1.8182   19.3555 C.ar    1  UNL1        0.0127
     30 C           1.1731    1.5149   19.1518 C.ar    1  UNL1        0.0578
     31 CL          0.3561    2.3541   18.2146 Cl      1  UNL1       -0.0822
     32 C           0.5353    0.3724   19.8852 C.ar    1  UNL1        0.0127
     33 C           1.3523   -0.4667   20.8224 C.ar    1  UNL1        0.0192
@<TRIPOS>BOND
     1     1     2    2
     2     2     3    2
     3     2     4    1
     4     4     5    1
     5     5     6    1
     6     6     7    1
     7     7     8    1
     8     8     9    1
     9     9    10    1
    10    10    24    1
    11    24    25    2
    12    24    26    2
    13    24    27    1
    14    27    28   ar
    15    28    29   ar
    16    29    30   ar
    17    30    31    1
    18    30    32   ar
    19    32    33   ar
    20    10    11    1
    21    11    12   ar
    22    12    13    1
    23    12    14   ar
    24    14    15   ar
    25    15    16   ar
    26    16    17    1
    27    16    18   ar
    28    18    19    1
    29    19    20    1
    30    21    20    1
    31     6    22    1
    32    22    23    1
    33    23     2    1
    34    21     6    1
    35    21    10    1
    36    33    27   ar
    37    18    11   ar
@<TRIPOS>MOLECULE
*****
 33 37 0 0 0
SMALL
GASTEIGER

@<TRIPOS>ATOM
      1 O           8.4426   -8.0439   25.7443 O.2     1  UNL1       -0.1730
      2 S           7.8554   -6.7636   26.2602 S.O2    1  UNL1       -0.0100
      3 O           7.6781   -6.5558   24.7853 O.2     1  UNL1       -0.1730
      4 C           7.2066   -5.4112   26.2639 C.3     1  UNL1        0.1508
      5 C           6.9391   -4.7112   27.5633 C.3     1  UNL1        0.0255
      6 C           7.3203   -5.3637   28.8590 C.3     1  UNL1        0.0087
      7 C           7.7015   -6.0161   30.1548 C.3     1  UNL1        0.0004
      8 C           7.4339   -5.3161   31.4542 C.3     1  UNL1        0.0020
      9 C           6.7852   -3.9637   31.4579 C.3     1  UNL1        0.0268
     10 C           6.4040   -3.3113   30.1621 C.3     1  UNL1        0.1419
     11 C           5.7552   -1.9588   30.1658 C.ar    1  UNL1        0.0616
     12 C           5.4876   -1.2589   31.4652 C.ar    1  UNL1        0.1407
     13 F           5.7295   -1.6053   32.9044 F       1  UNL1       -0.2043
     14 C           4.8388    0.0935   31.4688 C.ar    1  UNL1        0.0319
     15 C           4.4576    0.7460   30.1731 C.ar    1  UNL1        0.0351
     16 C           4.7251    0.0461   28.8737 C.ar    1  UNL1        0.1737
     17 F           4.3439    0.6985   27.5779 F       1  UNL1       -0.2010
     18 C           5.3740   -1.3064   28.8700 C.ar    1  UNL1        0.1654
     19 O           5.6415   -2.0064   27.5706 O.3     1  UNL1       -0.4733
     20 C           6.2903   -3.3588   27.5669 C.3     1  UNL1        0.2074
     21 C           6.6715   -4.0113   28.8627 C.3     1  UNL1        0.0685
     22 C           7.9691   -6.7161   28.8554 C.3     1  UNL1        0.0255
     23 C           8.2366   -7.4160   27.5560 C.3     1  UNL1        0.1508
     24 S           6.1364   -2.6113   31.4615 S.O2    1  UNL1        0.0093
     25 O           5.5249   -2.8661   31.9049 O.2     1  UNL1       -0.1684
     26 O           7.1982   -1.5540   31.5296 O.2     1  UNL1       -0.1684
     27 C           5.8688   -1.9114   32.7609 C.ar    1  UNL1        0.1059
     28 C           4.5364   -2.0614   33.4332 C.ar    1  UNL1        0.0192
     29 C           4.2688   -1.3615   34.7326 C.ar    1  UNL1        0.0127
     30 C           5.3337   -0.5114   35.3597 C.ar    1  UNL1        0.0578
     31 CL          5.0662    0.1885   36.6592 Cl      1  UNL1       -0.0822
     32 C           6.6663   -0.3613   34.6875 C.ar    1  UNL1        0.0127
     33 C           6.9338   -1.0613   33.3881 C.ar    1  UNL1        0.0192
@<TRIPOS>BOND
     1     1     2    2
     2     2     3    2
     3     2     4    1
     4     4     5    1
     5     5     6    1
     6     6     7    1
     7     7     8    1
     8     8     9    1
     9     9    10    1
    10    10    24    1
    11    24    25    2
    12    24    26    2
    13    24    27    1
    14    27    28   ar
    15    28    29   ar
    16    29    30   ar
    17    30    31    1
    18    30    32   ar
    19    32    33   ar
    20    10    11    1
    21    11    12   ar
    22    12    13    1
    23    12    14   ar
    24    14    15   ar
    25    15    16   ar
    26    16    17    1
    27    16    18   ar
    28    18    19    1
    29    19    20    1
    30    21    20    1
    31     6    22    1
    32    22    23    1
    33    23     2    1
    34    21     6    1
    35    21    10    1
    36    33    27   ar
    37    18    11   ar
@<TRIPOS>MOLECULE
*****
 33 37 0 0 0
SMALL
GASTEIGER

@<TRIPOS>ATOM
      1 O           5.5368   -4.6640   19.9047 O.2     1  UNL1       -0.1730
      2 S           4.5685   -3.5302   20.0690 S.O2    1  UNL1       -0.0100
      3 O           4.3907   -3.8149   18.6070 O.2     1  UNL1       -0.1730
      4 C           3.5385   -2.4953   19.7256 C.3     1  UNL1        0.1508
      5 C           3.0225   -1.5695   20.7870 C.3     1  UNL1        0.0255
      6 C           3.5366   -1.6786   22.1919 C.3     1  UNL1        0.0087
      7 C           4.0508   -1.7877   23.5968 C.3     1  UNL1        0.0004
      8 C           3.5348   -0.8619   24.6583 C.3     1  UNL1        0.0020
      9 C           2.5048    0.1730   24.3149 C.3     1  UNL1        0.0268
     10 C           1.9907    0.2821   22.9100 C.3     1  UNL1        0.1419
     11 C           0.9606    1.3170   22.5665 C.ar    1  UNL1        0.0616
     12 C           0.4446    2.2428   23.6279 C.ar    1  UNL1        0.1407
     13 F           0.7275    2.4108   25.0914 F       1  UNL1       -0.2043
     14 C          -0.5854    3.2777   23.2845 C.ar    1  UNL1        0.0319
     15 C          -1.0996    3.3868   21.8796 C.ar    1  UNL1        0.0351
     16 C          -0.5836    2.4610   20.8181 C.ar    1  UNL1        0.1737
     17 F          -1.0977    2.5701   19.4132 F       1  UNL1       -0.2010
     18 C           0.4465    1.4261   21.1616 C.ar    1  UNL1        0.1654
     19 O           0.9624    0.5003   20.1001 O.3     1  UNL1       -0.4733
     20 C           1.9924   -0.5346   20.4436 C.3     1  UNL1        0.2074
     21 C           2.5066   -0.6437   21.8485 C.3     1  UNL1        0.0685
     22 C           4.5667   -2.7135   22.5353 C.3     1  UNL1        0.0255
     23 C           5.0826   -3.6393   21.4739 C.3     1  UNL1        0.1508
     24 S           1.4747    1.2079   23.9714 S.O2    1  UNL1        0.0093
     25 O           0.8412    0.9750   24.3955 O.2     1  UNL1       -0.1684
     26 O           2.3937    2.3912   23.8990 O.2     1  UNL1       -0.1684
     27 C           0.9588    2.1337   25.0329 C.ar    1  UNL1        0.1059
     28 C           1.6500    3.4399   25.2894 C.ar    1  UNL1        0.0192
     29 C           1.1341    4.3657   26.3509 C.ar    1  UNL1        0.0127
     30 C          -0.0731    3.9853   27.1558 C.ar    1  UNL1        0.0578
     31 CL         -0.5890    4.9111   28.2173 Cl      1  UNL1       -0.0822
     32 C          -0.7644    2.6790   26.8993 C.ar    1  UNL1        0.0127
     33 C          -0.2484    1.7532   25.8378 C.ar    1  UNL1        0.0192
@<TRIPOS>BOND
     1     1     2    2
     2     2     3    2
     3     2     4    1
     4     4     5    1
     5     5     6    1
     6     6     7    1
     7     7     8    1
     8     8     9    1
     9     9    10    1
    10    10    24    1
    11    24    25    2
    12    24    26    2
    13    24    27    1
    14    27    28   ar
    15    28    29   ar
    16    29    30   ar
    17    30    31    1
    18    30    32   ar
    19    32    33   ar
    20    10    11    1
    21    11    12   ar
    22    12    13    1
    23    12    14   ar
    24    14    15   ar
    25    15    16   ar
    26    16    17    1
    27    16    18   ar
    28    18    19    1
    29    19    20    1
    30    21    20    1
    31     6    22    1
    32    22    23    1
    33    23     2    1
    34    21     6    1
    35    21    10    1
    36    33    27   ar
    37    18    11   ar
@<TRIPOS>MOLECULE
*****
 33 37 0 0 0
SMALL
GASTEIGER

@<TRIPOS>ATOM
      1 O           6.0887   -2.6201   17.6864 O.2     1  UNL1       -0.1730
      2 S           5.3751   -1.3143   17.8750 S.O2    1  UNL1       -0.0100
      3 O           6.5453   -0.8558   17.0562 O.2     1  UNL1       -0.1730
      4 C           5.0679    0.1508   17.7792 C.3     1  UNL1        0.1508
      5 C           3.8383    0.7039   18.4366 C.3     1  UNL1        0.0255
      6 C           2.9159   -0.2081   19.1899 C.3     1  UNL1        0.0087
      7 C           1.9935   -1.1201   19.9431 C.3     1  UNL1        0.0004
      8 C           0.7639   -0.5670   20.6005 C.3     1  UNL1        0.0020
      9 C           0.4567    0.8980   20.5048 C.3     1  UNL1        0.0268
     10 C           1.3792    1.8100   19.7515 C.3     1  UNL1        0.1419
     11 C           1.0720    3.2752   19.6557 C.ar    1  UNL1        0.0616
     12 C          -0.1576    3.8282   20.3132 C.ar    1  UNL1        0.1407
     13 F          -1.2672    3.2252   21.1225 F       1  UNL1       -0.2043
     14 C          -0.4647    5.2933   20.2174 C.ar    1  UNL1        0.0319
     15 C           0.4577    6.2054   19.4642 C.ar    1  UNL1        0.0351
     16 C           1.6873    5.6523   18.8067 C.ar    1  UNL1        0.1737
     17 F           2.6097    6.5643   18.0535 F       1  UNL1       -0.2010
     18 C           1.9944    4.1871   18.9025 C.ar    1  UNL1        0.1654
     19 O           3.2240    3.6341   18.2451 O.3     1  UNL1       -0.4733
     20 C           3.5312    2.1690   18.3408 C.3     1  UNL1        0.2074
     21 C           2.6087    1.2569   19.0941 C.3     1  UNL1        0.0685
     22 C           3.2231   -1.6732   19.2856 C.3     1  UNL1        0.0255
     23 C           4.4526   -2.2262   18.6282 C.3     1  UNL1        0.1508
     24 S           0.1496    2.3631   20.4090 S.O2    1  UNL1        0.0093
     25 O          -0.5349    2.3417   20.0009 O.2     1  UNL1       -0.1684
     26 O           0.6329    2.8266   21.7512 O.2     1  UNL1       -0.1684
     27 C          -1.0800    2.9162   21.0665 C.ar    1  UNL1        0.1059
     28 C          -2.3540    3.0463   20.2855 C.ar    1  UNL1        0.0192
     29 C          -3.5836    3.5993   20.9429 C.ar    1  UNL1        0.0127
     30 C          -3.5392    4.0223   22.3814 C.ar    1  UNL1        0.0578
     31 CL         -4.7687    4.5754   23.0388 Cl      1  UNL1       -0.0822
     32 C          -2.2651    3.8922   23.1624 C.ar    1  UNL1        0.0127
     33 C          -1.0355    3.3391   22.5049 C.ar    1  UNL1        0.0192
@<TRIPOS>BOND
     1     1     2    2
     2     2     3    2
     3     2     4    1
     4     4     5    1
     5     5     6    1
     6     6     7    1
     7     7     8    1
     8     8     9    1
     9     9    10    1
    10    10    24    1
    11    24    25    2
    12    24    26    2
    13    24    27    1
    14    27    28   ar
    15    28    29   ar
    16    29    30   ar
    17    30    31    1
    18    30    32   ar
    19    32    33   ar
    20    10    11    1
    21    11    12   ar
    22    12    13    1
    23    12    14   ar
    24    14    15   ar
    25    15    16   ar
    26    16    17    1
    27    16    18   ar
    28    18    19    1
    29    19    20    1
    30    21    20    1
    31     6    22    1
    32    22    23    1
    33    23     2    1
    34    21     6    1
    35    21    10    1
    36    33    27   ar
    37    18    11   ar
