@<TRIPOS>MOLECULE
*****
 36 38 0 0 0
SMALL
GASTEIGER

@<TRIPOS>ATOM
      1 C           4.7699   -0.0146   21.1655 C.2     1  UNL1        0.2521
      2 O           5.6936    1.0320   20.6166 O.2     1  UNL1       -0.2698
      3 N           5.3266   -1.1836   21.9228 N.am    1  UNL1       -0.2725
      4 C           4.4029   -2.2302   22.4718 C.3     1  UNL1        0.1152
      5 C           4.9596   -3.3992   23.2292 C.3     1  UNL1        0.1137
      6 N           6.4401   -3.5215   23.4375 N.pl3   1  UNL1       -0.2880
      7 C           7.3637   -2.4749   22.8886 C.3     1  UNL1        0.1137
      8 C           6.8070   -1.3059   22.1312 C.3     1  UNL1        0.1152
      9 C           6.9968   -4.6905   24.1948 C.ar    1  UNL1        0.1594
     10 N           7.6514   -5.8199   23.4558 N.ar    1  UNL1       -0.2269
     11 C           8.2081   -6.9889   24.2132 C.ar    1  UNL1        0.1043
     12 C           8.1102   -7.0285   25.7095 C.ar    1  UNL1        0.0929
     13 C           7.4556   -5.8991   26.4484 C.ar    1  UNL1        0.0380
     14 C           6.8989   -4.7301   25.6911 C.ar    1  UNL1        0.1715
     15 F           6.2443   -3.6007   26.4301 F       1  UNL1       -0.2012
     16 C           8.6669   -8.1974   26.4668 C.3     1  UNL1        0.4201
     17 F           9.2236   -9.3664   27.2242 F       1  UNL1       -0.1658
     18 F           7.7983   -7.8513   27.6397 F       1  UNL1       -0.1658
     19 F           9.5355   -8.5436   25.2940 F       1  UNL1       -0.1658
     20 C           2.5859   -0.8204   20.0119 C.ar    1  UNL1        0.1427
     21 C           1.1055   -0.6980   19.8036 C.ar    1  UNL1        0.0384
     22 C           0.3287    0.3525   20.5405 C.ar    1  UNL1        0.0215
     23 C           1.0323    1.2806   21.4858 C.ar    1  UNL1        0.1061
     24 C           2.5126    1.1582   21.6941 C.ar    1  UNL1        0.0259
     25 C           3.2894    0.1078   20.9572 C.ar    1  UNL1        0.0887
     26 S           0.2554    2.3311   22.2227 S.O2    1  UNL1        0.0105
     27 C          -0.5214    3.3816   22.9596 C.3     1  UNL1        0.1816
     28 O          -0.8635    2.1983   21.2325 O.2     1  UNL1       -0.1686
     29 O           1.3743    2.4639   23.2129 O.2     1  UNL1       -0.1686
     30 O           3.3627   -1.8708   19.2750 O.3     1  UNL1       -0.4790
     31 C           3.6981   -0.7338   16.9632 C.3     1  UNL1        0.0472
     32 C           4.2586   -1.4809   18.1369 C.3     1  UNL1        0.1658
     33 C           5.7151   -1.8381   18.1725 C.3     1  UNL1        0.0368
     34 C           5.3825   -3.1252   18.8673 C.3     1  UNL1        0.0036
     35 C           6.0476   -0.5510   17.4778 C.3     1  UNL1        0.0036
     36 C           7.1715   -2.1952   18.2081 C.3     1  UNL1        0.0036
@<TRIPOS>BOND
     1    32    31    1
     2    32    30    1
     3    30    20    1
     4    20    21   ar
     5    21    22   ar
     6    22    23   ar
     7    23    26    1
     8    26    27    1
     9    26    28    2
    10    26    29    2
    11    23    24   ar
    12    24    25   ar
    13    25     1    1
    14     1     2    2
    15     1     3   am
    16     3     4    1
    17     4     5    1
    18     5     6    1
    19     6     9    1
    20     9    10   ar
    21    10    11   ar
    22    11    12   ar
    23    12    16    1
    24    16    17    1
    25    16    18    1
    26    16    19    1
    27    12    13   ar
    28    13    14   ar
    29    14    15    1
    30     6     7    1
    31     7     8    1
    32    32    33    1
    33    33    34    1
    34    33    35    1
    35    33    36    1
    36    25    20   ar
    37     8     3    1
    38    14     9   ar
@<TRIPOS>MOLECULE
*****
 36 38 0 0 0
SMALL
GASTEIGER

@<TRIPOS>ATOM
      1 C           5.5690    0.3916   21.9731 C.2     1  UNL1        0.2521
      2 O           6.6350    1.3516   21.5350 O.2     1  UNL1       -0.2698
      3 N           5.7634   -0.4304   23.2127 N.am    1  UNL1       -0.2725
      4 C           4.6974   -1.3905   23.6509 C.3     1  UNL1        0.1152
      5 C           4.8918   -2.2124   24.8905 C.3     1  UNL1        0.1137
      6 N           6.1522   -2.0743   25.6920 N.pl3   1  UNL1       -0.2880
      7 C           7.2181   -1.1142   25.2538 C.3     1  UNL1        0.1137
      8 C           7.0238   -0.2923   24.0142 C.3     1  UNL1        0.1152
      9 C           6.3466   -2.8962   26.9316 C.ar    1  UNL1        0.1594
     10 N           6.3108   -2.2398   28.2799 N.ar    1  UNL1       -0.2269
     11 C           6.5052   -3.0618   29.5195 C.ar    1  UNL1        0.1043
     12 C           6.7353   -4.5401   29.4108 C.ar    1  UNL1        0.0929
     13 C           6.7711   -5.1963   28.0625 C.ar    1  UNL1        0.0380
     14 C           6.5767   -4.3744   26.8229 C.ar    1  UNL1        0.1715
     15 F           6.6125   -5.0308   25.4745 F       1  UNL1       -0.2012
     16 C           6.9297   -5.3620   30.6504 C.3     1  UNL1        0.4201
     17 F           7.1241   -6.1839   31.8900 F       1  UNL1       -0.1658
     18 F           6.4448   -4.2152   31.4869 F       1  UNL1       -0.1658
     19 F           7.4146   -6.5088   29.8139 F       1  UNL1       -0.1658
     20 C           4.2522   -0.7089   20.0225 C.ar    1  UNL1        0.1427
     21 C           2.9919   -0.8470   19.2210 C.ar    1  UNL1        0.0384
     22 C           1.7878   -0.0228   19.5688 C.ar    1  UNL1        0.0215
     23 C           1.8442    0.9395   20.7180 C.ar    1  UNL1        0.1061
     24 C           3.1046    1.0776   21.5194 C.ar    1  UNL1        0.0259
     25 C           4.3086    0.2534   21.1716 C.ar    1  UNL1        0.0887
     26 S           0.6402    1.7638   21.0657 S.O2    1  UNL1        0.0105
     27 C          -0.5639    2.5880   21.4135 C.3     1  UNL1        0.1816
     28 O          -0.2544    0.6510   20.6058 O.2     1  UNL1       -0.1686
     29 O           1.5347    2.8765   21.5257 O.2     1  UNL1       -0.1686
     30 O           5.4563   -1.5332   19.6747 O.3     1  UNL1       -0.4790
     31 C           6.7712   -3.2463   21.1190 C.3     1  UNL1        0.0472
     32 C           5.6053   -2.9167   20.2347 C.3     1  UNL1        0.1658
     33 C           4.5883   -3.9706   19.9104 C.3     1  UNL1        0.0368
     34 C           4.9537   -3.8765   18.4586 C.3     1  UNL1        0.0036
     35 C           4.2230   -4.0648   21.3621 C.3     1  UNL1        0.0036
     36 C           3.5715   -5.0246   19.5861 C.3     1  UNL1        0.0036
@<TRIPOS>BOND
     1    32    31    1
     2    32    30    1
     3    30    20    1
     4    20    21   ar
     5    21    22   ar
     6    22    23   ar
     7    23    26    1
     8    26    27    1
     9    26    28    2
    10    26    29    2
    11    23    24   ar
    12    24    25   ar
    13    25     1    1
    14     1     2    2
    15     1     3   am
    16     3     4    1
    17     4     5    1
    18     5     6    1
    19     6     9    1
    20     9    10   ar
    21    10    11   ar
    22    11    12   ar
    23    12    16    1
    24    16    17    1
    25    16    18    1
    26    16    19    1
    27    12    13   ar
    28    13    14   ar
    29    14    15    1
    30     6     7    1
    31     7     8    1
    32    32    33    1
    33    33    34    1
    34    33    35    1
    35    33    36    1
    36    25    20   ar
    37     8     3    1
    38    14     9   ar
@<TRIPOS>MOLECULE
*****
 36 38 0 0 0
SMALL
GASTEIGER

@<TRIPOS>ATOM
      1 C           4.7137   -0.6273   17.5404 C.2     1  UNL1        0.2521
      2 O           3.9296   -1.2471   16.4219 O.2     1  UNL1       -0.2698
      3 N           5.2784   -1.4911   18.6289 N.am    1  UNL1       -0.2725
      4 C           6.0625   -0.8713   19.7475 C.3     1  UNL1        0.1152
      5 C           6.6272   -1.7351   20.8360 C.3     1  UNL1        0.1137
      6 N           6.4078   -3.2187   20.8060 N.pl3   1  UNL1       -0.2880
      7 C           5.6237   -3.8385   19.6875 C.3     1  UNL1        0.1137
      8 C           5.0590   -2.9747   18.5990 C.3     1  UNL1        0.1152
      9 C           6.9725   -4.0825   21.8946 C.ar    1  UNL1        0.1594
     10 N           8.0912   -5.0350   21.5919 N.ar    1  UNL1       -0.2269
     11 C           8.6559   -5.8988   22.6805 C.ar    1  UNL1        0.1043
     12 C           8.1019   -5.8102   24.0717 C.ar    1  UNL1        0.0929
     13 C           6.9833   -4.8578   24.3742 C.ar    1  UNL1        0.0380
     14 C           6.4186   -3.9940   23.2857 C.ar    1  UNL1        0.1715
     15 F           5.2999   -3.0416   23.5883 F       1  UNL1       -0.2012
     16 C           8.6666   -6.6740   25.1602 C.3     1  UNL1        0.4201
     17 F           9.2314   -7.5378   26.2488 F       1  UNL1       -0.1658
     18 F           8.2952   -7.9000   24.3800 F       1  UNL1       -0.1658
     19 F           9.0381   -5.4479   25.9405 F       1  UNL1       -0.1658
     20 C           3.8791    1.7590   18.1397 C.ar    1  UNL1        0.1427
     21 C           4.0985    3.2425   18.1696 C.ar    1  UNL1        0.0384
     22 C           5.3720    3.8233   17.6303 C.ar    1  UNL1        0.0215
     23 C           6.4260    2.9206   17.0610 C.ar    1  UNL1        0.1061
     24 C           6.2066    1.4371   17.0310 C.ar    1  UNL1        0.0259
     25 C           4.9331    0.8563   17.5704 C.ar    1  UNL1        0.0887
     26 S           7.6995    3.5015   16.5217 S.O2    1  UNL1        0.0105
     27 C           8.9730    4.0823   15.9823 C.3     1  UNL1        0.1816
     28 O           8.1071    2.1462   16.0244 O.2     1  UNL1       -0.1686
     29 O           7.2919    4.8567   17.0189 O.2     1  UNL1       -0.1686
     30 O           2.6056    1.1781   18.6790 O.3     1  UNL1       -0.4790
     31 C           1.7550    2.3693   20.8255 C.3     1  UNL1        0.0472
     32 C           2.3535    1.1669   20.1576 C.3     1  UNL1        0.1658
     33 C           2.6999   -0.0467   20.9683 C.3     1  UNL1        0.0368
     34 C           1.8939   -0.9004   20.0348 C.3     1  UNL1        0.0036
     35 C           3.5059    0.8070   21.9018 C.3     1  UNL1        0.0036
     36 C           3.0463   -1.2603   21.7790 C.3     1  UNL1        0.0036
@<TRIPOS>BOND
     1    32    31    1
     2    32    30    1
     3    30    20    1
     4    20    21   ar
     5    21    22   ar
     6    22    23   ar
     7    23    26    1
     8    26    27    1
     9    26    28    2
    10    26    29    2
    11    23    24   ar
    12    24    25   ar
    13    25     1    1
    14     1     2    2
    15     1     3   am
    16     3     4    1
    17     4     5    1
    18     5     6    1
    19     6     9    1
    20     9    10   ar
    21    10    11   ar
    22    11    12   ar
    23    12    16    1
    24    16    17    1
    25    16    18    1
    26    16    19    1
    27    12    13   ar
    28    13    14   ar
    29    14    15    1
    30     6     7    1
    31     7     8    1
    32    32    33    1
    33    33    34    1
    34    33    35    1
    35    33    36    1
    36    25    20   ar
    37     8     3    1
    38    14     9   ar
@<TRIPOS>MOLECULE
*****
 36 38 0 0 0
SMALL
GASTEIGER

@<TRIPOS>ATOM
      1 C           4.4915    0.2531   34.9555 C.2     1  UNL1        0.2521
      2 O           5.4195   -0.9241   35.0105 O.2     1  UNL1       -0.2698
      3 N           3.6985    0.5255   33.7117 N.am    1  UNL1       -0.2725
      4 C           2.7705    1.7028   33.6568 C.3     1  UNL1        0.1152
      5 C           1.9774    1.9752   32.4131 C.3     1  UNL1        0.1137
      6 N           2.1124    1.0704   31.2243 N.pl3   1  UNL1       -0.2880
      7 C           3.0403   -0.1068   31.2793 C.3     1  UNL1        0.1137
      8 C           3.8334   -0.3792   32.5230 C.3     1  UNL1        0.1152
      9 C           1.3193    1.3428   29.9806 C.ar    1  UNL1        0.1594
     10 N          -0.0103    0.6784   29.7783 N.ar    1  UNL1       -0.2269
     11 C          -0.8034    0.9508   28.5346 C.ar    1  UNL1        0.1043
     12 C          -0.2668    1.8876   27.4931 C.ar    1  UNL1        0.0929
     13 C           1.0628    2.5519   27.6954 C.ar    1  UNL1        0.0380
     14 C           1.8558    2.2795   28.9391 C.ar    1  UNL1        0.1715
     15 F           3.1854    2.9438   29.1413 F       1  UNL1       -0.2012
     16 C          -1.0599    2.1600   26.2494 C.3     1  UNL1        0.4201
     17 F          -1.8529    2.4324   25.0057 F       1  UNL1       -0.1658
     18 F          -1.8119    3.2421   26.9659 F       1  UNL1       -0.1658
     19 F          -0.3078    1.0779   25.5328 F       1  UNL1       -0.1658
     20 C           5.4759    2.0868   36.5107 C.ar    1  UNL1        0.1427
     21 C           5.3410    2.9916   37.6994 C.ar    1  UNL1        0.0384
     22 C           4.0866    2.9676   38.5217 C.ar    1  UNL1        0.0215
     23 C           2.9673    2.0388   38.1552 C.ar    1  UNL1        0.1061
     24 C           3.1022    1.1340   36.9665 C.ar    1  UNL1        0.0259
     25 C           4.3566    1.1580   36.1442 C.ar    1  UNL1        0.0887
     26 S           1.7129    2.0148   38.9774 S.O2    1  UNL1        0.0105
     27 C           0.4586    1.9908   39.7997 C.3     1  UNL1        0.1816
     28 O           1.1417    3.1191   38.1383 O.2     1  UNL1       -0.1686
     29 O           2.2842    0.9105   39.8166 O.2     1  UNL1       -0.1686
     30 O           6.7303    2.1108   35.6885 O.3     1  UNL1       -0.4790
     31 C           7.6978    4.4293   35.0267 C.3     1  UNL1        0.0472
     32 C           6.9361    3.1885   34.6658 C.3     1  UNL1        0.1658
     33 C           6.3803    3.0256   33.2821 C.3     1  UNL1        0.0368
     34 C           7.2574    1.8273   33.0708 C.3     1  UNL1        0.0036
     35 C           5.5032    4.2239   33.4933 C.3     1  UNL1        0.0036
     36 C           5.8244    2.8627   31.8985 C.3     1  UNL1        0.0036
@<TRIPOS>BOND
     1    32    31    1
     2    32    30    1
     3    30    20    1
     4    20    21   ar
     5    21    22   ar
     6    22    23   ar
     7    23    26    1
     8    26    27    1
     9    26    28    2
    10    26    29    2
    11    23    24   ar
    12    24    25   ar
    13    25     1    1
    14     1     2    2
    15     1     3   am
    16     3     4    1
    17     4     5    1
    18     5     6    1
    19     6     9    1
    20     9    10   ar
    21    10    11   ar
    22    11    12   ar
    23    12    16    1
    24    16    17    1
    25    16    18    1
    26    16    19    1
    27    12    13   ar
    28    13    14   ar
    29    14    15    1
    30     6     7    1
    31     7     8    1
    32    32    33    1
    33    33    34    1
    34    33    35    1
    35    33    36    1
    36    25    20   ar
    37     8     3    1
    38    14     9   ar
@<TRIPOS>MOLECULE
*****
 36 38 0 0 0
SMALL
GASTEIGER

@<TRIPOS>ATOM
      1 C           5.2396   -0.4607   22.7657 C.2     1  UNL1        0.2521
      2 O           6.5812   -0.1719   22.1603 O.2     1  UNL1       -0.2698
      3 N           5.1055   -0.6194   24.2512 N.am    1  UNL1       -0.2725
      4 C           3.7638   -0.9082   24.8566 C.3     1  UNL1        0.1152
      5 C           3.6297   -1.0668   26.3422 C.3     1  UNL1        0.1137
      6 N           4.8374   -0.9367   27.2223 N.pl3   1  UNL1       -0.2880
      7 C           6.1790   -0.6479   26.6170 C.3     1  UNL1        0.1137
      8 C           6.3131   -0.4892   25.1314 C.3     1  UNL1        0.1152
      9 C           4.7033   -1.0953   28.7079 C.ar    1  UNL1        0.1594
     10 N           5.7683   -1.8111   29.4848 N.ar    1  UNL1       -0.2269
     11 C           5.6342   -1.9698   30.9704 C.ar    1  UNL1        0.1043
     12 C           4.4352   -1.4126   31.6790 C.ar    1  UNL1        0.0929
     13 C           3.3703   -0.6969   30.9020 C.ar    1  UNL1        0.0380
     14 C           3.5044   -0.5382   29.4165 C.ar    1  UNL1        0.1715
     15 F           2.4394    0.1776   28.6395 F       1  UNL1       -0.2012
     16 C           4.3012   -1.5713   33.1645 C.3     1  UNL1        0.4201
     17 F           4.1671   -1.7300   34.6501 F       1  UNL1       -0.1658
     18 F           3.3910   -0.3799   33.2096 F       1  UNL1       -0.1658
     19 F           5.2114   -2.7627   33.1194 F       1  UNL1       -0.1658
     20 C           3.8397   -1.8240   21.0534 C.ar    1  UNL1        0.1427
     21 C           2.6320   -1.9541   20.1733 C.ar    1  UNL1        0.0384
     22 C           1.6166   -0.8511   20.1253 C.ar    1  UNL1        0.0215
     23 C           1.8089    0.3820   20.9574 C.ar    1  UNL1        0.1061
     24 C           3.0165    0.5122   21.8375 C.ar    1  UNL1        0.0259
     25 C           4.0319   -0.5909   21.8855 C.ar    1  UNL1        0.0887
     26 S           0.7934    1.4851   20.9093 S.O2    1  UNL1        0.0105
     27 C          -0.2220    2.5881   20.8613 C.3     1  UNL1        0.1816
     28 O           1.8782    2.4939   21.1453 O.2     1  UNL1       -0.1686
     29 O          -0.2913    0.4762   20.6734 O.2     1  UNL1       -0.1686
     30 O           4.8551   -2.9270   21.1015 O.3     1  UNL1       -0.4790
     31 C           4.8520   -4.5375   19.0628 C.3     1  UNL1        0.0472
     32 C           5.4883   -3.4192   19.8339 C.3     1  UNL1        0.1658
     33 C           6.7578   -2.7932   19.3375 C.3     1  UNL1        0.0368
     34 C           6.0518   -2.3502   18.0904 C.3     1  UNL1        0.0036
     35 C           7.4639   -3.2362   20.5845 C.3     1  UNL1        0.0036
     36 C           8.0273   -2.1672   18.8410 C.3     1  UNL1        0.0036
@<TRIPOS>BOND
     1    32    31    1
     2    32    30    1
     3    30    20    1
     4    20    21   ar
     5    21    22   ar
     6    22    23   ar
     7    23    26    1
     8    26    27    1
     9    26    28    2
    10    26    29    2
    11    23    24   ar
    12    24    25   ar
    13    25     1    1
    14     1     2    2
    15     1     3   am
    16     3     4    1
    17     4     5    1
    18     5     6    1
    19     6     9    1
    20     9    10   ar
    21    10    11   ar
    22    11    12   ar
    23    12    16    1
    24    16    17    1
    25    16    18    1
    26    16    19    1
    27    12    13   ar
    28    13    14   ar
    29    14    15    1
    30     6     7    1
    31     7     8    1
    32    32    33    1
    33    33    34    1
    34    33    35    1
    35    33    36    1
    36    25    20   ar
    37     8     3    1
    38    14     9   ar
@<TRIPOS>MOLECULE
*****
 36 38 0 0 0
SMALL
GASTEIGER

@<TRIPOS>ATOM
      1 C          -0.3456    4.8769   23.3113 C.2     1  UNL1        0.2521
      2 O           0.2062    6.2631   23.1564 O.2     1  UNL1       -0.2698
      3 N           0.3491    3.7163   22.6628 N.am    1  UNL1       -0.2725
      4 C          -0.2028    2.3301   22.8178 C.3     1  UNL1        0.1152
      5 C           0.4919    1.1695   22.1693 C.3     1  UNL1        0.1137
      6 N           1.7384    1.3952   21.3659 N.pl3   1  UNL1       -0.2880
      7 C           2.2902    2.7813   21.2110 C.3     1  UNL1        0.1137
      8 C           1.5955    3.9419   21.8594 C.3     1  UNL1        0.1152
      9 C           2.4330    0.2346   20.7174 C.ar    1  UNL1        0.1594
     10 N           2.6475    0.2231   19.2328 N.ar    1  UNL1       -0.2269
     11 C           3.3422   -0.9375   18.5844 C.ar    1  UNL1        0.1043
     12 C           3.8223   -2.0866   19.4205 C.ar    1  UNL1        0.0929
     13 C           3.6079   -2.0751   20.9050 C.ar    1  UNL1        0.0380
     14 C           2.9132   -0.9145   21.5535 C.ar    1  UNL1        0.1715
     15 F           2.6987   -0.9030   23.0381 F       1  UNL1       -0.2012
     16 C           4.5170   -3.2472   18.7721 C.3     1  UNL1        0.4201
     17 F           5.2116   -4.4078   18.1236 F       1  UNL1       -0.1658
     18 F           3.2648   -4.0642   18.8929 F       1  UNL1       -0.1658
     19 F           5.7692   -2.4302   18.6512 F       1  UNL1       -0.1658
     20 C          -1.5040    4.4717   25.6013 C.ar    1  UNL1        0.1427
     21 C          -2.7504    4.2461   26.4046 C.ar    1  UNL1        0.0384
     22 C          -4.0850    4.2001   25.7213 C.ar    1  UNL1        0.0215
     23 C          -4.1731    4.3796   24.2348 C.ar    1  UNL1        0.1061
     24 C          -2.9266    4.6053   23.4314 C.ar    1  UNL1        0.0259
     25 C          -1.5921    4.6513   24.1147 C.ar    1  UNL1        0.0887
     26 S          -5.5077    4.3336   23.5515 S.O2    1  UNL1        0.0105
     27 C          -6.8422    4.2876   22.8683 C.3     1  UNL1        0.1816
     28 O          -5.1697    2.9877   22.9820 O.2     1  UNL1       -0.1686
     29 O          -5.8456    5.6795   24.1210 O.2     1  UNL1       -0.1686
     30 O          -0.1694    4.5177   26.2845 O.3     1  UNL1       -0.4790
     31 C           1.8982    3.0207   25.8006 C.3     1  UNL1        0.0472
     32 C           0.5993    3.2505   26.5149 C.3     1  UNL1        0.1658
     33 C           0.0692    2.2129   27.4597 C.3     1  UNL1        0.0368
     34 C          -0.1813    1.2892   26.3047 C.3     1  UNL1        0.0036
     35 C           0.3197    3.1366   28.6146 C.3     1  UNL1        0.0036
     36 C          -0.4609    1.1754   28.4044 C.3     1  UNL1        0.0036
@<TRIPOS>BOND
     1    32    31    1
     2    32    30    1
     3    30    20    1
     4    20    21   ar
     5    21    22   ar
     6    22    23   ar
     7    23    26    1
     8    26    27    1
     9    26    28    2
    10    26    29    2
    11    23    24   ar
    12    24    25   ar
    13    25     1    1
    14     1     2    2
    15     1     3   am
    16     3     4    1
    17     4     5    1
    18     5     6    1
    19     6     9    1
    20     9    10   ar
    21    10    11   ar
    22    11    12   ar
    23    12    16    1
    24    16    17    1
    25    16    18    1
    26    16    19    1
    27    12    13   ar
    28    13    14   ar
    29    14    15    1
    30     6     7    1
    31     7     8    1
    32    32    33    1
    33    33    34    1
    34    33    35    1
    35    33    36    1
    36    25    20   ar
    37     8     3    1
    38    14     9   ar
@<TRIPOS>MOLECULE
*****
 36 38 0 0 0
SMALL
GASTEIGER

@<TRIPOS>ATOM
      1 C           4.8275   -2.8334   19.2993 C.2     1  UNL1        0.2521
      2 O           4.2354   -3.7620   18.2810 O.2     1  UNL1       -0.2698
      3 N           3.9448   -1.8774   20.0456 N.am    1  UNL1       -0.2725
      4 C           4.5371   -0.9488   21.0640 C.3     1  UNL1        0.1152
      5 C           3.6544    0.0072   21.8103 C.3     1  UNL1        0.1137
      6 N           2.1794    0.0345   21.5382 N.pl3   1  UNL1       -0.2880
      7 C           1.5873   -0.8941   20.5199 C.3     1  UNL1        0.1137
      8 C           2.4700   -1.8500   19.7736 C.3     1  UNL1        0.1152
      9 C           1.2968    0.9905   22.2845 C.ar    1  UNL1        0.1594
     10 N           0.4564    1.9791   21.5317 N.ar    1  UNL1       -0.2269
     11 C          -0.4263    2.9351   22.2780 C.ar    1  UNL1        0.1043
     12 C          -0.4686    2.9025   23.7771 C.ar    1  UNL1        0.0929
     13 C           0.3717    1.9139   24.5298 C.ar    1  UNL1        0.0380
     14 C           1.2544    0.9579   23.7835 C.ar    1  UNL1        0.1715
     15 F           2.0947   -0.0307   24.5363 F       1  UNL1       -0.2012
     16 C          -1.3513    3.8584   24.5234 C.3     1  UNL1        0.4201
     17 F          -2.2340    4.8144   25.2697 F       1  UNL1       -0.1658
     18 F          -1.6395    2.7965   25.5428 F       1  UNL1       -0.1658
     19 F          -1.0631    4.9204   23.5040 F       1  UNL1       -0.1658
     20 C           7.2493   -2.1581   18.6442 C.ar    1  UNL1        0.1427
     21 C           8.7241   -2.1854   18.9163 C.ar    1  UNL1        0.0384
     22 C           9.2521   -2.9155   20.1155 C.ar    1  UNL1        0.0215
     23 C           8.3053   -3.6182   21.0427 C.ar    1  UNL1        0.1061
     24 C           6.8304   -3.5908   20.7706 C.ar    1  UNL1        0.0259
     25 C           6.3024   -2.8607   19.5713 C.ar    1  UNL1        0.0887
     26 S           8.8333   -4.3482   22.2420 S.O2    1  UNL1        0.0105
     27 C           9.3613   -5.0783   23.4412 C.3     1  UNL1        0.1816
     28 O           8.1309   -5.5950   21.7922 O.2     1  UNL1       -0.1686
     29 O           9.5356   -3.1014   22.6917 O.2     1  UNL1       -0.1686
     30 O           6.7213   -1.4280   17.4449 O.3     1  UNL1       -0.4790
     31 C           7.7004    0.9675   17.2148 C.3     1  UNL1        0.0472
     32 C           6.5388    0.0601   17.4930 C.3     1  UNL1        0.1658
     33 C           5.1948    0.6408   17.8194 C.3     1  UNL1        0.0368
     34 C           4.5521   -0.2965   16.8404 C.3     1  UNL1        0.0036
     35 C           5.8375    1.5780   18.7983 C.3     1  UNL1        0.0036
     36 C           3.8509    1.2215   18.1457 C.3     1  UNL1        0.0036
@<TRIPOS>BOND
     1    32    31    1
     2    32    30    1
     3    30    20    1
     4    20    21   ar
     5    21    22   ar
     6    22    23   ar
     7    23    26    1
     8    26    27    1
     9    26    28    2
    10    26    29    2
    11    23    24   ar
    12    24    25   ar
    13    25     1    1
    14     1     2    2
    15     1     3   am
    16     3     4    1
    17     4     5    1
    18     5     6    1
    19     6     9    1
    20     9    10   ar
    21    10    11   ar
    22    11    12   ar
    23    12    16    1
    24    16    17    1
    25    16    18    1
    26    16    19    1
    27    12    13   ar
    28    13    14   ar
    29    14    15    1
    30     6     7    1
    31     7     8    1
    32    32    33    1
    33    33    34    1
    34    33    35    1
    35    33    36    1
    36    25    20   ar
    37     8     3    1
    38    14     9   ar
@<TRIPOS>MOLECULE
*****
 36 38 0 0 0
SMALL
GASTEIGER

@<TRIPOS>ATOM
      1 C          -1.7345    4.8260   20.8742 C.2     1  UNL1        0.2521
      2 O          -1.7484    6.2325   20.3533 O.2     1  UNL1       -0.2698
      3 N          -0.6266    3.8928   20.4847 N.am    1  UNL1       -0.2725
      4 C          -0.6127    2.4862   21.0056 C.3     1  UNL1        0.1152
      5 C           0.4952    1.5530   20.6161 C.3     1  UNL1        0.1137
      6 N           1.5893    2.0265   19.7056 N.pl3   1  UNL1       -0.2880
      7 C           1.5754    3.4330   19.1847 C.3     1  UNL1        0.1137
      8 C           0.4675    4.3662   19.5742 C.3     1  UNL1        0.1152
      9 C           2.6972    1.0933   19.3161 C.ar    1  UNL1        0.1594
     10 N           2.7697    0.5579   17.9168 N.ar    1  UNL1       -0.2269
     11 C           3.8776   -0.3752   17.5273 C.ar    1  UNL1        0.1043
     12 C           4.9131   -0.7730   18.5371 C.ar    1  UNL1        0.0929
     13 C           4.8406   -0.2375   19.9364 C.ar    1  UNL1        0.0380
     14 C           3.7326    0.6956   20.3259 C.ar    1  UNL1        0.1715
     15 F           3.6602    1.2311   21.7252 F       1  UNL1       -0.2012
     16 C           6.0210   -1.7061   18.1476 C.3     1  UNL1        0.4201
     17 F           7.1289   -2.6393   17.7581 F       1  UNL1       -0.1658
     18 F           5.5559   -2.6894   19.1805 F       1  UNL1       -0.1658
     19 F           6.4860   -0.7228   17.1147 F       1  UNL1       -0.1658
     20 C          -3.9629    3.5397   21.2346 C.ar    1  UNL1        0.1427
     21 C          -5.0569    3.0663   22.1451 C.ar    1  UNL1        0.0384
     22 C          -5.0166    3.4057   23.6056 C.ar    1  UNL1        0.0215
     23 C          -3.8823    4.2185   24.1557 C.ar    1  UNL1        0.1061
     24 C          -2.7883    4.6919   23.2452 C.ar    1  UNL1        0.0259
     25 C          -2.8286    4.3525   21.7847 C.ar    1  UNL1        0.0887
     26 S          -3.8419    4.5579   25.6162 S.O2    1  UNL1        0.0105
     27 C          -3.8016    4.8972   27.0768 C.3     1  UNL1        0.1816
     28 O          -2.7113    5.5106   25.3636 O.2     1  UNL1       -0.1686
     29 O          -4.9726    3.6051   25.8688 O.2     1  UNL1       -0.1686
     30 O          -4.0032    3.2003   19.7740 O.3     1  UNL1       -0.4790
     31 C          -3.8225    4.6605   17.6327 C.3     1  UNL1        0.0472
     32 C          -4.6213    4.1574   18.7984 C.3     1  UNL1        0.1658
     33 C          -6.0383    4.6116   18.9885 C.3     1  UNL1        0.0368
     34 C          -5.5565    6.0096   19.2401 C.3     1  UNL1        0.0036
     35 C          -6.5200    3.2136   18.7369 C.3     1  UNL1        0.0036
     36 C          -7.4552    5.0657   19.1786 C.3     1  UNL1        0.0036
@<TRIPOS>BOND
     1    32    31    1
     2    32    30    1
     3    30    20    1
     4    20    21   ar
     5    21    22   ar
     6    22    23   ar
     7    23    26    1
     8    26    27    1
     9    26    28    2
    10    26    29    2
    11    23    24   ar
    12    24    25   ar
    13    25     1    1
    14     1     2    2
    15     1     3   am
    16     3     4    1
    17     4     5    1
    18     5     6    1
    19     6     9    1
    20     9    10   ar
    21    10    11   ar
    22    11    12   ar
    23    12    16    1
    24    16    17    1
    25    16    18    1
    26    16    19    1
    27    12    13   ar
    28    13    14   ar
    29    14    15    1
    30     6     7    1
    31     7     8    1
    32    32    33    1
    33    33    34    1
    34    33    35    1
    35    33    36    1
    36    25    20   ar
    37     8     3    1
    38    14     9   ar
@<TRIPOS>MOLECULE
*****
 36 38 0 0 0
SMALL
GASTEIGER

@<TRIPOS>ATOM
      1 C           4.5065   -0.7811   33.7793 C.2     1  UNL1        0.2521
      2 O           5.0649   -2.1669   33.6469 O.2     1  UNL1       -0.2698
      3 N           3.6349   -0.2170   32.6967 N.am    1  UNL1       -0.2725
      4 C           3.0765    1.1689   32.8291 C.3     1  UNL1        0.1152
      5 C           2.2049    1.7329   31.7465 C.3     1  UNL1        0.1137
      6 N           1.8915    0.9110   30.5314 N.pl3   1  UNL1       -0.2880
      7 C           2.4499   -0.4749   30.3990 C.3     1  UNL1        0.1137
      8 C           3.3215   -1.0389   31.4816 C.3     1  UNL1        0.1152
      9 C           1.0199    1.4750   29.4488 C.ar    1  UNL1        0.1594
     10 N           1.2466    2.8735   28.9557 N.ar    1  UNL1       -0.2269
     11 C           0.3749    3.4375   27.8731 C.ar    1  UNL1        0.1043
     12 C          -0.7234    2.6031   27.2835 C.ar    1  UNL1        0.0929
     13 C          -0.9501    1.2047   27.7766 C.ar    1  UNL1        0.0380
     14 C          -0.0784    0.6407   28.8593 C.ar    1  UNL1        0.1715
     15 F          -0.3051   -0.7577   29.3523 F       1  UNL1       -0.2012
     16 C          -1.5951    3.1671   26.2009 C.3     1  UNL1        0.4201
     17 F          -2.4668    3.7312   25.1183 F       1  UNL1       -0.1658
     18 F          -1.9299    4.3359   27.0794 F       1  UNL1       -0.1658
     19 F          -1.2603    1.9983   25.3224 F       1  UNL1       -0.1658
     20 C           6.2292    0.4805   35.2594 C.ar    1  UNL1        0.1427
     21 C           6.5425    1.3024   36.4744 C.ar    1  UNL1        0.0384
     22 C           5.4464    1.6846   37.4244 C.ar    1  UNL1        0.0215
     23 C           4.0370    1.2450   37.1593 C.ar    1  UNL1        0.1061
     24 C           3.7237    0.4231   35.9443 C.ar    1  UNL1        0.0259
     25 C           4.8199    0.0409   34.9944 C.ar    1  UNL1        0.0887
     26 S           2.9409    1.6272   38.1093 S.O2    1  UNL1        0.0105
     27 C           1.8448    2.0094   39.0593 C.3     1  UNL1        0.1816
     28 O           3.7448    1.0865   39.2545 O.2     1  UNL1       -0.1686
     29 O           2.1370    2.1679   36.9641 O.2     1  UNL1       -0.1686
     30 O           7.3254    0.0983   34.3095 O.3     1  UNL1       -0.4790
     31 C           9.0064    1.8877   33.4596 C.3     1  UNL1        0.0472
     32 C           7.7708    1.0632   33.2509 C.3     1  UNL1        0.1658
     33 C           6.9806    1.2036   31.9836 C.3     1  UNL1        0.0368
     34 C           7.4068   -0.1724   31.5653 C.3     1  UNL1        0.0036
     35 C           6.5544    2.5795   32.4019 C.3     1  UNL1        0.0036
     36 C           6.1905    1.3441   30.7164 C.3     1  UNL1        0.0036
@<TRIPOS>BOND
     1    32    31    1
     2    32    30    1
     3    30    20    1
     4    20    21   ar
     5    21    22   ar
     6    22    23   ar
     7    23    26    1
     8    26    27    1
     9    26    28    2
    10    26    29    2
    11    23    24   ar
    12    24    25   ar
    13    25     1    1
    14     1     2    2
    15     1     3   am
    16     3     4    1
    17     4     5    1
    18     5     6    1
    19     6     9    1
    20     9    10   ar
    21    10    11   ar
    22    11    12   ar
    23    12    16    1
    24    16    17    1
    25    16    18    1
    26    16    19    1
    27    12    13   ar
    28    13    14   ar
    29    14    15    1
    30     6     7    1
    31     7     8    1
    32    32    33    1
    33    33    34    1
    34    33    35    1
    35    33    36    1
    36    25    20   ar
    37     8     3    1
    38    14     9   ar
