@<TRIPOS>MOLECULE
*****
 35 38 0 0 0
SMALL
GASTEIGER

@<TRIPOS>ATOM
      1 C           5.3180    3.2017   17.8688 C.ar    1  UNL1        0.1060
      2 C           4.0081    3.7630   18.3366 C.ar    1  UNL1        0.0215
      3 C           2.8404    2.8502   18.5670 C.ar    1  UNL1        0.0384
      4 C           2.9827    1.3759   18.3296 C.ar    1  UNL1        0.1432
      5 C           4.2927    0.8145   17.8618 C.ar    1  UNL1        0.0888
      6 C           5.4604    1.7275   17.6314 C.ar    1  UNL1        0.0259
      7 C           4.4349   -0.6597   17.6245 C.2     1  UNL1        0.2525
      8 O           3.9232   -1.2673   16.3521 O.2     1  UNL1       -0.2698
      9 N           5.0889   -1.5264   18.6595 N.am    1  UNL1       -0.2660
     10 C           5.6459   -1.0634   19.9730 C.3     1  UNL1        0.1236
     11 C           6.2020   -2.2591   20.6879 C.ar    1  UNL1        0.0338
     12 C           6.8899   -2.7119   21.9416 C.ar    1  UNL1        0.0991
     13 N           7.1017   -4.1937   21.8448 N.ar    1  UNL1       -0.2265
     14 N           6.5447   -4.6567   20.5312 N.ar    1  UNL1       -0.1679
     15 C           5.9886   -3.4610   19.8163 C.ar    1  UNL1        0.0981
     16 C           5.3007   -3.0082   18.5626 C.3     1  UNL1        0.1414
     17 C           7.7557   -5.0604   22.8797 C.ar    1  UNL1        0.1102
     18 C           8.8819   -5.9720   22.4917 C.ar    1  UNL1        0.0214
     19 C           9.5360   -6.8387   23.5266 C.ar    1  UNL1        0.0017
     20 C           9.0637   -6.7938   24.9496 C.ar    1  UNL1        0.0024
     21 C           7.9375   -5.8821   25.3377 C.ar    1  UNL1        0.0312
     22 C           7.2835   -5.0155   24.3028 C.ar    1  UNL1        0.1577
     23 F           6.1573   -4.1038   24.6908 F       1  UNL1       -0.2026
     24 S           6.4858    4.1146   17.6384 S.O2    1  UNL1        0.0087
     25 O           6.9436    3.8848   19.0482 O.2     1  UNL1       -0.1686
     26 O           6.0279    4.3443   16.2285 O.2     1  UNL1       -0.1686
     27 C           8.5324    4.8327   16.2081 C.3     1  UNL1        0.0276
     28 C           7.6535    5.0274   17.4080 C.3     1  UNL1        0.1560
     29 O           1.8150    0.4630   18.5601 O.3     1  UNL1       -0.4702
     30 C           1.3509    0.1770   19.9575 C.3     1  UNL1        0.2599
     31 C           0.0892    0.8044   20.4719 C.3     1  UNL1        0.0566
     32 C           2.1484   -0.7363   20.8405 C.3     1  UNL1        0.4340
     33 F           2.9459   -1.6497   21.7236 F       1  UNL1       -0.1664
     34 F           2.1684    0.3151   21.9101 F       1  UNL1       -0.1664
     35 F           2.1284   -1.7878   19.7710 F       1  UNL1       -0.1664
@<TRIPOS>BOND
     1    27    28    1
     2    28    24    1
     3    24    25    2
     4    24    26    2
     5    24     1    1
     6     1     2   ar
     7     2     3   ar
     8     3     4   ar
     9     4    29    1
    10    29    30    1
    11    30    31    1
    12    30    32    1
    13    32    33    1
    14    32    34    1
    15    32    35    1
    16     4     5   ar
    17     5     7    1
    18     7     8    2
    19     7     9   am
    20     9    10    1
    21    10    11    1
    22    11    12   ar
    23    12    13   ar
    24    13    17    1
    25    17    18   ar
    26    18    19   ar
    27    19    20   ar
    28    20    21   ar
    29    21    22   ar
    30    22    23    1
    31    13    14   ar
    32    14    15   ar
    33    15    16    1
    34     5     6   ar
    35     6     1   ar
    36    16     9    1
    37    15    11   ar
    38    22    17   ar
@<TRIPOS>MOLECULE
*****
 35 38 0 0 0
SMALL
GASTEIGER

@<TRIPOS>ATOM
      1 C           5.6279    0.9342   17.4104 C.ar    1  UNL1        0.1060
      2 C           6.1998   -0.4450   17.5543 C.ar    1  UNL1        0.0215
      3 C           5.4052   -1.5190   18.2364 C.ar    1  UNL1        0.0384
      4 C           4.0387   -1.2137   18.7746 C.ar    1  UNL1        0.1432
      5 C           3.4668    0.1655   18.6307 C.ar    1  UNL1        0.0888
      6 C           4.2615    1.2395   17.9486 C.ar    1  UNL1        0.0259
      7 C           2.1004    0.4708   19.1690 C.2     1  UNL1        0.2525
      8 O           0.9359    0.5956   18.2318 O.2     1  UNL1       -0.2698
      9 N           1.8985    0.6511   20.6443 N.am    1  UNL1       -0.2660
     10 C           2.9620    0.5562   21.6979 C.3     1  UNL1        0.1236
     11 C           2.3184    0.8044   23.0298 C.ar    1  UNL1        0.0338
     12 C           2.5779    0.8992   24.5041 C.ar    1  UNL1        0.0991
     13 N           1.2770    1.2061   25.1851 N.ar    1  UNL1       -0.2265
     14 N           0.2135    1.3010   24.1314 N.ar    1  UNL1       -0.1679
     15 C           0.8571    1.0527   22.7995 C.ar    1  UNL1        0.0981
     16 C           0.5976    0.9580   21.3251 C.3     1  UNL1        0.1414
     17 C           1.0751    1.3864   26.6603 C.ar    1  UNL1        0.1102
     18 C          -0.2139    0.9608   27.2985 C.ar    1  UNL1        0.0214
     19 C          -0.4159    1.1411   28.7739 C.ar    1  UNL1        0.0017
     20 C           0.6712    1.7471   29.6111 C.ar    1  UNL1        0.0024
     21 C           1.9604    2.1727   28.9730 C.ar    1  UNL1        0.0312
     22 C           2.1623    1.9923   27.4977 C.ar    1  UNL1        0.1577
     23 F           3.4513    2.4179   26.8595 F       1  UNL1       -0.2026
     24 S           6.4224    2.0082   16.7283 S.O2    1  UNL1        0.0087
     25 O           7.2858    0.9623   16.0873 O.2     1  UNL1       -0.1686
     26 O           5.5590    3.0540   17.3693 O.2     1  UNL1       -0.1686
     27 C           6.7634    4.5102   16.1170 C.3     1  UNL1        0.0276
     28 C           7.2170    3.0821   16.0462 C.3     1  UNL1        0.1560
     29 O           3.2442   -2.2877   19.4567 O.3     1  UNL1       -0.4702
     30 C           3.9443   -3.4657   20.0668 C.3     1  UNL1        0.2599
     31 C           4.2861   -3.4612   21.5273 C.3     1  UNL1        0.0566
     32 C           4.3026   -4.6482   19.2164 C.3     1  UNL1        0.4340
     33 F           4.6609   -5.8308   18.3659 F       1  UNL1       -0.1664
     34 F           2.8951   -4.7038   18.7005 F       1  UNL1       -0.1664
     35 F           5.7100   -4.5927   19.7321 F       1  UNL1       -0.1664
@<TRIPOS>BOND
     1    27    28    1
     2    28    24    1
     3    24    25    2
     4    24    26    2
     5    24     1    1
     6     1     2   ar
     7     2     3   ar
     8     3     4   ar
     9     4    29    1
    10    29    30    1
    11    30    31    1
    12    30    32    1
    13    32    33    1
    14    32    34    1
    15    32    35    1
    16     4     5   ar
    17     5     7    1
    18     7     8    2
    19     7     9   am
    20     9    10    1
    21    10    11    1
    22    11    12   ar
    23    12    13   ar
    24    13    17    1
    25    17    18   ar
    26    18    19   ar
    27    19    20   ar
    28    20    21   ar
    29    21    22   ar
    30    22    23    1
    31    13    14   ar
    32    14    15   ar
    33    15    16    1
    34     5     6   ar
    35     6     1   ar
    36    16     9    1
    37    15    11   ar
    38    22    17   ar
@<TRIPOS>MOLECULE
*****
 35 38 0 0 0
SMALL
GASTEIGER

@<TRIPOS>ATOM
      1 C           0.8665    1.4397   21.2946 C.ar    1  UNL1        0.1060
      2 C           0.3358    0.2799   20.5051 C.ar    1  UNL1        0.0215
      3 C           1.2088   -0.9115   20.2434 C.ar    1  UNL1        0.0384
      4 C           2.6126   -0.9430   20.7712 C.ar    1  UNL1        0.1432
      5 C           3.1433    0.2168   21.5607 C.ar    1  UNL1        0.0888
      6 C           2.2702    1.4081   21.8224 C.ar    1  UNL1        0.0259
      7 C           4.5470    0.1852   22.0884 C.2     1  UNL1        0.2525
      8 O           5.6863    0.6218   21.2158 O.2     1  UNL1       -0.2698
      9 N           4.8115   -0.2831   23.4887 N.am    1  UNL1       -0.2660
     10 C           3.7791   -0.7475   24.4728 C.3     1  UNL1        0.1236
     11 C           4.4844   -1.1206   25.7430 C.ar    1  UNL1        0.0338
     12 C           4.2822   -1.6382   27.1363 C.ar    1  UNL1        0.0991
     13 N           5.6255   -1.7243   27.7983 N.ar    1  UNL1       -0.2265
     14 N           6.6579   -1.2598   26.8141 N.ar    1  UNL1       -0.1679
     15 C           5.9526   -0.8867   25.5439 C.ar    1  UNL1        0.0981
     16 C           6.1548   -0.3691   24.1507 C.3     1  UNL1        0.1414
     17 C           5.8900   -2.1925   29.1985 C.ar    1  UNL1        0.1102
     18 C           5.5665   -1.3015   30.3610 C.ar    1  UNL1        0.0214
     19 C           5.8309   -1.7697   31.7614 C.ar    1  UNL1        0.0017
     20 C           6.4189   -3.1290   31.9991 C.ar    1  UNL1        0.0024
     21 C           6.7424   -4.0201   30.8366 C.ar    1  UNL1        0.0312
     22 C           6.4780   -3.5519   29.4364 C.ar    1  UNL1        0.1577
     23 F           6.8015   -4.4429   28.2739 F       1  UNL1       -0.2026
     24 S          -0.0065    2.6310   21.5564 S.O2    1  UNL1        0.0087
     25 O          -1.1022    2.0065   20.7443 O.2     1  UNL1       -0.1686
     26 O           1.0892    3.2555   22.3684 O.2     1  UNL1       -0.1686
     27 C          -2.2576    3.6335   22.3794 C.3     1  UNL1        0.0276
     28 C          -0.8795    3.8224   21.8181 C.3     1  UNL1        0.1560
     29 O           3.4856   -2.1343   20.5094 O.3     1  UNL1       -0.4702
     30 C           4.0055   -2.3938   19.1266 C.3     1  UNL1        0.2599
     31 C           4.1928   -1.2541   18.1696 C.3     1  UNL1        0.0566
     32 C           4.3382   -3.7931   18.7006 C.3     1  UNL1        0.4340
     33 F           4.6709   -5.1924   18.2746 F       1  UNL1       -0.1664
     34 F           2.9395   -4.2252   19.0276 F       1  UNL1       -0.1664
     35 F           5.7369   -3.3610   18.3736 F       1  UNL1       -0.1664
@<TRIPOS>BOND
     1    27    28    1
     2    28    24    1
     3    24    25    2
     4    24    26    2
     5    24     1    1
     6     1     2   ar
     7     2     3   ar
     8     3     4   ar
     9     4    29    1
    10    29    30    1
    11    30    31    1
    12    30    32    1
    13    32    33    1
    14    32    34    1
    15    32    35    1
    16     4     5   ar
    17     5     7    1
    18     7     8    2
    19     7     9   am
    20     9    10    1
    21    10    11    1
    22    11    12   ar
    23    12    13   ar
    24    13    17    1
    25    17    18   ar
    26    18    19   ar
    27    19    20   ar
    28    20    21   ar
    29    21    22   ar
    30    22    23    1
    31    13    14   ar
    32    14    15   ar
    33    15    16    1
    34     5     6   ar
    35     6     1   ar
    36    16     9    1
    37    15    11   ar
    38    22    17   ar
@<TRIPOS>MOLECULE
*****
 35 38 0 0 0
SMALL
GASTEIGER

@<TRIPOS>ATOM
      1 C           2.2036    0.2249   21.9846 C.ar    1  UNL1        0.1060
      2 C           1.6909   -0.5135   20.7838 C.ar    1  UNL1        0.0215
      3 C           2.6334   -1.3202   19.9406 C.ar    1  UNL1        0.0384
      4 C           4.0885   -1.3886   20.2983 C.ar    1  UNL1        0.1432
      5 C           4.6012   -0.6503   21.4992 C.ar    1  UNL1        0.0888
      6 C           3.6587    0.1565   22.3423 C.ar    1  UNL1        0.0259
      7 C           6.0563   -0.7187   21.8568 C.2     1  UNL1        0.2525
      8 O           7.0198    0.2707   21.2714 O.2     1  UNL1       -0.2698
      9 N           6.5479   -1.7765   22.7999 N.am    1  UNL1       -0.2660
     10 C           5.7072   -2.8285   23.4605 C.3     1  UNL1        0.1236
     11 C           6.6063   -3.6702   24.3168 C.ar    1  UNL1        0.0338
     12 C           6.6423   -4.8405   25.2543 C.ar    1  UNL1        0.0991
     13 N           8.0610   -5.0322   25.7022 N.ar    1  UNL1       -0.2265
     14 N           8.9018   -3.9801   25.0415 N.ar    1  UNL1       -0.1679
     15 C           8.0027   -3.1384   24.1853 C.ar    1  UNL1        0.0981
     16 C           7.9666   -1.9681   23.2477 C.3     1  UNL1        0.1414
     17 C           8.5526   -6.0899   26.6452 C.ar    1  UNL1        0.1102
     18 C           9.0437   -5.7084   28.0102 C.ar    1  UNL1        0.0214
     19 C           9.5354   -6.7662   28.9533 C.ar    1  UNL1        0.0017
     20 C           9.5359   -8.2056   28.5313 C.ar    1  UNL1        0.0024
     21 C           9.0448   -8.5872   27.1663 C.ar    1  UNL1        0.0312
     22 C           8.5532   -7.5294   26.2233 C.ar    1  UNL1        0.1577
     23 F           8.0621   -7.9110   24.8583 F       1  UNL1       -0.2026
     24 S           1.2612    1.0316   22.8278 S.O2    1  UNL1        0.0087
     25 O           0.3782    1.2473   21.6345 O.2     1  UNL1       -0.1686
     26 O           2.1441    0.8160   24.0211 O.2     1  UNL1       -0.1686
     27 C           0.1411    1.5076   25.1232 C.3     1  UNL1        0.0276
     28 C           0.3187    1.8384   23.6710 C.3     1  UNL1        0.1560
     29 O           5.0310   -2.1954   19.4552 O.3     1  UNL1       -0.4702
     30 C           5.3245   -3.6219   19.8140 C.3     1  UNL1        0.2599
     31 C           6.7183   -4.0290   20.1903 C.3     1  UNL1        0.0566
     32 C           4.2244   -4.6414   19.7965 C.3     1  UNL1        0.4340
     33 F           3.1242   -5.6609   19.7791 F       1  UNL1       -0.1664
     34 F           4.4467   -4.8562   18.3287 F       1  UNL1       -0.1664
     35 F           4.0020   -4.4266   21.2642 F       1  UNL1       -0.1664
@<TRIPOS>BOND
     1    27    28    1
     2    28    24    1
     3    24    25    2
     4    24    26    2
     5    24     1    1
     6     1     2   ar
     7     2     3   ar
     8     3     4   ar
     9     4    29    1
    10    29    30    1
    11    30    31    1
    12    30    32    1
    13    32    33    1
    14    32    34    1
    15    32    35    1
    16     4     5   ar
    17     5     7    1
    18     7     8    2
    19     7     9   am
    20     9    10    1
    21    10    11    1
    22    11    12   ar
    23    12    13   ar
    24    13    17    1
    25    17    18   ar
    26    18    19   ar
    27    19    20   ar
    28    20    21   ar
    29    21    22   ar
    30    22    23    1
    31    13    14   ar
    32    14    15   ar
    33    15    16    1
    34     5     6   ar
    35     6     1   ar
    36    16     9    1
    37    15    11   ar
    38    22    17   ar
@<TRIPOS>MOLECULE
*****
 35 38 0 0 0
SMALL
GASTEIGER

@<TRIPOS>ATOM
      1 C           7.4023   -3.5804   21.2216 C.ar    1  UNL1        0.1060
      2 C           8.3273   -3.0837   20.1503 C.ar    1  UNL1        0.0215
      3 C           7.7671   -2.4965   18.8888 C.ar    1  UNL1        0.0384
      4 C           6.2819   -2.4060   18.6987 C.ar    1  UNL1        0.1432
      5 C           5.3569   -2.9027   19.7700 C.ar    1  UNL1        0.0888
      6 C           5.9172   -3.4900   21.0315 C.ar    1  UNL1        0.0259
      7 C           3.8718   -2.8122   19.5798 C.2     1  UNL1        0.2525
      8 O           3.1484   -3.8755   18.8076 O.2     1  UNL1       -0.2698
      9 N           3.1101   -1.6585   20.1617 N.am    1  UNL1       -0.2660
     10 C           3.6939   -0.5260   20.9532 C.3     1  UNL1        0.1236
     11 C           2.5754    0.3977   21.3350 C.ar    1  UNL1        0.0338
     12 C           2.2449    1.6685   22.0601 C.ar    1  UNL1        0.0991
     13 N           0.7656    1.8923   21.9527 N.ar    1  UNL1       -0.2265
     14 N           0.1818    0.7597   21.1611 N.ar    1  UNL1       -0.1679
     15 C           1.3003   -0.1639   20.7793 C.ar    1  UNL1        0.0981
     16 C           1.6307   -1.4348   20.0542 C.3     1  UNL1        0.1414
     17 C           0.0039    3.0460   22.5345 C.ar    1  UNL1        0.1102
     18 C          -0.2220    4.2838   21.7180 C.ar    1  UNL1        0.0214
     19 C          -0.9837    5.4376   22.2999 C.ar    1  UNL1        0.0017
     20 C          -1.5197    5.3535   23.6984 C.ar    1  UNL1        0.0024
     21 C          -1.2939    4.1156   24.5149 C.ar    1  UNL1        0.0312
     22 C          -0.5321    2.9619   23.9331 C.ar    1  UNL1        0.1577
     23 F          -0.3063    1.7241   24.7496 F       1  UNL1       -0.2026
     24 S           7.9625   -4.1676   22.4831 S.O2    1  UNL1        0.0087
     25 O           9.3363   -3.7182   22.0823 O.2     1  UNL1       -0.1686
     26 O           6.5887   -4.6171   22.8839 O.2     1  UNL1       -0.1686
     27 C           8.0681   -6.1068   24.2089 C.3     1  UNL1        0.0276
     28 C           8.5226   -4.7548   23.7446 C.3     1  UNL1        0.1560
     29 O           5.7217   -1.8188   17.4371 O.3     1  UNL1       -0.4702
     30 C           5.5296   -0.3357   17.3210 C.3     1  UNL1        0.2599
     31 C           6.6945    0.5475   16.9851 C.3     1  UNL1        0.0566
     32 C           4.1725    0.2642   17.5408 C.3     1  UNL1        0.4340
     33 F           2.8153    0.8642   17.7605 F       1  UNL1       -0.1664
     34 F           4.7902    1.3648   18.3514 F       1  UNL1       -0.1664
     35 F           3.5547   -0.8363   16.7302 F       1  UNL1       -0.1664
@<TRIPOS>BOND
     1    27    28    1
     2    28    24    1
     3    24    25    2
     4    24    26    2
     5    24     1    1
     6     1     2   ar
     7     2     3   ar
     8     3     4   ar
     9     4    29    1
    10    29    30    1
    11    30    31    1
    12    30    32    1
    13    32    33    1
    14    32    34    1
    15    32    35    1
    16     4     5   ar
    17     5     7    1
    18     7     8    2
    19     7     9   am
    20     9    10    1
    21    10    11    1
    22    11    12   ar
    23    12    13   ar
    24    13    17    1
    25    17    18   ar
    26    18    19   ar
    27    19    20   ar
    28    20    21   ar
    29    21    22   ar
    30    22    23    1
    31    13    14   ar
    32    14    15   ar
    33    15    16    1
    34     5     6   ar
    35     6     1   ar
    36    16     9    1
    37    15    11   ar
    38    22    17   ar
@<TRIPOS>MOLECULE
*****
 35 38 0 0 0
SMALL
GASTEIGER

@<TRIPOS>ATOM
      1 C           7.9529   -3.8742   20.9674 C.ar    1  UNL1        0.1060
      2 C           9.0449   -3.2525   20.1483 C.ar    1  UNL1        0.0215
      3 C           8.7003   -2.3751   18.9815 C.ar    1  UNL1        0.0384
      4 C           7.2637   -2.1196   18.6338 C.ar    1  UNL1        0.1432
      5 C           6.1717   -2.7413   19.4530 C.ar    1  UNL1        0.0888
      6 C           6.5163   -3.6187   20.6198 C.ar    1  UNL1        0.0259
      7 C           4.7351   -2.4857   19.1052 C.2     1  UNL1        0.2525
      8 O           4.1570   -3.0518   17.8422 O.2     1  UNL1       -0.2698
      9 N           3.8767   -1.6639   20.0205 N.am    1  UNL1       -0.2660
     10 C           4.3131   -1.0358   21.3109 C.3     1  UNL1        0.1236
     11 C           3.1373   -0.3097   21.8940 C.ar    1  UNL1        0.0338
     12 C           2.6803    0.5273   23.0518 C.ar    1  UNL1        0.0991
     13 N           1.2346    0.8653   22.8375 N.ar    1  UNL1       -0.2265
     14 N           0.7982    0.2372   21.5471 N.ar    1  UNL1       -0.1679
     15 C           1.9741   -0.4890   20.9640 C.ar    1  UNL1        0.0981
     16 C           2.4310   -1.3259   19.8061 C.3     1  UNL1        0.1414
     17 C           0.3762    1.6871   23.7527 C.ar    1  UNL1        0.1102
     18 C           0.1752    1.2603   25.1766 C.ar    1  UNL1        0.0214
     19 C          -0.6832    2.0820   26.0919 C.ar    1  UNL1        0.0017
     20 C          -1.3407    3.3306   25.5833 C.ar    1  UNL1        0.0024
     21 C          -1.1397    3.7575   24.1594 C.ar    1  UNL1        0.0312
     22 C          -0.2813    2.9357   23.2441 C.ar    1  UNL1        0.1577
     23 F          -0.0803    3.3625   21.8203 F       1  UNL1       -0.2026
     24 S           8.2975   -4.7516   22.1343 S.O2    1  UNL1        0.0087
     25 O           8.2216   -3.5651   23.0489 O.2     1  UNL1       -0.1686
     26 O           8.3734   -5.9381   21.2197 O.2     1  UNL1       -0.1686
     27 C           8.8704   -7.0969   23.0941 C.3     1  UNL1        0.0276
     28 C           8.6421   -5.6289   23.3011 C.3     1  UNL1        0.1560
     29 O           6.9191   -1.2422   17.4670 O.3     1  UNL1       -0.4702
     30 C           6.9243    0.2496   17.6230 C.3     1  UNL1        0.2599
     31 C           7.2671    1.1248   16.4540 C.3     1  UNL1        0.0566
     32 C           6.5867    0.8664   18.9480 C.3     1  UNL1        0.4340
     33 F           6.2490    1.4831   20.2731 F       1  UNL1       -0.1664
     34 F           8.0460    0.9346   19.2882 F       1  UNL1       -0.1664
     35 F           5.1273    0.7981   18.6079 F       1  UNL1       -0.1664
@<TRIPOS>BOND
     1    27    28    1
     2    28    24    1
     3    24    25    2
     4    24    26    2
     5    24     1    1
     6     1     2   ar
     7     2     3   ar
     8     3     4   ar
     9     4    29    1
    10    29    30    1
    11    30    31    1
    12    30    32    1
    13    32    33    1
    14    32    34    1
    15    32    35    1
    16     4     5   ar
    17     5     7    1
    18     7     8    2
    19     7     9   am
    20     9    10    1
    21    10    11    1
    22    11    12   ar
    23    12    13   ar
    24    13    17    1
    25    17    18   ar
    26    18    19   ar
    27    19    20   ar
    28    20    21   ar
    29    21    22   ar
    30    22    23    1
    31    13    14   ar
    32    14    15   ar
    33    15    16    1
    34     5     6   ar
    35     6     1   ar
    36    16     9    1
    37    15    11   ar
    38    22    17   ar
@<TRIPOS>MOLECULE
*****
 35 38 0 0 0
SMALL
GASTEIGER

@<TRIPOS>ATOM
      1 C           5.3902   -2.0901   24.2282 C.ar    1  UNL1        0.1060
      2 C           5.2425   -3.3770   23.4718 C.ar    1  UNL1        0.0215
      3 C           4.5038   -3.3991   22.1664 C.ar    1  UNL1        0.0384
      4 C           3.9129   -2.1343   21.6176 C.ar    1  UNL1        0.1432
      5 C           4.0606   -0.8475   22.3740 C.ar    1  UNL1        0.0888
      6 C           4.7992   -0.8254   23.6793 C.ar    1  UNL1        0.0259
      7 C           3.4696    0.4172   21.8251 C.2     1  UNL1        0.2525
      8 O           4.0357    1.0302   20.5786 O.2     1  UNL1       -0.2698
      9 N           2.3125    1.0688   22.5226 N.am    1  UNL1       -0.2660
     10 C           1.6440    0.5747   23.7712 C.3     1  UNL1        0.1236
     11 C           0.5391    1.5295   24.1142 C.ar    1  UNL1        0.0338
     12 C          -0.5569    1.8142   25.0979 C.ar    1  UNL1        0.0991
     13 N          -1.2487    3.0743   24.6693 N.ar    1  UNL1       -0.2265
     14 N          -0.5801    3.5684   23.4206 N.ar    1  UNL1       -0.1679
     15 C           0.5248    2.6136   23.0776 C.ar    1  UNL1        0.0981
     16 C           1.6208    2.3289   22.0939 C.3     1  UNL1        0.1414
     17 C          -2.4057    3.7259   25.3668 C.ar    1  UNL1        0.1102
     18 C          -2.1768    4.5170   26.6204 C.ar    1  UNL1        0.0214
     19 C          -3.3338    5.1687   27.3180 C.ar    1  UNL1        0.0017
     20 C          -4.7199    5.0292   26.7618 C.ar    1  UNL1        0.0024
     21 C          -4.9489    4.2381   25.5081 C.ar    1  UNL1        0.0312
     22 C          -3.7919    3.5865   24.8106 C.ar    1  UNL1        0.1577
     23 F          -4.0208    2.7954   23.5569 F       1  UNL1       -0.2026
     24 S           6.1288   -2.0679   25.5335 S.O2    1  UNL1        0.0087
     25 O           6.5228   -3.5016   25.3349 O.2     1  UNL1       -0.1686
     26 O           5.7348   -0.6343   25.7321 O.2     1  UNL1       -0.1686
     27 C           6.1446   -2.3597   28.1151 C.3     1  UNL1        0.0276
     28 C           6.8675   -2.0457   26.8389 C.3     1  UNL1        0.1560
     29 O           3.1742   -2.1565   20.3122 O.3     1  UNL1       -0.4702
     30 C           3.9100   -2.4525   19.0390 C.3     1  UNL1        0.2599
     31 C           4.2675   -1.3366   18.1026 C.3     1  UNL1        0.0566
     32 C           4.2883   -3.8643   18.7022 C.3     1  UNL1        0.4340
     33 F           4.6666   -5.2763   18.3654 F       1  UNL1       -0.1664
     34 F           5.5778   -3.3777   18.1103 F       1  UNL1       -0.1664
     35 F           2.9989   -4.3511   19.2941 F       1  UNL1       -0.1664
@<TRIPOS>BOND
     1    27    28    1
     2    28    24    1
     3    24    25    2
     4    24    26    2
     5    24     1    1
     6     1     2   ar
     7     2     3   ar
     8     3     4   ar
     9     4    29    1
    10    29    30    1
    11    30    31    1
    12    30    32    1
    13    32    33    1
    14    32    34    1
    15    32    35    1
    16     4     5   ar
    17     5     7    1
    18     7     8    2
    19     7     9   am
    20     9    10    1
    21    10    11    1
    22    11    12   ar
    23    12    13   ar
    24    13    17    1
    25    17    18   ar
    26    18    19   ar
    27    19    20   ar
    28    20    21   ar
    29    21    22   ar
    30    22    23    1
    31    13    14   ar
    32    14    15   ar
    33    15    16    1
    34     5     6   ar
    35     6     1   ar
    36    16     9    1
    37    15    11   ar
    38    22    17   ar
@<TRIPOS>MOLECULE
*****
 35 38 0 0 0
SMALL
GASTEIGER

@<TRIPOS>ATOM
      1 C           2.9188   -0.5377   29.5862 C.ar    1  UNL1        0.1060
      2 C           4.1853   -0.6569   28.7914 C.ar    1  UNL1        0.0215
      3 C           5.4465   -1.1237   29.4557 C.ar    1  UNL1        0.0384
      4 C           5.4411   -1.4714   30.9150 C.ar    1  UNL1        0.1432
      5 C           4.1746   -1.3522   31.7098 C.ar    1  UNL1        0.0888
      6 C           2.9134   -0.8853   31.0453 C.ar    1  UNL1        0.0259
      7 C           4.1694   -1.6998   33.1689 C.2     1  UNL1        0.2525
      8 O           3.9640   -3.1217   33.6004 O.2     1  UNL1       -0.2698
      9 N           4.3694   -0.6256   34.1965 N.am    1  UNL1       -0.2660
     10 C           4.5853    0.8323   33.9175 C.3     1  UNL1        0.1236
     11 C           4.7380    1.5382   35.2322 C.ar    1  UNL1        0.0338
     12 C           4.9658    2.8755   35.8723 C.ar    1  UNL1        0.0991
     13 N           4.9851    2.6804   37.3594 N.ar    1  UNL1       -0.2265
     14 N           4.7691    1.2224   37.6384 N.ar    1  UNL1       -0.1679
     15 C           4.6164    0.5165   36.3238 C.ar    1  UNL1        0.0981
     16 C           4.3886   -0.8208   35.6837 C.3     1  UNL1        0.1414
     17 C           5.1851    3.7545   38.3870 C.ar    1  UNL1        0.1102
     18 C           6.4716    4.5247   38.4263 C.ar    1  UNL1        0.0214
     19 C           6.6717    5.5989   39.4540 C.ar    1  UNL1        0.0017
     20 C           5.5852    5.9029   40.4424 C.ar    1  UNL1        0.0024
     21 C           4.2986    5.1326   40.4032 C.ar    1  UNL1        0.0312
     22 C           4.0986    4.0585   39.3756 C.ar    1  UNL1        0.1577
     23 F           2.8120    3.2883   39.3363 F       1  UNL1       -0.2026
     24 S           1.6575   -0.0709   28.9219 S.O2    1  UNL1        0.0087
     25 O           2.3789    0.0101   27.6092 O.2     1  UNL1       -0.1686
     26 O           0.9361   -0.1520   30.2345 O.2     1  UNL1       -0.1686
     27 C          -0.9273   -0.1703   28.6789 C.3     1  UNL1        0.0276
     28 C           0.3963    0.3959   28.2575 C.3     1  UNL1        0.1560
     29 O           6.7024   -1.9382   31.5793 O.3     1  UNL1       -0.4702
     30 C           7.5529   -2.9848   30.9226 C.3     1  UNL1        0.2599
     31 C           8.9132   -2.6273   30.4013 C.3     1  UNL1        0.0566
     32 C           7.0431   -4.3890   30.7872 C.3     1  UNL1        0.4340
     33 F           6.5333   -5.7933   30.6519 F       1  UNL1       -0.1664
     34 F           7.4728   -4.4065   29.3502 F       1  UNL1       -0.1664
     35 F           6.6135   -4.3716   32.2242 F       1  UNL1       -0.1664
@<TRIPOS>BOND
     1    27    28    1
     2    28    24    1
     3    24    25    2
     4    24    26    2
     5    24     1    1
     6     1     2   ar
     7     2     3   ar
     8     3     4   ar
     9     4    29    1
    10    29    30    1
    11    30    31    1
    12    30    32    1
    13    32    33    1
    14    32    34    1
    15    32    35    1
    16     4     5   ar
    17     5     7    1
    18     7     8    2
    19     7     9   am
    20     9    10    1
    21    10    11    1
    22    11    12   ar
    23    12    13   ar
    24    13    17    1
    25    17    18   ar
    26    18    19   ar
    27    19    20   ar
    28    20    21   ar
    29    21    22   ar
    30    22    23    1
    31    13    14   ar
    32    14    15   ar
    33    15    16    1
    34     5     6   ar
    35     6     1   ar
    36    16     9    1
    37    15    11   ar
    38    22    17   ar
@<TRIPOS>MOLECULE
*****
 35 38 0 0 0
SMALL
GASTEIGER

@<TRIPOS>ATOM
      1 C           3.6483    1.5749   37.1375 C.ar    1  UNL1        0.1060
      2 C           4.3664    0.2670   37.2913 C.ar    1  UNL1        0.0215
      3 C           5.3494   -0.1761   36.2485 C.ar    1  UNL1        0.0384
      4 C           5.6143    0.6889   35.0519 C.ar    1  UNL1        0.1432
      5 C           4.8962    1.9969   34.8982 C.ar    1  UNL1        0.0888
      6 C           3.9132    2.4399   35.9410 C.ar    1  UNL1        0.0259
      7 C           5.1612    2.8618   33.7016 C.2     1  UNL1        0.2525
      8 O           6.3447    3.7833   33.6896 O.2     1  UNL1       -0.2698
      9 N           4.2427    2.8051   32.5171 N.am    1  UNL1       -0.2660
     10 C           3.0263    1.9374   32.3853 C.3     1  UNL1        0.1236
     11 C           2.4113    2.2023   31.0431 C.ar    1  UNL1        0.0338
     12 C           1.2793    1.8297   30.1321 C.ar    1  UNL1        0.0991
     13 N           1.4160    2.6308   28.8713 N.ar    1  UNL1       -0.2265
     14 N           2.6325    3.4986   29.0031 N.ar    1  UNL1       -0.1679
     15 C           3.2475    3.2337   30.3453 C.ar    1  UNL1        0.0981
     16 C           4.3795    3.6063   31.2563 C.3     1  UNL1        0.1414
     17 C           0.4976    2.5742   27.6868 C.ar    1  UNL1        0.1102
     18 C          -0.6444    3.5404   27.5763 C.ar    1  UNL1        0.0214
     19 C          -1.5629    3.4838   26.3917 C.ar    1  UNL1        0.0017
     20 C          -1.3394    2.4609   25.3176 C.ar    1  UNL1        0.0024
     21 C          -0.1973    1.4946   25.4281 C.ar    1  UNL1        0.0312
     22 C           0.7211    1.5513   26.6126 C.ar    1  UNL1        0.1577
     23 F           1.8631    0.5850   26.7231 F       1  UNL1       -0.2026
     24 S           2.6652    2.0180   38.1802 S.O2    1  UNL1        0.0087
     25 O           3.4523    1.2920   39.2307 O.2     1  UNL1       -0.1686
     26 O           1.8782    2.7440   37.1298 O.2     1  UNL1       -0.1686
     27 C           0.5412    1.5660   39.6065 C.3     1  UNL1        0.0276
     28 C           1.6822    2.4610   39.2230 C.3     1  UNL1        0.1560
     29 O           6.5974    0.2459   34.0092 O.3     1  UNL1       -0.4702
     30 C           6.3054   -0.9612   33.1679 C.3     1  UNL1        0.2599
     31 C           7.3981   -1.9406   32.8567 C.3     1  UNL1        0.0566
     32 C           4.9208   -1.1889   32.6378 C.3     1  UNL1        0.4340
     33 F           3.5362   -1.4166   32.1077 F       1  UNL1       -0.1664
     34 F           4.6751   -2.2033   33.7151 F       1  UNL1       -0.1664
     35 F           5.1665   -0.1746   31.5605 F       1  UNL1       -0.1664
@<TRIPOS>BOND
     1    27    28    1
     2    28    24    1
     3    24    25    2
     4    24    26    2
     5    24     1    1
     6     1     2   ar
     7     2     3   ar
     8     3     4   ar
     9     4    29    1
    10    29    30    1
    11    30    31    1
    12    30    32    1
    13    32    33    1
    14    32    34    1
    15    32    35    1
    16     4     5   ar
    17     5     7    1
    18     7     8    2
    19     7     9   am
    20     9    10    1
    21    10    11    1
    22    11    12   ar
    23    12    13   ar
    24    13    17    1
    25    17    18   ar
    26    18    19   ar
    27    19    20   ar
    28    20    21   ar
    29    21    22   ar
    30    22    23    1
    31    13    14   ar
    32    14    15   ar
    33    15    16    1
    34     5     6   ar
    35     6     1   ar
    36    16     9    1
    37    15    11   ar
    38    22    17   ar
