@<TRIPOS>MOLECULE
*****
 28 32 0 0 0
SMALL
GASTEIGER

@<TRIPOS>ATOM
      1 O          -5.4535  -19.1160   22.7153 O.3     1  UNL1       -0.4733
      2 C          -4.3934  -18.0750   22.5093 C.3     1  UNL1        0.2026
      3 C          -3.2195  -18.1836   21.5818 C.ar    1  UNL1        0.0146
      4 C          -2.7740  -19.2711   20.6498 C.ar    1  UNL1       -0.0011
      5 C          -1.5307  -19.0934   19.8298 C.ar    1  UNL1       -0.0002
      6 C          -0.7328  -17.8281   19.9418 C.ar    1  UNL1       -0.0003
      7 C          -1.1783  -16.7406   20.8738 C.ar    1  UNL1       -0.0044
      8 C          -2.4216  -16.9183   21.6939 C.ar    1  UNL1       -0.0213
      9 C          -3.1025  -16.0278   22.6906 C.3     1  UNL1        0.0461
     10 C          -4.3211  -16.7426   23.1945 C.3     1  UNL1        0.1066
     11 N          -5.2962  -16.2173   24.2061 N.3     1  UNL1       -0.2703
     12 C          -5.0140  -15.9738   25.6591 C.3     1  UNL1        0.0722
     13 C          -6.2680  -15.4493   26.2933 C.3     1  UNL1        0.0188
     14 C          -7.3253  -15.3686   25.2323 C.3     1  UNL1        0.0188
     15 C          -6.7246  -15.8433   23.9424 C.3     1  UNL1        0.0722
     16 C          -9.1314  -18.7059   21.2819 C.ar    1  UNL1        0.0713
     17 C          -8.9767  -19.3231   19.9235 C.ar    1  UNL1        0.0179
     18 C          -7.6475  -19.8713   19.4957 C.ar    1  UNL1        0.0046
     19 C          -6.4732  -19.8022   20.4264 C.ar    1  UNL1        0.0370
     20 C          -6.6278  -19.1850   21.7848 C.ar    1  UNL1        0.1404
     21 C          -7.9570  -18.6369   22.2125 C.ar    1  UNL1        0.0545
     22 C         -13.6679  -17.9989   23.8896 C.3     1  UNL1        0.1352
     23 N         -12.5457  -17.8328   22.9083 N.ar    1  UNL1       -0.2762
     24 C         -12.4660  -16.7958   21.8274 C.ar    1  UNL1        0.0989
     25 C         -11.1772  -16.9967   21.0865 C.ar    1  UNL1        0.1031
     26 N         -10.4605  -18.1578   21.7096 N.ar    1  UNL1       -0.2573
     27 C         -11.3063  -18.6746   22.8355 C.ar    1  UNL1        0.3356
     28 O         -10.9715  -19.8301   23.7313 O.2     1  UNL1       -0.2459
@<TRIPOS>BOND
     1    22    23    1
     2    23    24   ar
     3    24    25   ar
     4    25    26   ar
     5    26    16    1
     6    16    17   ar
     7    17    18   ar
     8    18    19   ar
     9    19    20   ar
    10    20     1    1
    11     2     1    1
    12     2     3    1
    13     3     4   ar
    14     4     5   ar
    15     5     6   ar
    16     6     7   ar
    17     7     8   ar
    18     8     9    1
    19     9    10    1
    20    10    11    1
    21    11    12    1
    22    12    13    1
    23    13    14    1
    24    14    15    1
    25    20    21   ar
    26    26    27   ar
    27    27    28    2
    28    27    23   ar
    29    21    16   ar
    30    10     2    1
    31    15    11    1
    32     8     3   ar
@<TRIPOS>MOLECULE
*****
 28 32 0 0 0
SMALL
GASTEIGER

@<TRIPOS>ATOM
      1 O          -7.1539  -18.9102   23.0937 O.3     1  UNL1       -0.4733
      2 C          -8.1113  -17.8019   22.7697 C.3     1  UNL1        0.2026
      3 C          -9.1686  -17.8329   21.7062 C.ar    1  UNL1        0.0146
      4 C          -9.5675  -18.8885   20.7180 C.ar    1  UNL1       -0.0011
      5 C         -10.6880  -18.6293   19.7551 C.ar    1  UNL1       -0.0002
      6 C         -11.4097  -17.3146   19.7804 C.ar    1  UNL1       -0.0003
      7 C         -11.0108  -16.2590   20.7686 C.ar    1  UNL1       -0.0044
      8 C          -9.8903  -16.5182   21.7315 C.ar    1  UNL1       -0.0213
      9 C          -9.2789  -15.6746   22.8107 C.3     1  UNL1        0.0461
     10 C          -8.1794  -16.4680   23.4524 C.3     1  UNL1        0.1066
     11 N          -7.3022  -16.0081   24.5789 N.3     1  UNL1       -0.2703
     12 C          -5.8488  -15.6518   24.4756 C.3     1  UNL1        0.0722
     13 C          -5.3726  -15.2473   25.8393 C.3     1  UNL1        0.0188
     14 C          -6.5318  -15.3538   26.7854 C.3     1  UNL1        0.0188
     15 C          -7.7243  -15.8240   26.0064 C.3     1  UNL1        0.0722
     16 C          -4.2472  -19.4224   20.4407 C.ar    1  UNL1        0.0713
     17 C          -4.6422  -20.7378   19.8378 C.ar    1  UNL1        0.0179
     18 C          -5.8745  -21.4441   20.3201 C.ar    1  UNL1        0.0046
     19 C          -6.7117  -20.8348   21.4055 C.ar    1  UNL1        0.0370
     20 C          -6.3166  -19.5193   22.0084 C.ar    1  UNL1        0.1404
     21 C          -5.0844  -18.8131   21.5260 C.ar    1  UNL1        0.0545
     22 C           0.6609  -17.4913   20.1904 C.3     1  UNL1        0.1352
     23 N          -0.7589  -17.8285   19.8432 N.ar    1  UNL1       -0.2762
     24 C          -1.4782  -17.4303   18.5886 C.ar    1  UNL1        0.0989
     25 C          -2.8725  -17.9789   18.6597 C.ar    1  UNL1        0.1031
     26 N          -3.0149  -18.7161   19.9583 N.ar    1  UNL1       -0.2573
     27 C          -1.7086  -18.6232   20.6897 C.ar    1  UNL1        0.3356
     28 O          -1.4052  -19.2202   22.0319 O.2     1  UNL1       -0.2459
@<TRIPOS>BOND
     1    22    23    1
     2    23    24   ar
     3    24    25   ar
     4    25    26   ar
     5    26    16    1
     6    16    17   ar
     7    17    18   ar
     8    18    19   ar
     9    19    20   ar
    10    20     1    1
    11     2     1    1
    12     2     3    1
    13     3     4   ar
    14     4     5   ar
    15     5     6   ar
    16     6     7   ar
    17     7     8   ar
    18     8     9    1
    19     9    10    1
    20    10    11    1
    21    11    12    1
    22    12    13    1
    23    13    14    1
    24    14    15    1
    25    20    21   ar
    26    26    27   ar
    27    27    28    2
    28    27    23   ar
    29    21    16   ar
    30    10     2    1
    31    15    11    1
    32     8     3   ar
@<TRIPOS>MOLECULE
*****
 28 32 0 0 0
SMALL
GASTEIGER

@<TRIPOS>ATOM
      1 O          -6.0231  -18.9970   21.9801 O.3     1  UNL1       -0.4733
      2 C          -5.7710  -17.7509   22.7762 C.3     1  UNL1        0.2026
      3 C          -6.7512  -17.0733   23.6873 C.ar    1  UNL1        0.0146
      4 C          -8.1678  -17.3987   24.0576 C.ar    1  UNL1       -0.0011
      5 C          -8.9137  -16.5180   25.0158 C.ar    1  UNL1       -0.0002
      6 C          -8.2429  -15.3119   25.6035 C.ar    1  UNL1       -0.0003
      7 C          -6.8262  -14.9865   25.2332 C.ar    1  UNL1       -0.0044
      8 C          -6.0804  -15.8672   24.2751 C.ar    1  UNL1       -0.0213
      9 C          -4.6856  -15.7995   23.7272 C.3     1  UNL1        0.0461
     10 C          -4.4944  -16.9636   22.8008 C.3     1  UNL1        0.1066
     11 N          -3.2458  -17.2842   22.0338 N.3     1  UNL1       -0.2703
     12 C          -2.8545  -18.6346   21.5110 C.3     1  UNL1        0.0722
     13 C          -1.5362  -18.4957   20.8090 C.3     1  UNL1        0.0188
     14 C          -1.1127  -17.0595   20.8980 C.3     1  UNL1        0.0188
     15 C          -2.1693  -16.3108   21.6550 C.3     1  UNL1        0.0722
     16 C          -9.8482  -18.8072   20.9396 C.ar    1  UNL1        0.0713
     17 C          -9.7967  -19.3971   19.5614 C.ar    1  UNL1        0.0179
     18 C          -8.4873  -19.8536   18.9895 C.ar    1  UNL1        0.0046
     19 C          -7.2294  -19.7202   19.7957 C.ar    1  UNL1        0.0370
     20 C          -7.2809  -19.1303   21.1740 C.ar    1  UNL1        0.1404
     21 C          -8.5903  -18.6738   21.7459 C.ar    1  UNL1        0.0545
     22 C         -13.9229  -18.1092   24.2244 C.3     1  UNL1        0.1352
     23 N         -13.0305  -18.0299   23.0214 N.ar    1  UNL1       -0.2762
     24 C         -13.3146  -17.2665   21.7617 C.ar    1  UNL1        0.0989
     25 C         -12.1570  -17.4648   20.8286 C.ar    1  UNL1        0.1031
     26 N         -11.1576  -18.3507   21.5115 N.ar    1  UNL1       -0.2573
     27 C         -11.6974  -18.6999   22.8667 C.ar    1  UNL1        0.3356
     28 O         -11.0227  -19.5669   23.8879 O.2     1  UNL1       -0.2459
@<TRIPOS>BOND
     1    22    23    1
     2    23    24   ar
     3    24    25   ar
     4    25    26   ar
     5    26    16    1
     6    16    17   ar
     7    17    18   ar
     8    18    19   ar
     9    19    20   ar
    10    20     1    1
    11     2     1    1
    12     2     3    1
    13     3     4   ar
    14     4     5   ar
    15     5     6   ar
    16     6     7   ar
    17     7     8   ar
    18     8     9    1
    19     9    10    1
    20    10    11    1
    21    11    12    1
    22    12    13    1
    23    13    14    1
    24    14    15    1
    25    20    21   ar
    26    26    27   ar
    27    27    28    2
    28    27    23   ar
    29    21    16   ar
    30    10     2    1
    31    15    11    1
    32     8     3   ar
@<TRIPOS>MOLECULE
*****
 28 32 0 0 0
SMALL
GASTEIGER

@<TRIPOS>ATOM
      1 O          -4.3295  -17.9362   23.2646 O.3     1  UNL1       -0.4733
      2 C          -4.0871  -18.2608   21.8203 C.3     1  UNL1        0.2026
      3 C          -2.8236  -17.9948   21.0569 C.ar    1  UNL1        0.0146
      4 C          -1.5187  -17.3750   21.4606 C.ar    1  UNL1       -0.0011
      5 C          -0.4114  -17.2384   20.4580 C.ar    1  UNL1       -0.0002
      6 C          -0.6090  -17.7216   19.0518 C.ar    1  UNL1       -0.0003
      7 C          -1.9139  -18.3414   18.6482 C.ar    1  UNL1       -0.0044
      8 C          -3.0212  -18.4780   19.6507 C.ar    1  UNL1       -0.0213
      9 C          -4.4068  -19.0427   19.5451 C.3     1  UNL1        0.0461
     10 C          -5.0656  -18.9085   20.8859 C.3     1  UNL1        0.1066
     11 N          -6.4583  -19.3452   21.2317 N.3     1  UNL1       -0.2703
     12 C          -6.8427  -20.2518   22.3632 C.3     1  UNL1        0.0722
     13 C          -8.3332  -20.4190   22.3375 C.3     1  UNL1        0.0188
     14 C          -8.8700  -19.6156   21.1902 C.3     1  UNL1        0.0188
     15 C          -7.7112  -18.9520   20.5068 C.3     1  UNL1        0.0722
     16 C          -7.9294  -16.2998   23.6001 C.ar    1  UNL1        0.0713
     17 C          -7.6108  -15.0770   24.4083 C.ar    1  UNL1        0.0179
     18 C          -6.1983  -14.8072   24.8353 C.ar    1  UNL1        0.0046
     19 C          -5.1046  -15.7603   24.4540 C.ar    1  UNL1        0.0370
     20 C          -5.4232  -16.9832   23.6458 C.ar    1  UNL1        0.1404
     21 C          -6.8357  -17.2529   23.2188 C.ar    1  UNL1        0.0545
     22 C         -12.4177  -16.3212   20.8188 C.3     1  UNL1        0.1352
     23 N         -11.4049  -16.5793   21.8947 N.ar    1  UNL1       -0.2762
     24 C         -11.6259  -17.3897   23.1375 C.ar    1  UNL1        0.0989
     25 C         -10.3508  -17.3836   23.9277 C.ar    1  UNL1        0.1031
     26 N          -9.3419  -16.5695   23.1732 N.ar    1  UNL1       -0.2573
     27 C          -9.9933  -16.0724   21.9167 C.ar    1  UNL1        0.3356
     28 O          -9.3467  -15.2185   20.8667 O.2     1  UNL1       -0.2459
@<TRIPOS>BOND
     1    22    23    1
     2    23    24   ar
     3    24    25   ar
     4    25    26   ar
     5    26    16    1
     6    16    17   ar
     7    17    18   ar
     8    18    19   ar
     9    19    20   ar
    10    20     1    1
    11     2     1    1
    12     2     3    1
    13     3     4   ar
    14     4     5   ar
    15     5     6   ar
    16     6     7   ar
    17     7     8   ar
    18     8     9    1
    19     9    10    1
    20    10    11    1
    21    11    12    1
    22    12    13    1
    23    13    14    1
    24    14    15    1
    25    20    21   ar
    26    26    27   ar
    27    27    28    2
    28    27    23   ar
    29    21    16   ar
    30    10     2    1
    31    15    11    1
    32     8     3   ar
@<TRIPOS>MOLECULE
*****
 28 32 0 0 0
SMALL
GASTEIGER

@<TRIPOS>ATOM
      1 O         -14.0576   -4.6845   20.5166 O.3     1  UNL1       -0.4733
      2 C         -13.5750   -5.7895   19.6244 C.3     1  UNL1        0.2026
      3 C         -12.1812   -5.9488   19.0934 C.ar    1  UNL1        0.0146
      4 C         -10.9394   -5.1265   19.2709 C.ar    1  UNL1       -0.0011
      5 C          -9.6626   -5.5422   18.6025 C.ar    1  UNL1       -0.0002
      6 C          -9.6276   -6.7804   17.7565 C.ar    1  UNL1       -0.0003
      7 C         -10.8694   -7.6028   17.5789 C.ar    1  UNL1       -0.0044
      8 C         -12.1462   -7.1870   18.2474 C.ar    1  UNL1       -0.0213
      9 C         -13.5184   -7.7929   18.2555 C.3     1  UNL1        0.0461
     10 C         -14.4014   -6.9292   19.1066 C.3     1  UNL1        0.1066
     11 N         -15.8556   -7.1639   19.3900 N.3     1  UNL1       -0.2703
     12 C         -16.9612   -6.1664   19.2097 C.3     1  UNL1        0.0722
     13 C         -18.2484   -6.8234   19.6118 C.3     1  UNL1        0.0188
     14 C         -17.9382   -8.2270   20.0406 C.3     1  UNL1        0.0188
     15 C         -16.4594   -8.4374   19.9035 C.3     1  UNL1        0.0722
     16 C         -16.1083   -1.4818   19.3821 C.ar    1  UNL1        0.0713
     17 C         -15.0185   -0.6464   18.7786 C.ar    1  UNL1        0.0179
     18 C         -13.6082   -1.1570   18.7544 C.ar    1  UNL1        0.0046
     19 C         -13.2880   -2.5030   19.3337 C.ar    1  UNL1        0.0370
     20 C         -14.3779   -3.3385   19.9373 C.ar    1  UNL1        0.1404
     21 C         -15.7881   -2.8278   19.9614 C.ar    1  UNL1        0.0545
     22 C         -20.4474    1.2244   20.6972 C.3     1  UNL1        0.1352
     23 N         -19.5129    0.2728   20.0107 N.ar    1  UNL1       -0.2762
     24 C         -19.8642   -0.6433   18.8761 C.ar    1  UNL1        0.0989
     25 C         -18.6315   -1.4122   18.5025 C.ar    1  UNL1        0.1031
     26 N         -17.5185   -0.9712   19.4062 N.ar    1  UNL1       -0.2573
     27 C         -18.0632    0.0702   20.3384 C.ar    1  UNL1        0.3356
     28 O         -17.2935    0.7836   21.4100 O.2     1  UNL1       -0.2459
@<TRIPOS>BOND
     1    22    23    1
     2    23    24   ar
     3    24    25   ar
     4    25    26   ar
     5    26    16    1
     6    16    17   ar
     7    17    18   ar
     8    18    19   ar
     9    19    20   ar
    10    20     1    1
    11     2     1    1
    12     2     3    1
    13     3     4   ar
    14     4     5   ar
    15     5     6   ar
    16     6     7   ar
    17     7     8   ar
    18     8     9    1
    19     9    10    1
    20    10    11    1
    21    11    12    1
    22    12    13    1
    23    13    14    1
    24    14    15    1
    25    20    21   ar
    26    26    27   ar
    27    27    28    2
    28    27    23   ar
    29    21    16   ar
    30    10     2    1
    31    15    11    1
    32     8     3   ar
@<TRIPOS>MOLECULE
*****
 28 32 0 0 0
SMALL
GASTEIGER

@<TRIPOS>ATOM
      1 O         -13.8887   -5.3783   20.2749 O.3     1  UNL1       -0.4733
      2 C         -13.9685   -6.4952   19.2769 C.3     1  UNL1        0.2026
      3 C         -15.0882   -7.4851   19.1492 C.ar    1  UNL1        0.0146
      4 C         -16.3687   -7.6558   19.9115 C.ar    1  UNL1       -0.0011
      5 C         -17.3154   -8.7616   19.5493 C.ar    1  UNL1       -0.0002
      6 C         -16.9815   -9.6966   18.4249 C.ar    1  UNL1       -0.0003
      7 C         -15.7010   -9.5258   17.6626 C.ar    1  UNL1       -0.0044
      8 C         -14.7544   -8.4201   18.0247 C.ar    1  UNL1       -0.0213
      9 C         -13.4283   -8.0081   17.4575 C.3     1  UNL1        0.0461
     10 C         -12.9425   -6.8184   18.2314 C.3     1  UNL1        0.1066
     11 N         -11.6567   -6.0814   18.0003 N.3     1  UNL1       -0.2703
     12 C         -10.6050   -5.7985   19.0318 C.3     1  UNL1        0.0722
     13 C          -9.4950   -5.0402   18.3662 C.3     1  UNL1        0.0188
     14 C          -9.8608   -4.8544   16.9234 C.3     1  UNL1        0.0188
     15 C         -11.1967   -5.4979   16.6973 C.3     1  UNL1        0.0722
     16 C         -15.9068   -2.0623   19.4493 C.ar    1  UNL1        0.0713
     17 C         -14.7959   -1.1574   19.0055 C.ar    1  UNL1        0.0179
     18 C         -13.3825   -1.6594   18.9848 C.ar    1  UNL1        0.0046
     19 C         -13.0801   -3.0664   19.4080 C.ar    1  UNL1        0.0370
     20 C         -14.1911   -3.9714   19.8518 C.ar    1  UNL1        0.1404
     21 C         -15.6044   -3.4693   19.8724 C.ar    1  UNL1        0.0545
     22 C         -20.2102    0.7799   20.5817 C.3     1  UNL1        0.1352
     23 N         -19.2982   -0.2538   19.9905 N.ar    1  UNL1       -0.2762
     24 C         -19.6918   -1.3214   19.0130 C.ar    1  UNL1        0.0989
     25 C         -18.4692   -2.1288   18.6913 C.ar    1  UNL1        0.1031
     26 N         -17.3201   -1.5602   19.4700 N.ar    1  UNL1       -0.2573
     27 C         -17.8324   -0.4014   20.2729 C.ar    1  UNL1        0.3356
     28 O         -17.0214    0.4587   21.1961 O.2     1  UNL1       -0.2459
@<TRIPOS>BOND
     1    22    23    1
     2    23    24   ar
     3    24    25   ar
     4    25    26   ar
     5    26    16    1
     6    16    17   ar
     7    17    18   ar
     8    18    19   ar
     9    19    20   ar
    10    20     1    1
    11     2     1    1
    12     2     3    1
    13     3     4   ar
    14     4     5   ar
    15     5     6   ar
    16     6     7   ar
    17     7     8   ar
    18     8     9    1
    19     9    10    1
    20    10    11    1
    21    11    12    1
    22    12    13    1
    23    13    14    1
    24    14    15    1
    25    20    21   ar
    26    26    27   ar
    27    27    28    2
    28    27    23   ar
    29    21    16   ar
    30    10     2    1
    31    15    11    1
    32     8     3   ar
@<TRIPOS>MOLECULE
*****
 28 32 0 0 0
SMALL
GASTEIGER

@<TRIPOS>ATOM
      1 O         -14.6156   -5.1021   20.4524 O.3     1  UNL1       -0.4733
      2 C         -14.2847   -6.2505   19.5458 C.3     1  UNL1        0.2026
      3 C         -15.1552   -7.4426   19.2793 C.ar    1  UNL1        0.0146
      4 C         -16.5117   -7.8290   19.7897 C.ar    1  UNL1       -0.0011
      5 C         -17.1467   -9.1101   19.3363 C.ar    1  UNL1       -0.0002
      6 C         -16.4251  -10.0047   18.3724 C.ar    1  UNL1       -0.0003
      7 C         -15.0687   -9.6182   17.8619 C.ar    1  UNL1       -0.0044
      8 C         -14.4337   -8.3372   18.3154 C.ar    1  UNL1       -0.0213
      9 C         -13.1173   -7.6979   17.9863 C.3     1  UNL1        0.0461
     10 C         -13.0251   -6.4083   18.7467 C.3     1  UNL1        0.1066
     11 N         -11.8754   -5.4455   18.7138 N.3     1  UNL1       -0.2703
     12 C         -10.4350   -5.7835   18.9612 C.3     1  UNL1        0.0722
     13 C          -9.6335   -4.5226   18.8280 C.3     1  UNL1        0.0188
     14 C         -10.5785   -3.4053   18.4983 C.3     1  UNL1        0.0188
     15 C         -11.9640   -3.9757   18.4278 C.3     1  UNL1        0.0722
     16 C         -16.1150   -1.5909   19.3694 C.ar    1  UNL1        0.0713
     17 C         -17.5482   -1.9585   19.1230 C.ar    1  UNL1        0.0179
     18 C         -18.0039   -3.3740   19.3197 C.ar    1  UNL1        0.0046
     19 C         -17.0264   -4.4219   19.7629 C.ar    1  UNL1        0.0370
     20 C         -15.5931   -4.0543   20.0093 C.ar    1  UNL1        0.1404
     21 C         -15.1374   -2.6388   19.8126 C.ar    1  UNL1        0.0545
     22 C         -15.6412    3.6455   19.8551 C.3     1  UNL1        0.1352
     23 N         -15.4416    2.2315   19.3959 N.ar    1  UNL1       -0.2762
     24 C         -14.4749    1.7743   18.3440 C.ar    1  UNL1        0.0989
     25 C         -14.6095    0.2866   18.2061 C.ar    1  UNL1        0.1031
     26 N         -15.6594   -0.1754   19.1727 N.ar    1  UNL1       -0.2573
     27 C         -16.1736    1.0266   19.9081 C.ar    1  UNL1        0.3356
     28 O         -17.2337    1.0242   20.9692 O.2     1  UNL1       -0.2459
@<TRIPOS>BOND
     1    22    23    1
     2    23    24   ar
     3    24    25   ar
     4    25    26   ar
     5    26    16    1
     6    16    17   ar
     7    17    18   ar
     8    18    19   ar
     9    19    20   ar
    10    20     1    1
    11     2     1    1
    12     2     3    1
    13     3     4   ar
    14     4     5   ar
    15     5     6   ar
    16     6     7   ar
    17     7     8   ar
    18     8     9    1
    19     9    10    1
    20    10    11    1
    21    11    12    1
    22    12    13    1
    23    13    14    1
    24    14    15    1
    25    20    21   ar
    26    26    27   ar
    27    27    28    2
    28    27    23   ar
    29    21    16   ar
    30    10     2    1
    31    15    11    1
    32     8     3   ar
@<TRIPOS>MOLECULE
*****
 28 32 0 0 0
SMALL
GASTEIGER

@<TRIPOS>ATOM
      1 O          -8.9824  -18.0239   23.8019 O.3     1  UNL1       -0.4733
      2 C          -9.5822  -18.5644   22.5377 C.3     1  UNL1        0.2026
      3 C          -8.8297  -18.9444   21.2970 C.ar    1  UNL1        0.0146
      4 C          -7.3690  -18.9074   20.9582 C.ar    1  UNL1       -0.0011
      5 C          -6.9008  -19.3606   19.6072 C.ar    1  UNL1       -0.0002
      6 C          -7.8933  -19.8508   18.5949 C.ar    1  UNL1       -0.0003
      7 C          -9.3540  -19.8879   18.9338 C.ar    1  UNL1       -0.0044
      8 C          -9.8222  -19.4346   20.2848 C.ar    1  UNL1       -0.0213
      9 C         -11.1881  -19.3576   20.9000 C.3     1  UNL1        0.0461
     10 C         -11.0398  -18.8197   22.2923 C.3     1  UNL1        0.1066
     11 N         -12.1535  -18.5794   23.2680 N.3     1  UNL1       -0.2703
     12 C         -13.4587  -17.9041   22.9673 C.3     1  UNL1        0.0722
     13 C         -14.2694  -17.8796   24.2291 C.3     1  UNL1        0.0188
     14 C         -13.4653  -18.5397   25.3097 C.3     1  UNL1        0.0188
     15 C         -12.1576  -18.9723   24.7156 C.3     1  UNL1        0.0722
     16 C          -5.1621  -17.2307   23.0767 C.ar    1  UNL1        0.0713
     17 C          -5.0382  -15.8612   23.6758 C.ar    1  UNL1        0.0179
     18 C          -6.2291  -15.2125   24.3169 C.ar    1  UNL1        0.0046
     19 C          -7.5438  -15.9334   24.3589 C.ar    1  UNL1        0.0370
     20 C          -7.6677  -17.3030   23.7598 C.ar    1  UNL1        0.1404
     21 C          -6.4768  -17.9517   23.1187 C.ar    1  UNL1        0.0545
     22 C          -0.5670  -17.9311   20.5717 C.3     1  UNL1        0.1352
     23 N          -1.8591  -18.2012   21.2842 N.ar    1  UNL1       -0.2762
     24 C          -2.4180  -19.5536   21.6138 C.ar    1  UNL1        0.0989
     25 C          -3.7235  -19.3546   22.3255 C.ar    1  UNL1        0.1031
     26 N          -3.9712  -17.8794   22.4356 N.ar    1  UNL1       -0.2573
     27 C          -2.8189  -17.1665   21.7920 C.ar    1  UNL1        0.3356
     28 O          -2.6552  -15.6800   21.6766 O.2     1  UNL1       -0.2459
@<TRIPOS>BOND
     1    22    23    1
     2    23    24   ar
     3    24    25   ar
     4    25    26   ar
     5    26    16    1
     6    16    17   ar
     7    17    18   ar
     8    18    19   ar
     9    19    20   ar
    10    20     1    1
    11     2     1    1
    12     2     3    1
    13     3     4   ar
    14     4     5   ar
    15     5     6   ar
    16     6     7   ar
    17     7     8   ar
    18     8     9    1
    19     9    10    1
    20    10    11    1
    21    11    12    1
    22    12    13    1
    23    13    14    1
    24    14    15    1
    25    20    21   ar
    26    26    27   ar
    27    27    28    2
    28    27    23   ar
    29    21    16   ar
    30    10     2    1
    31    15    11    1
    32     8     3   ar
@<TRIPOS>MOLECULE
*****
 28 32 0 0 0
SMALL
GASTEIGER

@<TRIPOS>ATOM
      1 O           7.0984   -2.9935   21.7225 O.3     1  UNL1       -0.4733
      2 C           7.0806   -3.6746   23.0588 C.3     1  UNL1        0.2026
      3 C           7.7026   -5.0011   23.3806 C.ar    1  UNL1        0.0146
      4 C           8.4710   -5.9792   22.5422 C.ar    1  UNL1       -0.0011
      5 C           8.9809   -7.2513   23.1518 C.ar    1  UNL1       -0.0002
      6 C           8.7224   -7.5454   24.5998 C.ar    1  UNL1       -0.0003
      7 C           7.9540   -6.5673   25.4382 C.ar    1  UNL1       -0.0044
      8 C           7.4441   -5.2952   24.8286 C.ar    1  UNL1       -0.0213
      9 C           6.6624   -4.1504   25.4017 C.3     1  UNL1        0.0461
     10 C           6.4377   -3.1489   24.3079 C.3     1  UNL1        0.1066
     11 N           5.6997   -1.8497   24.4400 N.3     1  UNL1       -0.2703
     12 C           6.2106   -0.4999   24.0312 C.3     1  UNL1        0.0722
     13 C           5.1479    0.5119   24.3426 C.3     1  UNL1        0.0188
     14 C           3.9801   -0.2126   24.9439 C.3     1  UNL1        0.0188
     15 C           4.3212   -1.6721   25.0041 C.3     1  UNL1        0.0722
     16 C           3.6935   -2.1070   19.8867 C.ar    1  UNL1        0.0713
     17 C           3.5343   -3.3007   18.9926 C.ar    1  UNL1        0.0179
     18 C           4.5632   -4.3922   19.0084 C.ar    1  UNL1        0.0046
     19 C           5.7512   -4.2897   19.9183 C.ar    1  UNL1        0.0370
     20 C           5.9104   -3.0959   20.8126 C.ar    1  UNL1        0.1404
     21 C           4.8815   -2.0045   20.7967 C.ar    1  UNL1        0.0545
     22 C           0.7302    1.9788   18.3356 C.3     1  UNL1        0.1352
     23 N           1.3025    0.8624   19.1579 N.ar    1  UNL1       -0.2762
     24 C           0.8598    0.4652   20.5350 C.ar    1  UNL1        0.0989
     25 C           1.7017   -0.6955   20.9756 C.ar    1  UNL1        0.1031
     26 N           2.6645   -1.0156   19.8709 N.ar    1  UNL1       -0.2573
     27 C           2.4178   -0.0528   18.7474 C.ar    1  UNL1        0.3356
     28 O           3.1566   -0.0122   17.4427 O.2     1  UNL1       -0.2459
@<TRIPOS>BOND
     1    22    23    1
     2    23    24   ar
     3    24    25   ar
     4    25    26   ar
     5    26    16    1
     6    16    17   ar
     7    17    18   ar
     8    18    19   ar
     9    19    20   ar
    10    20     1    1
    11     2     1    1
    12     2     3    1
    13     3     4   ar
    14     4     5   ar
    15     5     6   ar
    16     6     7   ar
    17     7     8   ar
    18     8     9    1
    19     9    10    1
    20    10    11    1
    21    11    12    1
    22    12    13    1
    23    13    14    1
    24    14    15    1
    25    20    21   ar
    26    26    27   ar
    27    27    28    2
    28    27    23   ar
    29    21    16   ar
    30    10     2    1
    31    15    11    1
    32     8     3   ar
