@<TRIPOS>MOLECULE
*****
 39 43 0 0 0
SMALL
GASTEIGER

@<TRIPOS>ATOM
      1 C           4.3352   -1.6005   24.2001 C.3     1  UNL1        0.1522
      2 C           3.5268   -1.3823   22.9555 C.3     1  UNL1        0.0313
      3 C           4.0897   -2.2604   21.8774 C.3     1  UNL1        0.0264
      4 C           5.2459   -3.0212   22.4557 C.3     1  UNL1        0.0942
      5 N           5.3976   -2.6133   23.8912 N.am    1  UNL1       -0.2713
      6 C           6.4303   -3.1279   24.8496 C.2     1  UNL1        0.2509
      7 O           6.4593   -2.6248   26.2625 O.2     1  UNL1       -0.2727
      8 O           4.4784    0.5219   25.6918 O.2     1  UNL1       -0.2730
      9 C           4.1190   -0.9244   25.5216 C.2     1  UNL1        0.2442
     10 N           3.5433   -1.6947   26.6728 N.am    1  UNL1       -0.2826
     11 H           3.3074   -2.6439   26.5611 H       1  UNL1        0.1549
     12 C           3.3271   -1.0186   27.9943 C.ar    1  UNL1        0.0505
     13 C           1.9444   -0.6157   28.4132 C.ar    1  UNL1        0.0178
     14 C           1.7282    0.0604   29.7347 C.ar    1  UNL1        0.0388
     15 C           2.8948    0.3334   30.6371 C.ar    1  UNL1        0.1454
     16 C           4.2776   -0.0696   30.2182 C.ar    1  UNL1        0.0388
     17 C           4.4937   -0.7456   28.8968 C.ar    1  UNL1        0.0178
     18 O           2.6786    1.0095   31.9586 O.3     1  UNL1       -0.4535
     19 C           3.4881    0.5984   33.1527 C.ar    1  UNL1        0.1454
     20 C           3.8951    1.6217   34.1712 C.ar    1  UNL1        0.0398
     21 C           4.7046    1.2106   35.3653 C.ar    1  UNL1        0.0328
     22 C           5.1070   -0.2237   35.5408 C.ar    1  UNL1        0.1403
     23 F           5.9165   -0.6347   36.7349 F       1  UNL1       -0.2042
     24 C           4.7000   -1.2469   34.5224 C.ar    1  UNL1        0.0328
     25 C           3.8905   -0.8359   33.3283 C.ar    1  UNL1        0.0398
     26 C           3.5850   -2.3601   20.4684 C.3     1  UNL1        0.0281
     27 C           2.8376   -1.2125   19.8564 C.ar    1  UNL1       -0.0220
     28 C           1.4331   -0.9153   20.2910 C.ar    1  UNL1       -0.0020
     29 C           0.6857    0.2323   19.6790 C.ar    1  UNL1        0.0293
     30 C           1.3429    1.0826   18.6325 C.ar    1  UNL1        0.1401
     31 F           0.5955    2.2301   18.0205 F       1  UNL1       -0.2042
     32 C           2.7475    0.7852   18.1979 C.ar    1  UNL1        0.0293
     33 C           3.4948   -0.3623   18.8099 C.ar    1  UNL1       -0.0020
     34 C           7.4343   -4.1456   24.3952 C.3     1  UNL1        0.2138
     35 N           7.4289   -5.5224   24.9907 N.ar    1  UNL1       -0.2206
     36 C           8.0373   -6.7497   24.3796 C.ar    1  UNL1        0.1977
     37 N           7.7985   -7.8993   25.3130 N.ar    1  UNL1       -0.2007
     38 C           7.0425   -7.3825   26.5009 C.ar    1  UNL1        0.2210
     39 N           6.8140   -5.9135   26.3018 N.ar    1  UNL1       -0.1447
@<TRIPOS>BOND
     1     8     9    2
     2     9    10   am
     3    10    12    1
     4    12    13   ar
     5    13    14   ar
     6    14    15   ar
     7    15    18    1
     8    18    19    1
     9    19    20   ar
    10    20    21   ar
    11    21    22   ar
    12    22    23    1
    13    22    24   ar
    14    24    25   ar
    15    15    16   ar
    16    16    17   ar
    17     1     9    1
    18     1     2    1
    19     2     3    1
    20     3    26    1
    21    26    27    1
    22    27    28   ar
    23    28    29   ar
    24    29    30   ar
    25    30    31    1
    26    30    32   ar
    27    32    33   ar
    28     3     4    1
    29     4     5    1
    30     5     6   am
    31     6     7    2
    32     6    34    1
    33    34    35    1
    34    35    36   ar
    35    36    37   ar
    36    37    38   ar
    37    38    39   ar
    38    17    12   ar
    39     5     1    1
    40    39    35   ar
    41    25    19   ar
    42    33    27   ar
    43    10    11    1
@<TRIPOS>MOLECULE
*****
 39 43 0 0 0
SMALL
GASTEIGER

@<TRIPOS>ATOM
      1 C           4.2002   -0.2427   33.2964 C.3     1  UNL1        0.1522
      2 C           4.5611    0.3157   34.6410 C.3     1  UNL1        0.0313
      3 C           3.8258    1.6112   34.8174 C.3     1  UNL1        0.0264
      4 C           3.0104    1.8533   33.5818 C.3     1  UNL1        0.0942
      5 N           3.2418    0.7075   32.6418 N.am    1  UNL1       -0.2713
      6 C           2.6235    0.5411   31.2854 C.2     1  UNL1        0.2509
      7 O           2.9511   -0.6639   30.4545 O.2     1  UNL1       -0.2727
      8 O           4.0827   -2.8311   33.1043 O.2     1  UNL1       -0.2730
      9 C           4.7085   -1.5262   32.7095 C.2     1  UNL1        0.2442
     10 N           5.8424   -1.5048   31.7279 N.am    1  UNL1       -0.2826
     11 H           6.2531   -0.6484   31.4688 H       1  UNL1        0.1549
     12 C           6.3507   -2.7883   31.1410 C.ar    1  UNL1        0.0505
     13 C           6.4963   -2.9276   29.6546 C.ar    1  UNL1        0.0178
     14 C           7.0045   -4.2110   29.0678 C.ar    1  UNL1        0.0388
     15 C           7.3672   -5.3552   29.9674 C.ar    1  UNL1        0.1454
     16 C           7.2217   -5.2160   31.4538 C.ar    1  UNL1        0.0388
     17 C           6.7134   -3.9326   32.0406 C.ar    1  UNL1        0.0178
     18 O           7.8755   -6.6387   29.3805 O.3     1  UNL1       -0.4535
     19 C           8.1190   -6.7437   27.9041 C.ar    1  UNL1        0.1454
     20 C           9.2913   -6.0415   27.2855 C.ar    1  UNL1        0.0398
     21 C           9.5348   -6.1466   25.8091 C.ar    1  UNL1        0.0328
     22 C           8.6060   -6.9538   24.9514 C.ar    1  UNL1        0.1403
     23 F           8.8496   -7.0588   23.4750 F       1  UNL1       -0.2042
     24 C           7.4337   -7.6560   25.5700 C.ar    1  UNL1        0.0328
     25 C           7.1902   -7.5510   27.0463 C.ar    1  UNL1        0.0398
     26 C           3.8939    2.5072   36.0184 C.3     1  UNL1        0.0281
     27 C           3.0057    2.2478   37.1991 C.ar    1  UNL1       -0.0220
     28 C           1.9081    3.2123   37.5381 C.ar    1  UNL1       -0.0020
     29 C           1.0199    2.9529   38.7187 C.ar    1  UNL1        0.0293
     30 C           1.2293    1.7289   39.5602 C.ar    1  UNL1        0.1401
     31 F           0.3411    1.4695   40.7408 F       1  UNL1       -0.2042
     32 C           2.3270    0.7644   39.2211 C.ar    1  UNL1        0.0293
     33 C           3.2151    1.0238   38.0405 C.ar    1  UNL1       -0.0020
     34 C           1.6774    1.5799   30.7599 C.3     1  UNL1        0.2138
     35 N           0.6769    1.2170   29.7029 N.ar    1  UNL1       -0.2206
     36 C           0.7424    1.6066   28.2559 C.ar    1  UNL1        0.1977
     37 N          -0.4590    1.0312   27.5661 N.ar    1  UNL1       -0.2007
     38 C          -1.2669    0.2860   28.5869 C.ar    1  UNL1        0.2210
     39 N          -0.5649    0.4009   29.9075 N.ar    1  UNL1       -0.1447
@<TRIPOS>BOND
     1     8     9    2
     2     9    10   am
     3    10    12    1
     4    12    13   ar
     5    13    14   ar
     6    14    15   ar
     7    15    18    1
     8    18    19    1
     9    19    20   ar
    10    20    21   ar
    11    21    22   ar
    12    22    23    1
    13    22    24   ar
    14    24    25   ar
    15    15    16   ar
    16    16    17   ar
    17     1     9    1
    18     1     2    1
    19     2     3    1
    20     3    26    1
    21    26    27    1
    22    27    28   ar
    23    28    29   ar
    24    29    30   ar
    25    30    31    1
    26    30    32   ar
    27    32    33   ar
    28     3     4    1
    29     4     5    1
    30     5     6   am
    31     6     7    2
    32     6    34    1
    33    34    35    1
    34    35    36   ar
    35    36    37   ar
    36    37    38   ar
    37    38    39   ar
    38    17    12   ar
    39     5     1    1
    40    39    35   ar
    41    25    19   ar
    42    33    27   ar
    43    10    11    1
@<TRIPOS>MOLECULE
*****
 39 43 0 0 0
SMALL
GASTEIGER

@<TRIPOS>ATOM
      1 C           2.1411    1.6681   32.4190 C.3     1  UNL1        0.1522
      2 C           2.1941    2.5985   33.5944 C.3     1  UNL1        0.0313
      3 C           3.1819    2.0458   34.5788 C.3     1  UNL1        0.0264
      4 C           3.7393    0.7739   34.0117 C.3     1  UNL1        0.0942
      5 N           3.0960    0.5405   32.6769 N.am    1  UNL1       -0.2713
      6 C           3.3611   -0.6173   31.7608 C.2     1  UNL1        0.2509
      7 O           2.6383   -0.7176   30.4503 O.2     1  UNL1       -0.2727
      8 O          -0.2056    1.6891   31.3042 O.2     1  UNL1       -0.2730
      9 C           1.2836    1.8359   31.1998 C.2     1  UNL1        0.2442
     10 N           1.9152    2.1505   29.8761 N.am    1  UNL1       -0.2826
     11 H           2.8926    2.2469   29.8076 H       1  UNL1        0.1549
     12 C           1.0576    2.3184   28.6569 C.ar    1  UNL1        0.0505
     13 C           0.3846    1.1265   28.0434 C.ar    1  UNL1        0.0178
     14 C          -0.4728    1.2944   26.8242 C.ar    1  UNL1        0.0388
     15 C          -0.6573    2.6541   26.2185 C.ar    1  UNL1        0.1454
     16 C           0.0157    3.8461   26.8319 C.ar    1  UNL1        0.0388
     17 C           0.8732    3.6782   28.0511 C.ar    1  UNL1        0.0178
     18 O          -1.5148    2.8220   24.9992 O.3     1  UNL1       -0.4535
     19 C          -2.8848    3.4202   25.1224 C.ar    1  UNL1        0.1454
     20 C          -3.3812    3.8891   26.4579 C.ar    1  UNL1        0.0398
     21 C          -4.7512    4.4873   26.5811 C.ar    1  UNL1        0.0328
     22 C          -5.6249    4.6166   25.3687 C.ar    1  UNL1        0.1403
     23 F          -6.9949    5.2148   25.4918 F       1  UNL1       -0.2042
     24 C          -5.1285    4.1477   24.0331 C.ar    1  UNL1        0.0328
     25 C          -3.7585    3.5495   23.9099 C.ar    1  UNL1        0.0398
     26 C           3.5480    2.6576   35.8985 C.3     1  UNL1        0.0281
     27 C           2.7726    2.3002   37.1318 C.ar    1  UNL1       -0.0220
     28 C           3.0270    0.9948   37.8255 C.ar    1  UNL1       -0.0020
     29 C           2.2516    0.6373   39.0588 C.ar    1  UNL1        0.0293
     30 C           1.2219    1.5852   39.5983 C.ar    1  UNL1        0.1401
     31 F           0.4465    1.2277   40.8316 F       1  UNL1       -0.2042
     32 C           0.9675    2.8906   38.9046 C.ar    1  UNL1        0.0293
     33 C           1.7428    3.2481   37.6713 C.ar    1  UNL1       -0.0020
     34 C           4.3492   -1.6748   32.1552 C.3     1  UNL1        0.2138
     35 N           5.6363   -1.8185   31.3984 N.ar    1  UNL1       -0.2206
     36 C           6.9799   -2.1199   31.9932 C.ar    1  UNL1        0.1977
     37 N           7.9797   -2.1736   30.8763 N.ar    1  UNL1       -0.2007
     38 C           7.2540   -1.9054   29.5912 C.ar    1  UNL1        0.2210
     39 N           5.8057   -1.6860   29.9139 N.ar    1  UNL1       -0.1447
@<TRIPOS>BOND
     1     8     9    2
     2     9    10   am
     3    10    12    1
     4    12    13   ar
     5    13    14   ar
     6    14    15   ar
     7    15    18    1
     8    18    19    1
     9    19    20   ar
    10    20    21   ar
    11    21    22   ar
    12    22    23    1
    13    22    24   ar
    14    24    25   ar
    15    15    16   ar
    16    16    17   ar
    17     1     9    1
    18     1     2    1
    19     2     3    1
    20     3    26    1
    21    26    27    1
    22    27    28   ar
    23    28    29   ar
    24    29    30   ar
    25    30    31    1
    26    30    32   ar
    27    32    33   ar
    28     3     4    1
    29     4     5    1
    30     5     6   am
    31     6     7    2
    32     6    34    1
    33    34    35    1
    34    35    36   ar
    35    36    37   ar
    36    37    38   ar
    37    38    39   ar
    38    17    12   ar
    39     5     1    1
    40    39    35   ar
    41    25    19   ar
    42    33    27   ar
    43    10    11    1
@<TRIPOS>MOLECULE
*****
 39 43 0 0 0
SMALL
GASTEIGER

@<TRIPOS>ATOM
      1 C           4.3185   -1.6001   24.2277 C.3     1  UNL1        0.1522
      2 C           3.5203   -1.4018   22.9733 C.3     1  UNL1        0.0313
      3 C           4.1174   -2.2660   21.9025 C.3     1  UNL1        0.0264
      4 C           5.2847   -2.9984   22.4952 C.3     1  UNL1        0.0942
      5 N           5.4089   -2.5868   23.9323 N.am    1  UNL1       -0.2713
      6 C           6.4421   -3.0760   24.9034 C.2     1  UNL1        0.2509
      7 O           6.4416   -2.5721   26.3162 O.2     1  UNL1       -0.2727
      8 O           4.3475    0.5361   25.7063 O.2     1  UNL1       -0.2730
      9 C           4.0698   -0.9293   25.5462 C.2     1  UNL1        0.2442
     10 N           3.5435   -1.7239   26.7045 N.am    1  UNL1       -0.2826
     11 H           3.3613   -2.6856   26.5994 H       1  UNL1        0.1549
     12 C           3.2949   -1.0531   28.0230 C.ar    1  UNL1        0.0505
     13 C           4.4395   -0.7796   28.9530 C.ar    1  UNL1        0.0178
     14 C           4.1908   -0.1089   30.2714 C.ar    1  UNL1        0.0388
     15 C           2.7975    0.2884   30.6597 C.ar    1  UNL1        0.1454
     16 C           1.6529    0.0150   29.7297 C.ar    1  UNL1        0.0388
     17 C           1.9016   -0.6558   28.4113 C.ar    1  UNL1        0.0178
     18 O           2.5488    0.9592   31.9782 O.3     1  UNL1       -0.4535
     19 C           1.9087    2.3150   32.0210 C.ar    1  UNL1        0.1454
     20 C           1.6008    2.9578   33.3409 C.ar    1  UNL1        0.0398
     21 C           0.9607    4.3137   33.3836 C.ar    1  UNL1        0.0328
     22 C           0.6285    5.0268   32.1065 C.ar    1  UNL1        0.1403
     23 F          -0.0116    6.3827   32.1492 F       1  UNL1       -0.2042
     24 C           0.9364    4.3841   30.7866 C.ar    1  UNL1        0.0328
     25 C           1.5765    3.0282   30.7438 C.ar    1  UNL1        0.0398
     26 C           3.6325   -2.3782   20.4875 C.3     1  UNL1        0.0281
     27 C           2.8897   -1.2379   19.8566 C.ar    1  UNL1       -0.0220
     28 C           1.4853   -0.9298   20.2842 C.ar    1  UNL1       -0.0020
     29 C           0.7424    0.2105   19.6533 C.ar    1  UNL1        0.0293
     30 C           1.4040    1.0425   18.5949 C.ar    1  UNL1        0.1401
     31 F           0.6611    2.1828   17.9640 F       1  UNL1       -0.2042
     32 C           2.8084    0.7343   18.1674 C.ar    1  UNL1        0.0293
     33 C           3.5512   -0.4059   18.7983 C.ar    1  UNL1       -0.0020
     34 C           7.4760   -4.0690   24.4617 C.3     1  UNL1        0.2138
     35 N           7.4534   -5.4671   25.0047 N.ar    1  UNL1       -0.2206
     36 C           8.0203   -6.6829   24.3336 C.ar    1  UNL1        0.1977
     37 N           7.7772   -7.8620   25.2284 N.ar    1  UNL1       -0.2007
     38 C           7.0601   -7.3748   26.4525 C.ar    1  UNL1        0.2210
     39 N           6.8599   -5.8947   26.3143 N.ar    1  UNL1       -0.1447
@<TRIPOS>BOND
     1     8     9    2
     2     9    10   am
     3    10    12    1
     4    12    13   ar
     5    13    14   ar
     6    14    15   ar
     7    15    18    1
     8    18    19    1
     9    19    20   ar
    10    20    21   ar
    11    21    22   ar
    12    22    23    1
    13    22    24   ar
    14    24    25   ar
    15    15    16   ar
    16    16    17   ar
    17     1     9    1
    18     1     2    1
    19     2     3    1
    20     3    26    1
    21    26    27    1
    22    27    28   ar
    23    28    29   ar
    24    29    30   ar
    25    30    31    1
    26    30    32   ar
    27    32    33   ar
    28     3     4    1
    29     4     5    1
    30     5     6   am
    31     6     7    2
    32     6    34    1
    33    34    35    1
    34    35    36   ar
    35    36    37   ar
    36    37    38   ar
    37    38    39   ar
    38    17    12   ar
    39     5     1    1
    40    39    35   ar
    41    25    19   ar
    42    33    27   ar
    43    10    11    1
@<TRIPOS>MOLECULE
*****
 39 43 0 0 0
SMALL
GASTEIGER

@<TRIPOS>ATOM
      1 C          -1.3772    3.7014   23.1012 C.3     1  UNL1        0.1522
      2 C          -2.2836    4.7862   22.5995 C.3     1  UNL1        0.0313
      3 C          -3.1563    5.2245   23.7381 C.3     1  UNL1        0.0264
      4 C          -2.7892    4.4105   24.9435 C.3     1  UNL1        0.0942
      5 N          -1.6896    3.4693   24.5498 N.am    1  UNL1       -0.2713
      6 C          -1.0201    2.4711   25.4471 C.2     1  UNL1        0.2509
      7 O           0.0704    1.5924   24.9098 O.2     1  UNL1       -0.2727
      8 O           1.1167    3.2315   22.5445 O.2     1  UNL1       -0.2730
      9 C          -0.3403    2.9762   22.2956 C.2     1  UNL1        0.2442
     10 N          -0.7604    1.9956   21.2412 N.am    1  UNL1       -0.2826
     11 H          -1.7167    1.8280   21.0778 H       1  UNL1        0.1549
     12 C           0.2765    1.2703   20.4356 C.ar    1  UNL1        0.0505
     13 C           0.9213    1.9452   19.2614 C.ar    1  UNL1        0.0178
     14 C           1.9582    1.2200   18.4559 C.ar    1  UNL1        0.0388
     15 C           2.3501   -0.1802   18.8245 C.ar    1  UNL1        0.1454
     16 C           1.7052   -0.8552   19.9986 C.ar    1  UNL1        0.0388
     17 C           0.6684   -0.1299   20.8041 C.ar    1  UNL1        0.0178
     18 O           3.3870   -0.9055   18.0189 O.3     1  UNL1       -0.4535
     19 C           4.3604   -1.8213   18.6998 C.ar    1  UNL1        0.1454
     20 C           5.5991   -1.2616   19.3340 C.ar    1  UNL1        0.0398
     21 C           6.5726   -2.1775   20.0150 C.ar    1  UNL1        0.0328
     22 C           6.3073   -3.6531   20.0616 C.ar    1  UNL1        0.1403
     23 F           7.2807   -4.5689   20.7425 F       1  UNL1       -0.2042
     24 C           5.0686   -4.2128   19.4273 C.ar    1  UNL1        0.0328
     25 C           4.0952   -3.2970   18.7464 C.ar    1  UNL1        0.0398
     26 C          -4.2109    6.2897   23.6814 C.3     1  UNL1        0.0281
     27 C          -5.6493    5.9342   23.9155 C.ar    1  UNL1       -0.0220
     28 C          -6.2721    4.7951   23.1641 C.ar    1  UNL1       -0.0020
     29 C          -7.7105    4.4397   23.3982 C.ar    1  UNL1        0.0293
     30 C          -8.5259    5.2233   24.3836 C.ar    1  UNL1        0.1401
     31 F          -9.9643    4.8679   24.6176 F       1  UNL1       -0.2042
     32 C          -7.9030    6.3625   25.1349 C.ar    1  UNL1        0.0293
     33 C          -6.4647    6.7179   24.9008 C.ar    1  UNL1       -0.0020
     34 C          -1.4410    2.3514   26.8819 C.3     1  UNL1        0.2138
     35 N          -0.6615    1.4808   27.8222 N.ar    1  UNL1       -0.2206
     36 C          -1.1718    0.2511   28.5132 C.ar    1  UNL1        0.1977
     37 N          -0.0604   -0.3027   29.3547 N.ar    1  UNL1       -0.2007
     38 C           1.1367    0.5848   29.1838 C.ar    1  UNL1        0.2210
     39 N           0.7653    1.6870   28.2367 N.ar    1  UNL1       -0.1447
@<TRIPOS>BOND
     1     8     9    2
     2     9    10   am
     3    10    12    1
     4    12    13   ar
     5    13    14   ar
     6    14    15   ar
     7    15    18    1
     8    18    19    1
     9    19    20   ar
    10    20    21   ar
    11    21    22   ar
    12    22    23    1
    13    22    24   ar
    14    24    25   ar
    15    15    16   ar
    16    16    17   ar
    17     1     9    1
    18     1     2    1
    19     2     3    1
    20     3    26    1
    21    26    27    1
    22    27    28   ar
    23    28    29   ar
    24    29    30   ar
    25    30    31    1
    26    30    32   ar
    27    32    33   ar
    28     3     4    1
    29     4     5    1
    30     5     6   am
    31     6     7    2
    32     6    34    1
    33    34    35    1
    34    35    36   ar
    35    36    37   ar
    36    37    38   ar
    37    38    39   ar
    38    17    12   ar
    39     5     1    1
    40    39    35   ar
    41    25    19   ar
    42    33    27   ar
    43    10    11    1
@<TRIPOS>MOLECULE
*****
 39 43 0 0 0
SMALL
GASTEIGER

@<TRIPOS>ATOM
      1 C           4.7077   -2.1707   24.0578 C.3     1  UNL1        0.1522
      2 C           3.9661   -1.9285   22.7767 C.3     1  UNL1        0.0313
      3 C           4.4195   -2.9519   21.7781 C.3     1  UNL1        0.0264
      4 C           5.4413   -3.8266   22.4421 C.3     1  UNL1        0.0942
      5 N           5.6194   -3.3438   23.8511 N.am    1  UNL1       -0.2713
      6 C           6.5464   -3.9309   24.8737 C.2     1  UNL1        0.2509
      7 O           6.6174   -3.3382   26.2498 O.2     1  UNL1       -0.2727
      8 O           4.9852    0.0600   25.3604 O.2     1  UNL1       -0.2730
      9 C           4.5630   -1.3789   25.3236 C.2     1  UNL1        0.2442
     10 N           3.9962   -2.0259   26.5524 N.am    1  UNL1       -0.2826
     11 H           3.7191   -2.9703   26.5282 H       1  UNL1        0.1549
     12 C           3.8515   -1.2340   27.8181 C.ar    1  UNL1        0.0505
     13 C           5.0532   -0.9602   28.6731 C.ar    1  UNL1        0.0178
     14 C           4.9084   -0.1683   29.9387 C.ar    1  UNL1        0.0388
     15 C           3.5620    0.3497   30.3495 C.ar    1  UNL1        0.1454
     16 C           2.3603    0.0759   29.4946 C.ar    1  UNL1        0.0388
     17 C           2.5050   -0.7159   28.2289 C.ar    1  UNL1        0.0178
     18 O           3.4172    1.1416   31.6152 O.3     1  UNL1       -0.4535
     19 C           4.1016    0.6835   32.8689 C.ar    1  UNL1        0.1454
     20 C           4.9512    1.6400   33.6520 C.ar    1  UNL1        0.0398
     21 C           5.6355    1.1817   34.9058 C.ar    1  UNL1        0.0328
     22 C           5.4702   -0.2329   35.3764 C.ar    1  UNL1        0.1403
     23 F           6.1545   -0.6910   36.6300 F       1  UNL1       -0.2042
     24 C           4.6206   -1.1893   34.5932 C.ar    1  UNL1        0.0328
     25 C           3.9363   -0.7312   33.3396 C.ar    1  UNL1        0.0398
     26 C           3.9359   -3.0784   20.3638 C.3     1  UNL1        0.0281
     27 C           4.4345   -2.1310   19.3131 C.ar    1  UNL1       -0.0220
     28 C           3.4991   -1.1317   18.6997 C.ar    1  UNL1       -0.0020
     29 C           3.9977   -0.1843   17.6490 C.ar    1  UNL1        0.0293
     30 C           5.4316   -0.2363   17.2118 C.ar    1  UNL1        0.1401
     31 F           5.9302    0.7111   16.1612 F       1  UNL1       -0.2042
     32 C           6.3670   -1.2357   17.8253 C.ar    1  UNL1        0.0293
     33 C           5.8684   -2.1830   18.8759 C.ar    1  UNL1       -0.0020
     34 C           7.4026   -5.1108   24.5203 C.3     1  UNL1        0.2138
     35 N           7.8757   -6.0433   25.5958 N.ar    1  UNL1       -0.2206
     36 C           9.0989   -5.8618   26.4447 C.ar    1  UNL1        0.1977
     37 N           9.1878   -7.0274   27.3848 N.ar    1  UNL1       -0.2007
     38 C           8.0195   -7.9291   27.1167 C.ar    1  UNL1        0.2210
     39 N           7.2086   -7.3209   26.0111 N.ar    1  UNL1       -0.1447
@<TRIPOS>BOND
     1     8     9    2
     2     9    10   am
     3    10    12    1
     4    12    13   ar
     5    13    14   ar
     6    14    15   ar
     7    15    18    1
     8    18    19    1
     9    19    20   ar
    10    20    21   ar
    11    21    22   ar
    12    22    23    1
    13    22    24   ar
    14    24    25   ar
    15    15    16   ar
    16    16    17   ar
    17     1     9    1
    18     1     2    1
    19     2     3    1
    20     3    26    1
    21    26    27    1
    22    27    28   ar
    23    28    29   ar
    24    29    30   ar
    25    30    31    1
    26    30    32   ar
    27    32    33   ar
    28     3     4    1
    29     4     5    1
    30     5     6   am
    31     6     7    2
    32     6    34    1
    33    34    35    1
    34    35    36   ar
    35    36    37   ar
    36    37    38   ar
    37    38    39   ar
    38    17    12   ar
    39     5     1    1
    40    39    35   ar
    41    25    19   ar
    42    33    27   ar
    43    10    11    1
@<TRIPOS>MOLECULE
*****
 39 43 0 0 0
SMALL
GASTEIGER

@<TRIPOS>ATOM
      1 C           5.7126   -1.6580   29.8040 C.3     1  UNL1        0.1522
      2 C           6.7856   -1.6211   30.8515 C.3     1  UNL1        0.0313
      3 C           6.2722   -0.8227   32.0130 C.3     1  UNL1        0.0264
      4 C           4.8818   -0.3662   31.6832 C.3     1  UNL1        0.0942
      5 N           4.5361   -0.8825   30.3180 N.am    1  UNL1       -0.2713
      6 C           3.2411   -0.6620   29.5938 C.2     1  UNL1        0.2509
      7 O           3.0383   -1.2431   28.2259 O.2     1  UNL1       -0.2727
      8 O           5.9086   -3.8441   28.4137 O.2     1  UNL1       -0.2730
      9 C           5.8008   -2.3492   28.4756 C.2     1  UNL1        0.2442
     10 N           5.7812   -1.5456   27.2092 N.am    1  UNL1       -0.2826
     11 H           5.7105   -0.5645   27.2499 H       1  UNL1        0.1549
     12 C           5.8694   -2.2368   25.8808 C.ar    1  UNL1        0.0505
     13 C           4.7705   -2.0692   24.8737 C.ar    1  UNL1        0.0178
     14 C           4.8587   -2.7603   23.5454 C.ar    1  UNL1        0.0388
     15 C           6.0458   -3.6192   23.2242 C.ar    1  UNL1        0.1454
     16 C           7.1447   -3.7869   24.2313 C.ar    1  UNL1        0.0388
     17 C           7.0565   -3.0957   25.5596 C.ar    1  UNL1        0.0178
     18 O           6.1340   -4.3104   21.8958 O.3     1  UNL1       -0.4535
     19 C           5.6288   -3.6271   20.6598 C.ar    1  UNL1        0.1454
     20 C           6.5035   -2.6494   19.9326 C.ar    1  UNL1        0.0398
     21 C           5.9982   -1.9660   18.6965 C.ar    1  UNL1        0.0328
     22 C           4.6182   -2.2604   18.1877 C.ar    1  UNL1        0.1403
     23 F           4.1130   -1.5771   16.9517 F       1  UNL1       -0.2042
     24 C           3.7435   -3.2381   18.9150 C.ar    1  UNL1        0.0328
     25 C           4.2487   -3.9215   20.1510 C.ar    1  UNL1        0.0398
     26 C           7.0180   -0.5318   33.2815 C.3     1  UNL1        0.0281
     27 C           6.3214    0.1497   34.4217 C.ar    1  UNL1       -0.0220
     28 C           6.4522    1.6332   34.6015 C.ar    1  UNL1       -0.0020
     29 C           5.7555    2.3147   35.7418 C.ar    1  UNL1        0.0293
     30 C           4.9281    1.5128   36.7022 C.ar    1  UNL1        0.1401
     31 F           4.2314    2.1943   37.8424 F       1  UNL1       -0.2042
     32 C           4.7973    0.0293   36.5223 C.ar    1  UNL1        0.0293
     33 C           5.4939   -0.6522   35.3821 C.ar    1  UNL1       -0.0020
     34 C           2.1489    0.1397   30.2375 C.3     1  UNL1        0.2138
     35 N           0.9032    0.4644   29.4675 N.ar    1  UNL1       -0.2206
     36 C           0.7474    1.5735   28.4698 C.ar    1  UNL1        0.1977
     37 N          -0.6575    1.5315   27.9457 N.ar    1  UNL1       -0.2007
     38 C          -1.3698    0.3965   28.6196 C.ar    1  UNL1        0.2210
     39 N          -0.4053   -0.2631   29.5601 N.ar    1  UNL1       -0.1447
@<TRIPOS>BOND
     1     8     9    2
     2     9    10   am
     3    10    12    1
     4    12    13   ar
     5    13    14   ar
     6    14    15   ar
     7    15    18    1
     8    18    19    1
     9    19    20   ar
    10    20    21   ar
    11    21    22   ar
    12    22    23    1
    13    22    24   ar
    14    24    25   ar
    15    15    16   ar
    16    16    17   ar
    17     1     9    1
    18     1     2    1
    19     2     3    1
    20     3    26    1
    21    26    27    1
    22    27    28   ar
    23    28    29   ar
    24    29    30   ar
    25    30    31    1
    26    30    32   ar
    27    32    33   ar
    28     3     4    1
    29     4     5    1
    30     5     6   am
    31     6     7    2
    32     6    34    1
    33    34    35    1
    34    35    36   ar
    35    36    37   ar
    36    37    38   ar
    37    38    39   ar
    38    17    12   ar
    39     5     1    1
    40    39    35   ar
    41    25    19   ar
    42    33    27   ar
    43    10    11    1
@<TRIPOS>MOLECULE
*****
 39 43 0 0 0
SMALL
GASTEIGER

@<TRIPOS>ATOM
      1 C           4.3626   -0.6650   23.7338 C.3     1  UNL1        0.1522
      2 C           5.5115   -1.0706   24.6088 C.3     1  UNL1        0.0313
      3 C           6.2901   -2.1317   23.8891 C.3     1  UNL1        0.0264
      4 C           5.6224   -2.3818   22.5693 C.3     1  UNL1        0.0942
      5 N           4.4311   -1.4754   22.4734 N.am    1  UNL1       -0.2713
      6 C           3.4761   -1.3935   21.3197 C.2     1  UNL1        0.2509
      7 O           2.3243   -0.4337   21.3661 O.2     1  UNL1       -0.2727
      8 O           3.7358    1.7949   24.2869 O.2     1  UNL1       -0.2730
      9 C           3.3270    0.3694   24.0618 C.2     1  UNL1        0.2442
     10 N           1.8825   -0.0217   24.1646 N.am    1  UNL1       -0.2826
     11 H           1.6142   -0.9573   24.0168 H       1  UNL1        0.1549
     12 C           0.8469    1.0127   24.4926 C.ar    1  UNL1        0.0505
     13 C           0.4548    2.0334   23.4657 C.ar    1  UNL1        0.0178
     14 C          -0.5808    3.0677   23.7937 C.ar    1  UNL1        0.0388
     15 C          -1.2243    3.0815   25.1486 C.ar    1  UNL1        0.1454
     16 C          -0.8322    2.0608   26.1755 C.ar    1  UNL1        0.0388
     17 C           0.2034    1.0265   25.8475 C.ar    1  UNL1        0.0178
     18 O          -2.2599    4.1159   25.4765 O.3     1  UNL1       -0.4535
     19 C          -3.6010    4.0733   24.8061 C.ar    1  UNL1        0.1454
     20 C          -4.7946    4.6860   25.4770 C.ar    1  UNL1        0.0398
     21 C          -6.1358    4.6434   24.8065 C.ar    1  UNL1        0.0328
     22 C          -6.2834    3.9881   23.4653 C.ar    1  UNL1        0.1403
     23 F          -7.6245    3.9456   22.7949 F       1  UNL1       -0.2042
     24 C          -5.0898    3.3755   22.7945 C.ar    1  UNL1        0.0328
     25 C          -3.7487    3.4181   23.4649 C.ar    1  UNL1        0.0398
     26 C           7.5204   -2.8216   24.3995 C.3     1  UNL1        0.0281
     27 C           7.4346   -4.2311   24.9053 C.ar    1  UNL1       -0.0220
     28 C           8.0384   -5.3510   24.1108 C.ar    1  UNL1       -0.0020
     29 C           7.9526   -6.7606   24.6166 C.ar    1  UNL1        0.0293
     30 C           7.2631   -7.0502   25.9169 C.ar    1  UNL1        0.1401
     31 F           7.1774   -8.4597   26.4227 F       1  UNL1       -0.2042
     32 C           6.6594   -5.9302   26.7114 C.ar    1  UNL1        0.0293
     33 C           6.7451   -4.5207   26.2056 C.ar    1  UNL1       -0.0020
     34 C           3.6728   -2.2715   20.1195 C.3     1  UNL1        0.2138
     35 N           4.7134   -1.9223   19.0971 N.ar    1  UNL1       -0.2206
     36 C           5.6319   -2.8879   18.4087 C.ar    1  UNL1        0.1977
     37 N           6.5044   -2.1085   17.4698 N.ar    1  UNL1       -0.2007
     38 C           6.1250   -0.6614   17.5780 C.ar    1  UNL1        0.2210
     39 N           5.0181   -0.5463   18.5838 N.ar    1  UNL1       -0.1447
@<TRIPOS>BOND
     1     8     9    2
     2     9    10   am
     3    10    12    1
     4    12    13   ar
     5    13    14   ar
     6    14    15   ar
     7    15    18    1
     8    18    19    1
     9    19    20   ar
    10    20    21   ar
    11    21    22   ar
    12    22    23    1
    13    22    24   ar
    14    24    25   ar
    15    15    16   ar
    16    16    17   ar
    17     1     9    1
    18     1     2    1
    19     2     3    1
    20     3    26    1
    21    26    27    1
    22    27    28   ar
    23    28    29   ar
    24    29    30   ar
    25    30    31    1
    26    30    32   ar
    27    32    33   ar
    28     3     4    1
    29     4     5    1
    30     5     6   am
    31     6     7    2
    32     6    34    1
    33    34    35    1
    34    35    36   ar
    35    36    37   ar
    36    37    38   ar
    37    38    39   ar
    38    17    12   ar
    39     5     1    1
    40    39    35   ar
    41    25    19   ar
    42    33    27   ar
    43    10    11    1
@<TRIPOS>MOLECULE
*****
 39 43 0 0 0
SMALL
GASTEIGER

@<TRIPOS>ATOM
      1 C           1.1677    1.3452   23.7440 C.3     1  UNL1        0.1522
      2 C           1.4972    0.4646   22.5753 C.3     1  UNL1        0.0313
      3 C           0.6900    0.9322   21.4006 C.3     1  UNL1        0.0264
      4 C          -0.1384    2.1017   21.8435 C.3     1  UNL1        0.0942
      5 N           0.1568    2.3569   23.2918 N.am    1  UNL1       -0.2713
      6 C          -0.4518    3.4346   24.1392 C.2     1  UNL1        0.2509
      7 O          -0.0571    3.5685   25.5801 O.2     1  UNL1       -0.2727
      8 O           3.1827    1.5958   25.3649 O.2     1  UNL1       -0.2730
      9 C           1.7473    1.2335   25.1231 C.2     1  UNL1        0.2442
     10 N           0.8917    0.7594   26.2602 N.am    1  UNL1       -0.2826
     11 H          -0.0504    0.5216   26.1014 H       1  UNL1        0.1549
     12 C           1.4713    0.6478   27.6392 C.ar    1  UNL1        0.0505
     13 C           2.4287   -0.4607   27.9628 C.ar    1  UNL1        0.0178
     14 C           3.0083   -0.5723   29.3418 C.ar    1  UNL1        0.0388
     15 C           2.6305    0.4245   30.3971 C.ar    1  UNL1        0.1454
     16 C           1.6731    1.5329   30.0735 C.ar    1  UNL1        0.0388
     17 C           1.0935    1.6445   28.6945 C.ar    1  UNL1        0.0178
     18 O           3.2102    0.3128   31.7761 O.3     1  UNL1       -0.4535
     19 C           4.4280   -0.5306   32.0117 C.ar    1  UNL1        0.1454
     20 C           4.2822   -1.9291   32.5342 C.ar    1  UNL1        0.0398
     21 C           5.5001   -2.7724   32.7698 C.ar    1  UNL1        0.0328
     22 C           6.8637   -2.2174   32.4830 C.ar    1  UNL1        0.1403
     23 F           8.0816   -3.0607   32.7186 F       1  UNL1       -0.2042
     24 C           7.0095   -0.8189   31.9605 C.ar    1  UNL1        0.0328
     25 C           5.7917    0.0245   31.7249 C.ar    1  UNL1        0.0398
     26 C           0.7079    0.3351   20.0246 C.3     1  UNL1        0.0281
     27 C           1.9797   -0.2369   19.4718 C.ar    1  UNL1       -0.0220
     28 C           2.7162    0.4861   18.3833 C.ar    1  UNL1       -0.0020
     29 C           3.9879   -0.0860   17.8305 C.ar    1  UNL1        0.0293
     30 C           4.5230   -1.3808   18.3662 C.ar    1  UNL1        0.1401
     31 F           5.7947   -1.9528   17.8134 F       1  UNL1       -0.2042
     32 C           3.7864   -2.1037   19.4548 C.ar    1  UNL1        0.0293
     33 C           2.5148   -1.5317   20.0076 C.ar    1  UNL1       -0.0020
     34 C          -1.4553    4.3784   23.5456 C.3     1  UNL1        0.2138
     35 N          -2.8332    3.8923   23.2065 N.ar    1  UNL1       -0.2206
     36 C          -3.9094    3.5368   24.1890 C.ar    1  UNL1        0.1977
     37 N          -5.1182    3.1011   23.4150 N.ar    1  UNL1       -0.2007
     38 C          -4.7890    3.1874   21.9542 C.ar    1  UNL1        0.2210
     39 N          -3.3768    3.6764   21.8253 N.ar    1  UNL1       -0.1447
@<TRIPOS>BOND
     1     8     9    2
     2     9    10   am
     3    10    12    1
     4    12    13   ar
     5    13    14   ar
     6    14    15   ar
     7    15    18    1
     8    18    19    1
     9    19    20   ar
    10    20    21   ar
    11    21    22   ar
    12    22    23    1
    13    22    24   ar
    14    24    25   ar
    15    15    16   ar
    16    16    17   ar
    17     1     9    1
    18     1     2    1
    19     2     3    1
    20     3    26    1
    21    26    27    1
    22    27    28   ar
    23    28    29   ar
    24    29    30   ar
    25    30    31    1
    26    30    32   ar
    27    32    33   ar
    28     3     4    1
    29     4     5    1
    30     5     6   am
    31     6     7    2
    32     6    34    1
    33    34    35    1
    34    35    36   ar
    35    36    37   ar
    36    37    38   ar
    37    38    39   ar
    38    17    12   ar
    39     5     1    1
    40    39    35   ar
    41    25    19   ar
    42    33    27   ar
    43    10    11    1
