@<TRIPOS>MOLECULE
*****
 25 28 0 0 0
SMALL
GASTEIGER

@<TRIPOS>ATOM
      1 C          -5.8034  -18.3046   22.4879 C.ar    1  UNL1        0.0820
      2 C          -6.7491  -19.3445   21.9641 C.ar    1  UNL1        0.0772
      3 C          -6.3669  -20.5868   21.2153 C.3     1  UNL1        0.0537
      4 N          -8.1441  -18.9240   22.3205 N.ar    1  UNL1       -0.2282
      5 C          -8.0606  -17.6242   23.0647 C.ar    1  UNL1        0.1796
      6 C          -9.1149  -16.7397   23.6614 C.ar    1  UNL1        0.1667
      7 N          -8.7226  -15.4725   24.3616 N.ar    1  UNL1       -0.2245
      8 C          -7.2760  -15.0898   24.4650 C.ar    1  UNL1        0.1194
      9 C          -6.2217  -15.9742   23.8682 C.ar    1  UNL1        0.1023
     10 N          -6.6140  -17.2414   23.1681 N.ar    1  UNL1       -0.2854
     11 N         -10.5616  -17.1225   23.5580 N.pl3   1  UNL1       -0.2857
     12 C         -11.4737  -16.3659   22.6385 C.3     1  UNL1        0.1243
     13 C         -12.9204  -16.7487   22.5351 C.3     1  UNL1        0.1636
     14 O         -13.4549  -17.8882   23.3511 O.3     1  UNL1       -0.3501
     15 C         -12.5427  -18.6449   24.2706 C.3     1  UNL1        0.1636
     16 C         -11.0961  -18.2620   24.3740 C.3     1  UNL1        0.1243
     17 N          -2.0765  -18.6009   21.4447 N.ar    1  UNL1       -0.2468
     18 C          -3.5382  -18.7340   21.1352 C.ar    1  UNL1        0.0982
     19 C          -4.3095  -18.3244   22.3549 C.ar    1  UNL1        0.0569
     20 C          -3.3244  -17.9381   23.4181 C.ar    1  UNL1        0.1231
     21 N          -1.9444  -18.1090   22.8555 N.ar    1  UNL1       -0.1675
     22 C          -0.9456  -18.9060   20.5078 C.3     1  UNL1        0.1594
     23 C          -0.5990  -17.9426   19.4117 C.3     1  UNL1        0.1685
     24 C          -2.6631  -17.1007   18.0772 C.3     1  UNL1        0.1742
     25 O          -1.4087  -17.9200   18.1491 O.3     1  UNL1       -0.3490
@<TRIPOS>BOND
     1    24    25    1
     2    25    23    1
     3    23    22    1
     4    22    17    1
     5    17    18   ar
     6    18    19   ar
     7    19     1    1
     8     1     2   ar
     9     2     3    1
    10     2     4   ar
    11     4     5   ar
    12     5     6   ar
    13     6    11    1
    14    11    12    1
    15    12    13    1
    16    13    14    1
    17    14    15    1
    18    15    16    1
    19     6     7   ar
    20     7     8   ar
    21     8     9   ar
    22     9    10   ar
    23    19    20   ar
    24    20    21   ar
    25    21    17   ar
    26    10     1   ar
    27    10     5   ar
    28    16    11    1
@<TRIPOS>MOLECULE
*****
 25 28 0 0 0
SMALL
GASTEIGER

@<TRIPOS>ATOM
      1 C          -5.9133  -18.8714   21.7200 C.ar    1  UNL1        0.0820
      2 C          -7.0398  -19.6522   21.1108 C.ar    1  UNL1        0.0772
      3 C          -6.9019  -20.7885   20.1412 C.3     1  UNL1        0.0537
      4 N          -8.3285  -19.0973   21.6412 N.ar    1  UNL1       -0.2282
      5 C          -7.9983  -17.9734   22.5783 C.ar    1  UNL1        0.1796
      6 C          -8.8641  -17.0592   23.3936 C.ar    1  UNL1        0.1667
      7 N          -8.2372  -16.0054   24.2575 N.ar    1  UNL1       -0.2245
      8 C          -6.7445  -15.8658   24.3062 C.ar    1  UNL1        0.1194
      9 C          -5.8788  -16.7800   23.4909 C.ar    1  UNL1        0.1023
     10 N          -6.5056  -17.8338   22.6270 N.ar    1  UNL1       -0.2854
     11 N         -10.3568  -17.1988   23.3448 N.pl3   1  UNL1       -0.2857
     12 C         -11.0354  -18.2773   24.1362 C.3     1  UNL1        0.1243
     13 C         -12.5282  -18.4169   24.0875 C.3     1  UNL1        0.1636
     14 O         -13.3422  -17.4781   23.2474 O.3     1  UNL1       -0.3501
     15 C         -12.6635  -16.3995   22.4560 C.3     1  UNL1        0.1636
     16 C         -11.1709  -16.2600   22.5047 C.3     1  UNL1        0.1243
     17 N          -2.2386  -18.9803   20.4747 N.ar    1  UNL1       -0.2468
     18 C          -3.6526  -18.4974   20.3434 C.ar    1  UNL1        0.0982
     19 C          -4.4510  -19.0897   21.4667 C.ar    1  UNL1        0.0569
     20 C          -3.5303  -19.9387   22.2924 C.ar    1  UNL1        0.1231
     21 N          -2.1630  -19.8710   21.6792 N.ar    1  UNL1       -0.1675
     22 C          -1.1001  -18.6334   19.5618 C.3     1  UNL1        0.1594
     23 C          -0.0948  -17.6001   19.9759 C.3     1  UNL1        0.1685
     24 C          -1.6099  -16.1479   21.5075 C.3     1  UNL1        0.1742
     25 O          -0.5551  -16.2521   20.4461 O.3     1  UNL1       -0.3490
@<TRIPOS>BOND
     1    24    25    1
     2    25    23    1
     3    23    22    1
     4    22    17    1
     5    17    18   ar
     6    18    19   ar
     7    19     1    1
     8     1     2   ar
     9     2     3    1
    10     2     4   ar
    11     4     5   ar
    12     5     6   ar
    13     6    11    1
    14    11    12    1
    15    12    13    1
    16    13    14    1
    17    14    15    1
    18    15    16    1
    19     6     7   ar
    20     7     8   ar
    21     8     9   ar
    22     9    10   ar
    23    19    20   ar
    24    20    21   ar
    25    21    17   ar
    26    10     1   ar
    27    10     5   ar
    28    16    11    1
@<TRIPOS>MOLECULE
*****
 25 28 0 0 0
SMALL
GASTEIGER

@<TRIPOS>ATOM
      1 C          -5.5747  -18.2999   22.0663 C.ar    1  UNL1        0.0820
      2 C          -6.0774  -17.3987   23.1550 C.ar    1  UNL1        0.0772
      3 C          -5.2338  -16.6914   24.1739 C.3     1  UNL1        0.0537
      4 N          -7.5718  -17.3291   23.0460 N.ar    1  UNL1       -0.2282
      5 C          -7.9927  -18.1873   21.8899 C.ar    1  UNL1        0.1796
      6 C          -9.3404  -18.4998   21.3103 C.ar    1  UNL1        0.1667
      7 N          -9.4539  -19.4124   20.1252 N.ar    1  UNL1       -0.2245
      8 C          -8.2196  -20.0123   19.5198 C.ar    1  UNL1        0.1194
      9 C          -6.8719  -19.6997   20.0994 C.ar    1  UNL1        0.1023
     10 N          -6.7584  -18.7872   21.2845 N.ar    1  UNL1       -0.2854
     11 N         -10.5747  -17.8998   21.9158 N.pl3   1  UNL1       -0.2857
     12 C         -11.4573  -18.7314   22.7987 C.3     1  UNL1        0.1243
     13 C         -12.6916  -18.1313   23.4042 C.3     1  UNL1        0.1636
     14 O         -13.0433  -16.6998   23.1267 O.3     1  UNL1       -0.3501
     15 C         -12.1606  -15.8682   22.2438 C.3     1  UNL1        0.1636
     16 C         -10.9264  -16.4683   21.6383 C.3     1  UNL1        0.1243
     17 N          -1.7989  -18.4882   21.1870 N.ar    1  UNL1       -0.2468
     18 C          -3.0806  -17.7174   21.3013 C.ar    1  UNL1        0.0982
     19 C          -4.1402  -18.6519   21.8053 C.ar    1  UNL1        0.0569
     20 C          -3.5133  -20.0003   22.0026 C.ar    1  UNL1        0.1231
     21 N          -2.0662  -19.8991   21.6204 N.ar    1  UNL1       -0.1675
     22 C          -0.4812  -17.9437   20.7211 C.3     1  UNL1        0.1594
     23 C          -0.2557  -17.6705   19.2636 C.3     1  UNL1        0.1685
     24 C          -2.4103  -17.2305   17.8801 C.3     1  UNL1        0.1742
     25 O          -1.2644  -18.1247   18.2505 O.3     1  UNL1       -0.3490
@<TRIPOS>BOND
     1    24    25    1
     2    25    23    1
     3    23    22    1
     4    22    17    1
     5    17    18   ar
     6    18    19   ar
     7    19     1    1
     8     1     2   ar
     9     2     3    1
    10     2     4   ar
    11     4     5   ar
    12     5     6   ar
    13     6    11    1
    14    11    12    1
    15    12    13    1
    16    13    14    1
    17    14    15    1
    18    15    16    1
    19     6     7   ar
    20     7     8   ar
    21     8     9   ar
    22     9    10   ar
    23    19    20   ar
    24    20    21   ar
    25    21    17   ar
    26    10     1   ar
    27    10     5   ar
    28    16    11    1
@<TRIPOS>MOLECULE
*****
 25 28 0 0 0
SMALL
GASTEIGER

@<TRIPOS>ATOM
      1 C          -7.4553  -18.4987   22.7637 C.ar    1  UNL1        0.0820
      2 C          -6.7155  -17.2610   23.1771 C.ar    1  UNL1        0.0772
      3 C          -7.2372  -16.1818   24.0790 C.3     1  UNL1        0.0537
      4 N          -5.3625  -17.2920   22.5303 N.ar    1  UNL1       -0.2282
      5 C          -5.2661  -18.5489   21.7172 C.ar    1  UNL1        0.1796
      6 C          -4.1677  -19.1106   20.8641 C.ar    1  UNL1        0.1667
      7 N          -4.3626  -20.4180   20.1552 N.ar    1  UNL1       -0.2245
      8 C          -5.6561  -21.1638   20.2995 C.ar    1  UNL1        0.1194
      9 C          -6.7545  -20.6021   21.1526 C.ar    1  UNL1        0.1023
     10 N          -6.5596  -19.2946   21.8615 N.ar    1  UNL1       -0.2854
     11 N          -2.8742  -18.3648   20.7198 N.pl3   1  UNL1       -0.2857
     12 C          -1.8153  -18.8731   19.7869 C.3     1  UNL1        0.1243
     13 C          -0.5219  -18.1273   19.6426 C.3     1  UNL1        0.1636
     14 O          -0.2873  -16.8732   20.4314 O.3     1  UNL1       -0.3501
     15 C          -1.3462  -16.3648   21.3643 C.3     1  UNL1        0.1636
     16 C          -2.6396  -17.1106   21.5086 C.3     1  UNL1        0.1243
     17 N         -11.2442  -18.8014   23.5502 N.ar    1  UNL1       -0.2468
     18 C         -10.0795  -18.0416   22.9882 C.ar    1  UNL1        0.0982
     19 C          -8.8467  -18.8745   23.1796 C.ar    1  UNL1        0.0569
     20 C          -9.2496  -20.1492   23.8599 C.ar    1  UNL1        0.1231
     21 N         -10.7314  -20.1040   24.0889 N.ar    1  UNL1       -0.1675
     22 C         -12.6712  -18.3398   23.5700 C.3     1  UNL1        0.1594
     23 C         -13.1067  -17.2110   22.6834 C.3     1  UNL1        0.1685
     24 C         -12.0712  -16.3877   20.4473 C.3     1  UNL1        0.1742
     25 O         -12.9676  -17.3301   21.1946 O.3     1  UNL1       -0.3490
@<TRIPOS>BOND
     1    24    25    1
     2    25    23    1
     3    23    22    1
     4    22    17    1
     5    17    18   ar
     6    18    19   ar
     7    19     1    1
     8     1     2   ar
     9     2     3    1
    10     2     4   ar
    11     4     5   ar
    12     5     6   ar
    13     6    11    1
    14    11    12    1
    15    12    13    1
    16    13    14    1
    17    14    15    1
    18    15    16    1
    19     6     7   ar
    20     7     8   ar
    21     8     9   ar
    22     9    10   ar
    23    19    20   ar
    24    20    21   ar
    25    21    17   ar
    26    10     1   ar
    27    10     5   ar
    28    16    11    1
@<TRIPOS>MOLECULE
*****
 25 28 0 0 0
SMALL
GASTEIGER

@<TRIPOS>ATOM
      1 C          -7.2682  -18.9921   21.8249 C.ar    1  UNL1        0.0820
      2 C          -6.8985  -19.5707   20.4912 C.ar    1  UNL1        0.0772
      3 C          -7.7846  -20.4082   19.6173 C.3     1  UNL1        0.0537
      4 N          -5.4874  -19.1647   20.1848 N.ar    1  UNL1       -0.2282
      5 C          -4.9849  -18.3352   21.3292 C.ar    1  UNL1        0.1796
      6 C          -3.6674  -17.6632   21.5793 C.ar    1  UNL1        0.1667
      7 N          -3.4504  -16.8846   22.8428 N.ar    1  UNL1       -0.2245
      8 C          -4.5510  -16.7780   23.8564 C.ar    1  UNL1        0.1194
      9 C          -5.8685  -17.4499   23.6063 C.ar    1  UNL1        0.1023
     10 N          -6.0855  -18.2285   22.3428 N.ar    1  UNL1       -0.2854
     11 N          -2.5668  -17.7699   20.5656 N.pl3   1  UNL1       -0.2857
     12 C          -2.8593  -17.5349   19.1134 C.3     1  UNL1        0.1243
     13 C          -1.7587  -17.6416   18.0997 C.3     1  UNL1        0.1636
     14 O          -0.3656  -17.9833   18.5385 O.3     1  UNL1       -0.3501
     15 C          -0.0731  -18.2183   19.9908 C.3     1  UNL1        0.1636
     16 C          -1.1737  -18.1116   21.0044 C.3     1  UNL1        0.1243
     17 N         -10.8615  -18.7541   23.2732 N.ar    1  UNL1       -0.2468
     18 C          -9.7544  -18.2106   22.4195 C.ar    1  UNL1        0.0982
     19 C          -8.5887  -19.1494   22.5188 C.ar    1  UNL1        0.0569
     20 C          -8.9754  -20.2733   23.4339 C.ar    1  UNL1        0.1231
     21 N         -10.3801  -20.0290   23.9001 N.ar    1  UNL1       -0.1675
     22 C         -12.2126  -18.1321   23.4660 C.3     1  UNL1        0.1594
     23 C         -12.9171  -17.4940   22.3057 C.3     1  UNL1        0.1685
     24 C         -11.9311  -16.1841   20.2902 C.3     1  UNL1        0.1742
     25 O         -12.3903  -16.2185   21.7178 O.3     1  UNL1       -0.3490
@<TRIPOS>BOND
     1    24    25    1
     2    25    23    1
     3    23    22    1
     4    22    17    1
     5    17    18   ar
     6    18    19   ar
     7    19     1    1
     8     1     2   ar
     9     2     3    1
    10     2     4   ar
    11     4     5   ar
    12     5     6   ar
    13     6    11    1
    14    11    12    1
    15    12    13    1
    16    13    14    1
    17    14    15    1
    18    15    16    1
    19     6     7   ar
    20     7     8   ar
    21     8     9   ar
    22     9    10   ar
    23    19    20   ar
    24    20    21   ar
    25    21    17   ar
    26    10     1   ar
    27    10     5   ar
    28    16    11    1
@<TRIPOS>MOLECULE
*****
 25 28 0 0 0
SMALL
GASTEIGER

@<TRIPOS>ATOM
      1 C          -7.7371  -18.1754   22.9020 C.ar    1  UNL1        0.0820
      2 C          -6.9394  -16.9664   23.2920 C.ar    1  UNL1        0.0772
      3 C          -7.4185  -15.8332   24.1501 C.3     1  UNL1        0.0537
      4 N          -5.5785  -17.0897   22.6733 N.ar    1  UNL1       -0.2282
      5 C          -5.5352  -18.3749   21.9009 C.ar    1  UNL1        0.1796
      6 C          -4.4533  -19.0208   21.0872 C.ar    1  UNL1        0.1667
      7 N          -4.7054  -20.3377   20.4148 N.ar    1  UNL1       -0.2245
      8 C          -6.0395  -21.0087   20.5561 C.ar    1  UNL1        0.1194
      9 C          -7.1214  -20.3628   21.3699 C.ar    1  UNL1        0.1023
     10 N          -6.8693  -19.0459   22.0423 N.ar    1  UNL1       -0.2854
     11 N          -3.1192  -18.3497   20.9458 N.pl3   1  UNL1       -0.2857
     12 C          -2.7954  -17.1423   21.7747 C.3     1  UNL1        0.1243
     13 C          -1.4613  -16.4712   21.6334 C.3     1  UNL1        0.1636
     14 O          -0.4510  -17.0077   20.6631 O.3     1  UNL1       -0.3501
     15 C          -0.7748  -18.2152   19.8341 C.3     1  UNL1        0.1636
     16 C          -2.1089  -18.8862   19.9755 C.3     1  UNL1        0.1243
     17 N         -11.5799  -18.5375   23.3116 N.ar    1  UNL1       -0.2468
     18 C         -10.3843  -18.0355   22.5577 C.ar    1  UNL1        0.0982
     19 C          -9.1539  -18.4634   23.3016 C.ar    1  UNL1        0.0569
     20 C          -9.5893  -19.2299   24.5153 C.ar    1  UNL1        0.1231
     21 N         -11.0886  -19.2757   24.5214 N.ar    1  UNL1       -0.1675
     22 C         -13.0148  -18.3366   22.9238 C.3     1  UNL1        0.1594
     23 C         -13.9772  -17.7270   23.8996 C.3     1  UNL1        0.1685
     24 C         -14.5084  -18.5490   26.3063 C.3     1  UNL1        0.1742
     25 O         -14.7608  -18.6060   24.8288 O.3     1  UNL1       -0.3490
@<TRIPOS>BOND
     1    24    25    1
     2    25    23    1
     3    23    22    1
     4    22    17    1
     5    17    18   ar
     6    18    19   ar
     7    19     1    1
     8     1     2   ar
     9     2     3    1
    10     2     4   ar
    11     4     5   ar
    12     5     6   ar
    13     6    11    1
    14    11    12    1
    15    12    13    1
    16    13    14    1
    17    14    15    1
    18    15    16    1
    19     6     7   ar
    20     7     8   ar
    21     8     9   ar
    22     9    10   ar
    23    19    20   ar
    24    20    21   ar
    25    21    17   ar
    26    10     1   ar
    27    10     5   ar
    28    16    11    1
@<TRIPOS>MOLECULE
*****
 25 28 0 0 0
SMALL
GASTEIGER

@<TRIPOS>ATOM
      1 C           7.3203   -4.8287   25.3382 C.ar    1  UNL1        0.0820
      2 C           7.6366   -5.7453   24.1938 C.ar    1  UNL1        0.0772
      3 C           8.3613   -7.0554   24.2877 C.3     1  UNL1        0.0537
      4 N           7.1010   -5.1220   22.9390 N.ar    1  UNL1       -0.2282
      5 C           6.4536   -3.8201   23.3079 C.ar    1  UNL1        0.1796
      6 C           5.7583   -2.7763   22.4852 C.ar    1  UNL1        0.1667
      7 N           5.1985   -1.5512   23.1452 N.ar    1  UNL1       -0.2245
      8 C           5.3340   -1.3699   24.6280 C.ar    1  UNL1        0.1194
      9 C           6.0294   -2.4138   25.4508 C.ar    1  UNL1        0.1023
     10 N           6.5892   -3.6388   24.7907 N.ar    1  UNL1       -0.2854
     11 N           5.6227   -2.9576   21.0023 N.pl3   1  UNL1       -0.2857
     12 C           4.6043   -3.9124   20.4535 C.3     1  UNL1        0.1243
     13 C           4.4688   -4.0937   18.9706 C.3     1  UNL1        0.1636
     14 O           5.3517   -3.3203   18.0367 O.3     1  UNL1       -0.3501
     15 C           6.3702   -2.3655   18.5856 C.3     1  UNL1        0.1636
     16 C           6.5057   -2.1842   20.0684 C.3     1  UNL1        0.1243
     17 N           7.4877   -5.4764   29.1616 N.ar    1  UNL1       -0.2468
     18 C           6.7020   -5.2910   27.8974 C.ar    1  UNL1        0.0982
     19 C           7.6732   -5.0610   26.7775 C.ar    1  UNL1        0.0569
     20 C           9.0591   -5.1042   27.3496 C.ar    1  UNL1        0.1231
     21 N           8.9445   -5.3609   28.8231 N.ar    1  UNL1       -0.1675
     22 C           6.9170   -5.7322   30.5249 C.3     1  UNL1        0.1594
     23 C           6.9871   -4.6675   31.5792 C.3     1  UNL1        0.1685
     24 C           5.4701   -2.7255   32.4021 C.3     1  UNL1        0.1742
     25 O           6.3406   -3.3347   31.3433 O.3     1  UNL1       -0.3490
@<TRIPOS>BOND
     1    24    25    1
     2    25    23    1
     3    23    22    1
     4    22    17    1
     5    17    18   ar
     6    18    19   ar
     7    19     1    1
     8     1     2   ar
     9     2     3    1
    10     2     4   ar
    11     4     5   ar
    12     5     6   ar
    13     6    11    1
    14    11    12    1
    15    12    13    1
    16    13    14    1
    17    14    15    1
    18    15    16    1
    19     6     7   ar
    20     7     8   ar
    21     8     9   ar
    22     9    10   ar
    23    19    20   ar
    24    20    21   ar
    25    21    17   ar
    26    10     1   ar
    27    10     5   ar
    28    16    11    1
@<TRIPOS>MOLECULE
*****
 25 28 0 0 0
SMALL
GASTEIGER

@<TRIPOS>ATOM
      1 C           0.8449    1.0635   27.9999 C.ar    1  UNL1        0.0820
      2 C           0.2227    0.0854   28.9519 C.ar    1  UNL1        0.0772
      3 C          -1.1455   -0.5169   28.8280 C.3     1  UNL1        0.0537
      4 N           1.2087   -0.1845   30.0495 N.ar    1  UNL1       -0.2282
      5 C           2.4405    0.6267   29.7759 C.ar    1  UNL1        0.1796
      6 C           3.7378    0.7627   30.5165 C.ar    1  UNL1        0.1667
      7 N           4.8102    1.6700   29.9905 N.ar    1  UNL1       -0.2245
      8 C           4.5853    2.4413   28.7238 C.ar    1  UNL1        0.1194
      9 C           3.2880    2.3053   27.9832 C.ar    1  UNL1        0.1023
     10 N           2.2156    1.3980   28.5092 N.ar    1  UNL1       -0.2854
     11 N           3.9626   -0.0086   31.7833 N.pl3   1  UNL1       -0.2857
     12 C           3.8799    0.6870   33.1096 C.3     1  UNL1        0.1243
     13 C           4.1047   -0.0843   34.3764 C.3     1  UNL1        0.1636
     14 O           4.4122   -1.5513   34.3167 O.3     1  UNL1       -0.3501
     15 C           4.4950   -2.2468   32.9902 C.3     1  UNL1        0.1636
     16 C           4.2701   -1.4755   31.7236 C.3     1  UNL1        0.1243
     17 N          -0.2156    2.1638   24.4320 N.ar    1  UNL1       -0.2468
     18 C           0.7333    1.4643   25.3594 C.ar    1  UNL1        0.0982
     19 C           0.2083    1.6109   26.7570 C.ar    1  UNL1        0.0569
     20 C          -1.0651    2.4010   26.6931 C.ar    1  UNL1        0.1231
     21 N          -1.3271    2.7427   25.2562 N.ar    1  UNL1       -0.1675
     22 C          -0.0773    2.2663   22.9420 C.3     1  UNL1        0.1594
     23 C           0.6748    1.2127   22.1842 C.3     1  UNL1        0.1685
     24 C           0.8392   -0.3794   20.1377 C.3     1  UNL1        0.1742
     25 O           0.0258    0.5147   21.0259 O.3     1  UNL1       -0.3490
@<TRIPOS>BOND
     1    24    25    1
     2    25    23    1
     3    23    22    1
     4    22    17    1
     5    17    18   ar
     6    18    19   ar
     7    19     1    1
     8     1     2   ar
     9     2     3    1
    10     2     4   ar
    11     4     5   ar
    12     5     6   ar
    13     6    11    1
    14    11    12    1
    15    12    13    1
    16    13    14    1
    17    14    15    1
    18    15    16    1
    19     6     7   ar
    20     7     8   ar
    21     8     9   ar
    22     9    10   ar
    23    19    20   ar
    24    20    21   ar
    25    21    17   ar
    26    10     1   ar
    27    10     5   ar
    28    16    11    1
@<TRIPOS>MOLECULE
*****
 25 28 0 0 0
SMALL
GASTEIGER

@<TRIPOS>ATOM
      1 C           6.4710   -3.9091   24.2265 C.ar    1  UNL1        0.0820
      2 C           6.1281   -2.8541   25.2362 C.ar    1  UNL1        0.0772
      3 C           5.4183   -1.5627   24.9557 C.3     1  UNL1        0.0537
      4 N           6.6198   -3.3170   26.5755 N.ar    1  UNL1       -0.2282
      5 C           7.2665   -4.6583   26.3936 C.ar    1  UNL1        0.1796
      6 C           7.9273   -5.5936   27.3623 C.ar    1  UNL1        0.1667
      7 N           8.4960   -6.8948   26.8794 N.ar    1  UNL1       -0.2245
      8 C           8.4041   -7.2607   25.4276 C.ar    1  UNL1        0.1194
      9 C           7.7433   -6.3253   24.4588 C.ar    1  UNL1        0.1023
     10 N           7.1745   -5.0241   24.9418 N.ar    1  UNL1       -0.2854
     11 N           8.0193   -5.2277   28.8142 N.pl3   1  UNL1       -0.2857
     12 C           9.0995   -4.3006   29.2870 C.3     1  UNL1        0.1243
     13 C           9.1915   -3.9347   30.7388 C.3     1  UNL1        0.1636
     14 O           8.2032   -4.4959   31.7177 O.3     1  UNL1       -0.3501
     15 C           7.1229   -5.4230   31.2449 C.3     1  UNL1        0.1636
     16 C           7.0309   -5.7888   29.7931 C.3     1  UNL1        0.1243
     17 N           4.9592   -3.7385   20.6556 N.ar    1  UNL1       -0.2468
     18 C           4.7982   -3.7617   22.1467 C.ar    1  UNL1        0.0982
     19 C           6.1642   -3.8581   22.7591 C.ar    1  UNL1        0.0569
     20 C           7.1694   -3.8944   21.6464 C.ar    1  UNL1        0.1231
     21 N           6.4246   -3.8205   20.3463 N.ar    1  UNL1       -0.1675
     22 C           3.8496   -3.6490   19.6503 C.3     1  UNL1        0.1594
     23 C           3.2386   -2.3186   19.3241 C.3     1  UNL1        0.1685
     24 C           3.8965   -1.0160   17.1746 C.3     1  UNL1        0.1742
     25 O           4.0594   -1.2624   18.6452 O.3     1  UNL1       -0.3490
@<TRIPOS>BOND
     1    24    25    1
     2    25    23    1
     3    23    22    1
     4    22    17    1
     5    17    18   ar
     6    18    19   ar
     7    19     1    1
     8     1     2   ar
     9     2     3    1
    10     2     4   ar
    11     4     5   ar
    12     5     6   ar
    13     6    11    1
    14    11    12    1
    15    12    13    1
    16    13    14    1
    17    14    15    1
    18    15    16    1
    19     6     7   ar
    20     7     8   ar
    21     8     9   ar
    22     9    10   ar
    23    19    20   ar
    24    20    21   ar
    25    21    17   ar
    26    10     1   ar
    27    10     5   ar
    28    16    11    1
