@<TRIPOS>MOLECULE
*****
 34 37 0 0 0
SMALL
GASTEIGER

@<TRIPOS>ATOM
      1 C          -5.6140  -18.6960   22.2120 C.ar    1  UNL1        0.1474
      2 C          -6.4402  -17.7006   22.9713 C.ar    1  UNL1        0.0390
      3 C          -7.8852  -17.5027   22.6209 C.ar    1  UNL1        0.0205
      4 C          -8.5039  -18.3000   21.5112 C.ar    1  UNL1        0.0662
      5 C          -7.6776  -19.2954   20.7519 C.ar    1  UNL1        0.0767
      6 C          -6.2327  -19.4934   21.1023 C.ar    1  UNL1        0.0438
      7 C          -8.2964  -20.0928   19.6422 C.ar    1  UNL1        0.2820
      8 O          -7.4701  -21.0881   18.8830 O.2     1  UNL1       -0.2651
      9 N          -9.7413  -19.8948   19.2918 N.ar    1  UNL1       -0.1873
     10 C         -10.5677  -18.8994   20.0511 C.ar    1  UNL1        0.1819
     11 N          -9.9490  -18.1020   21.1608 N.ar    1  UNL1       -0.3057
     12 O          -4.1689  -18.8940   22.5624 O.3     1  UNL1       -0.4360
     13 C          -1.5614  -17.7385   19.8028 C.ar    1  UNL1        0.1487
     14 C          -0.9934  -16.5086   20.4468 C.ar    1  UNL1        0.0577
     15 C          -1.4839  -16.0739   21.7960 C.ar    1  UNL1        0.1052
     16 N          -2.5424  -16.8690   22.5012 N.ar    1  UNL1       -0.2097
     17 C          -3.1104  -18.0989   21.8572 C.ar    1  UNL1        0.2365
     18 C          -2.6199  -18.5336   20.5079 C.ar    1  UNL1        0.1586
     19 C          -3.1879  -19.7635   19.8639 C.3     1  UNL1        0.4257
     20 F          -3.7560  -20.9933   19.2199 F       1  UNL1       -0.1656
     21 F          -2.3237  -20.6213   20.7399 F       1  UNL1       -0.1656
     22 F          -4.0522  -18.9056   18.9880 F       1  UNL1       -0.1656
     23 C          -1.6868  -17.6006   17.2114 C.3     1  UNL1        0.2525
     24 O          -1.0710  -18.1732   18.4536 O.3     1  UNL1       -0.4713
     25 C         -10.7752  -17.1067   21.9201 C.3     1  UNL1        0.1387
     26 C         -11.7723  -17.5793   22.9363 C.ar    1  UNL1        0.0555
     27 C         -13.2413  -17.4590   22.6580 C.ar    1  UNL1        0.1424
     28 F         -13.7133  -16.8662   21.3635 F       1  UNL1       -0.2043
     29 C         -14.2382  -17.9316   23.6742 C.ar    1  UNL1        0.0591
     30 C         -13.7662  -18.5244   24.9687 C.ar    1  UNL1        0.1446
     31 F         -14.7633  -18.9970   25.9849 F       1  UNL1       -0.2040
     32 C         -12.2972  -18.6446   25.2470 C.ar    1  UNL1        0.0591
     33 C         -11.3002  -18.1721   24.2308 C.ar    1  UNL1        0.1424
     34 F          -9.8311  -18.2923   24.5091 F       1  UNL1       -0.2043
@<TRIPOS>BOND
     1    23    24    1
     2    24    13    1
     3    13    14   ar
     4    14    15   ar
     5    15    16   ar
     6    16    17   ar
     7    17    12    1
     8    12     1    1
     9     1     2   ar
    10     2     3   ar
    11     3     4   ar
    12     4     5   ar
    13     5     6   ar
    14     5     7   ar
    15     7     8    2
    16     7     9   ar
    17     9    10   ar
    18    10    11   ar
    19    11    25    1
    20    25    26    1
    21    26    27   ar
    22    27    28    1
    23    27    29   ar
    24    29    30   ar
    25    30    31    1
    26    30    32   ar
    27    32    33   ar
    28    33    34    1
    29    17    18   ar
    30    18    19    1
    31    19    20    1
    32    19    21    1
    33    19    22    1
    34    18    13   ar
    35     6     1   ar
    36    33    26   ar
    37    11     4   ar
@<TRIPOS>MOLECULE
*****
 34 37 0 0 0
SMALL
GASTEIGER

@<TRIPOS>ATOM
      1 C          -4.9057  -18.2559   22.7554 C.ar    1  UNL1        0.1474
      2 C          -6.0288  -18.9236   22.0188 C.ar    1  UNL1        0.0390
      3 C          -7.4315  -18.4138   22.1684 C.ar    1  UNL1        0.0205
      4 C          -7.7111  -17.2363   23.0546 C.ar    1  UNL1        0.0662
      5 C          -6.5879  -16.5685   23.7912 C.ar    1  UNL1        0.0767
      6 C          -5.1852  -17.0783   23.6416 C.ar    1  UNL1        0.0438
      7 C          -6.8675  -15.3910   24.6773 C.ar    1  UNL1        0.2820
      8 O          -5.7443  -14.7233   25.4139 O.2     1  UNL1       -0.2651
      9 N          -8.2702  -14.8812   24.8269 N.ar    1  UNL1       -0.1873
     10 C          -9.3935  -15.5489   24.0903 C.ar    1  UNL1        0.1819
     11 N          -9.1139  -16.7265   23.2042 N.ar    1  UNL1       -0.3057
     12 O          -3.5028  -18.7656   22.6058 O.3     1  UNL1       -0.4360
     13 C          -1.4886  -17.8357   19.3153 C.ar    1  UNL1        0.1487
     14 C          -0.6440  -16.6997   19.8115 C.ar    1  UNL1        0.0577
     15 C          -0.7524  -16.2523   21.2391 C.ar    1  UNL1        0.1052
     16 N          -1.7053  -16.9410   22.1706 N.ar    1  UNL1       -0.2097
     17 C          -2.5499  -18.0770   21.6744 C.ar    1  UNL1        0.2365
     18 C          -2.4415  -18.5243   20.2467 C.ar    1  UNL1        0.1586
     19 C          -3.2861  -19.6604   19.7506 C.3     1  UNL1        0.4257
     20 F          -4.1306  -20.7964   19.2544 F       1  UNL1       -0.1656
     21 F          -2.3907  -20.6346   20.4571 F       1  UNL1       -0.1656
     22 F          -4.1814  -18.6861   19.0440 F       1  UNL1       -0.1656
     23 C          -1.9971  -17.4609   16.7952 C.3     1  UNL1        0.2525
     24 O          -1.3802  -18.2830   17.8877 O.3     1  UNL1       -0.4713
     25 C         -10.2371  -17.3942   22.4676 C.3     1  UNL1        0.1387
     26 C         -11.5031  -17.7471   23.1906 C.ar    1  UNL1        0.0555
     27 C         -12.8269  -17.2953   22.6492 C.ar    1  UNL1        0.1424
     28 F         -12.8849  -16.4906   21.3846 F       1  UNL1       -0.2043
     29 C         -14.0929  -17.6483   23.3722 C.ar    1  UNL1        0.0591
     30 C         -14.0349  -18.4530   24.6367 C.ar    1  UNL1        0.1446
     31 F         -15.3010  -18.8060   25.3598 F       1  UNL1       -0.2040
     32 C         -12.7111  -18.9048   25.1782 C.ar    1  UNL1        0.0591
     33 C         -11.4452  -18.5519   24.4552 C.ar    1  UNL1        0.1424
     34 F         -10.1212  -19.0037   24.9966 F       1  UNL1       -0.2043
@<TRIPOS>BOND
     1    23    24    1
     2    24    13    1
     3    13    14   ar
     4    14    15   ar
     5    15    16   ar
     6    16    17   ar
     7    17    12    1
     8    12     1    1
     9     1     2   ar
    10     2     3   ar
    11     3     4   ar
    12     4     5   ar
    13     5     6   ar
    14     5     7   ar
    15     7     8    2
    16     7     9   ar
    17     9    10   ar
    18    10    11   ar
    19    11    25    1
    20    25    26    1
    21    26    27   ar
    22    27    28    1
    23    27    29   ar
    24    29    30   ar
    25    30    31    1
    26    30    32   ar
    27    32    33   ar
    28    33    34    1
    29    17    18   ar
    30    18    19    1
    31    19    20    1
    32    19    21    1
    33    19    22    1
    34    18    13   ar
    35     6     1   ar
    36    33    26   ar
    37    11     4   ar
@<TRIPOS>MOLECULE
*****
 34 37 0 0 0
SMALL
GASTEIGER

@<TRIPOS>ATOM
      1 C          -5.3138  -18.3837   22.8744 C.ar    1  UNL1        0.1474
      2 C          -6.5904  -19.0539   22.4612 C.ar    1  UNL1        0.0390
      3 C          -7.9107  -18.4482   22.8353 C.ar    1  UNL1        0.0205
      4 C          -7.9542  -17.1723   23.6228 C.ar    1  UNL1        0.0662
      5 C          -6.6776  -16.5021   24.0361 C.ar    1  UNL1        0.0767
      6 C          -5.3573  -17.1077   23.6619 C.ar    1  UNL1        0.0438
      7 C          -6.7211  -15.2261   24.8235 C.ar    1  UNL1        0.2820
      8 O          -5.4445  -14.5559   25.2368 O.2     1  UNL1       -0.2651
      9 N          -8.0414  -14.6204   25.1977 N.ar    1  UNL1       -0.1873
     10 C          -9.3182  -15.2907   24.7844 C.ar    1  UNL1        0.1819
     11 N          -9.2746  -16.5666   23.9970 N.ar    1  UNL1       -0.3057
     12 O          -3.9934  -18.9894   22.5003 O.3     1  UNL1       -0.4360
     13 C          -1.6918  -17.7829   19.5008 C.ar    1  UNL1        0.1487
     14 C          -1.0140  -16.5980   20.1224 C.ar    1  UNL1        0.0577
     15 C          -1.3292  -16.2102   21.5367 C.ar    1  UNL1        0.1052
     16 N          -2.3224  -17.0073   22.3294 N.ar    1  UNL1       -0.2097
     17 C          -3.0003  -18.1922   21.7077 C.ar    1  UNL1        0.2365
     18 C          -2.6850  -18.5800   20.2933 C.ar    1  UNL1        0.1586
     19 C          -3.3628  -19.7649   19.6717 C.3     1  UNL1        0.4257
     20 F          -4.0407  -20.9498   19.0500 F       1  UNL1       -0.1656
     21 F          -2.4206  -20.6824   20.3930 F       1  UNL1       -0.1656
     22 F          -4.3051  -18.8474   18.9503 F       1  UNL1       -0.1656
     23 C          -1.9485  -17.3805   16.9469 C.3     1  UNL1        0.2525
     24 O          -1.3766  -18.1707   18.0865 O.3     1  UNL1       -0.4713
     25 C         -10.5512  -17.2369   23.5837 C.3     1  UNL1        0.1387
     26 C         -10.6587  -17.8767   22.2312 C.ar    1  UNL1        0.0555
     27 C         -10.7959  -19.3659   22.1148 C.ar    1  UNL1        0.1424
     28 F         -10.8256  -20.2152   23.3508 F       1  UNL1       -0.2043
     29 C         -10.9034  -20.0056   20.7624 C.ar    1  UNL1        0.0591
     30 C         -10.8737  -19.1563   19.5264 C.ar    1  UNL1        0.1446
     31 F         -10.9812  -19.7961   18.1739 F       1  UNL1       -0.2040
     32 C         -10.7365  -17.6671   19.6428 C.ar    1  UNL1        0.0591
     33 C         -10.6290  -17.0274   20.9952 C.ar    1  UNL1        0.1424
     34 F         -10.4918  -15.5381   21.1117 F       1  UNL1       -0.2043
@<TRIPOS>BOND
     1    23    24    1
     2    24    13    1
     3    13    14   ar
     4    14    15   ar
     5    15    16   ar
     6    16    17   ar
     7    17    12    1
     8    12     1    1
     9     1     2   ar
    10     2     3   ar
    11     3     4   ar
    12     4     5   ar
    13     5     6   ar
    14     5     7   ar
    15     7     8    2
    16     7     9   ar
    17     9    10   ar
    18    10    11   ar
    19    11    25    1
    20    25    26    1
    21    26    27   ar
    22    27    28    1
    23    27    29   ar
    24    29    30   ar
    25    30    31    1
    26    30    32   ar
    27    32    33   ar
    28    33    34    1
    29    17    18   ar
    30    18    19    1
    31    19    20    1
    32    19    21    1
    33    19    22    1
    34    18    13   ar
    35     6     1   ar
    36    33    26   ar
    37    11     4   ar
@<TRIPOS>MOLECULE
*****
 34 37 0 0 0
SMALL
GASTEIGER

@<TRIPOS>ATOM
      1 C           0.4251    1.1801   24.6238 C.ar    1  UNL1        0.1474
      2 C           1.7820    0.5422   24.6670 C.ar    1  UNL1        0.0390
      3 C           2.5475    0.3209   23.3962 C.ar    1  UNL1        0.0205
      4 C           1.9561    0.7376   22.0822 C.ar    1  UNL1        0.0662
      5 C           0.5992    1.3755   22.0389 C.ar    1  UNL1        0.0767
      6 C          -0.1663    1.5967   23.3097 C.ar    1  UNL1        0.0438
      7 C           0.0079    1.7921   20.7249 C.ar    1  UNL1        0.2820
      8 O          -1.3490    2.4300   20.6817 O.2     1  UNL1       -0.2651
      9 N           0.7734    1.5708   19.4541 N.ar    1  UNL1       -0.1873
     10 C           2.1303    0.9329   19.4973 C.ar    1  UNL1        0.1819
     11 N           2.7217    0.5163   20.8113 N.ar    1  UNL1       -0.3057
     12 O          -0.3405    1.4014   25.8946 O.3     1  UNL1       -0.4360
     13 C           0.8736    1.9753   29.6291 C.ar    1  UNL1        0.1487
     14 C           1.7077    3.2117   29.4692 C.ar    1  UNL1        0.0577
     15 C           1.8590    3.8447   28.1178 C.ar    1  UNL1        0.1052
     16 N           1.1763    3.2412   26.9262 N.ar    1  UNL1       -0.2097
     17 C           0.3422    2.0048   27.0861 C.ar    1  UNL1        0.2365
     18 C           0.1909    1.3718   28.4376 C.ar    1  UNL1        0.1586
     19 C          -0.6432    0.1354   28.5976 C.3     1  UNL1        0.4257
     20 F          -1.4773   -1.1010   28.7575 F       1  UNL1       -0.1656
     21 F           0.6029   -0.6976   28.6565 F       1  UNL1       -0.1656
     22 F          -1.8893    0.9684   28.5386 F       1  UNL1       -0.1656
     23 C           1.3186    2.0017   32.1887 C.3     1  UNL1        0.2525
     24 O           0.7223    1.3423   30.9805 O.3     1  UNL1       -0.4713
     25 C           4.0786   -0.1216   20.8546 C.3     1  UNL1        0.1387
     26 C           4.2923   -1.4724   20.2383 C.ar    1  UNL1        0.0555
     27 C           4.1263   -2.7104   21.0688 C.ar    1  UNL1        0.1424
     28 F           3.7465   -2.5977   22.5156 F       1  UNL1       -0.2043
     29 C           4.3400   -4.0611   20.4526 C.ar    1  UNL1        0.0591
     30 C           4.7197   -4.1739   19.0058 C.ar    1  UNL1        0.1446
     31 F           4.9335   -5.5247   18.3896 F       1  UNL1       -0.2040
     32 C           4.8858   -2.9359   18.1753 C.ar    1  UNL1        0.0591
     33 C           4.6721   -1.5852   18.7916 C.ar    1  UNL1        0.1424
     34 F           4.8381   -0.3471   17.9611 F       1  UNL1       -0.2043
@<TRIPOS>BOND
     1    23    24    1
     2    24    13    1
     3    13    14   ar
     4    14    15   ar
     5    15    16   ar
     6    16    17   ar
     7    17    12    1
     8    12     1    1
     9     1     2   ar
    10     2     3   ar
    11     3     4   ar
    12     4     5   ar
    13     5     6   ar
    14     5     7   ar
    15     7     8    2
    16     7     9   ar
    17     9    10   ar
    18    10    11   ar
    19    11    25    1
    20    25    26    1
    21    26    27   ar
    22    27    28    1
    23    27    29   ar
    24    29    30   ar
    25    30    31    1
    26    30    32   ar
    27    32    33   ar
    28    33    34    1
    29    17    18   ar
    30    18    19    1
    31    19    20    1
    32    19    21    1
    33    19    22    1
    34    18    13   ar
    35     6     1   ar
    36    33    26   ar
    37    11     4   ar
@<TRIPOS>MOLECULE
*****
 34 37 0 0 0
SMALL
GASTEIGER

@<TRIPOS>ATOM
      1 C           6.2583   -3.7344   22.6913 C.ar    1  UNL1        0.1474
      2 C           7.4150   -4.1381   23.5568 C.ar    1  UNL1        0.0390
      3 C           7.5028   -3.6431   24.9701 C.ar    1  UNL1        0.0205
      4 C           6.4339   -2.7446   25.5178 C.ar    1  UNL1        0.0662
      5 C           5.2772   -2.3410   24.6524 C.ar    1  UNL1        0.0767
      6 C           5.1894   -2.8359   23.2391 C.ar    1  UNL1        0.0438
      7 C           4.2083   -1.4424   25.2001 C.ar    1  UNL1        0.2820
      8 O           3.0516   -1.0388   24.3347 O.2     1  UNL1       -0.2651
      9 N           4.2961   -0.9475   26.6134 N.ar    1  UNL1       -0.1873
     10 C           5.4528   -1.3512   27.4789 C.ar    1  UNL1        0.1819
     11 N           6.5217   -2.2497   26.9312 N.ar    1  UNL1       -0.3057
     12 O           6.1705   -4.2293   21.2780 O.3     1  UNL1       -0.4360
     13 C           5.5813   -2.1491   17.9500 C.ar    1  UNL1        0.1487
     14 C           6.8748   -1.3957   17.8539 C.ar    1  UNL1        0.0577
     15 C           7.9335   -1.5868   18.8991 C.ar    1  UNL1        0.1052
     16 N           7.6988   -2.5314   20.0405 N.ar    1  UNL1       -0.2097
     17 C           6.4053   -3.2848   20.1367 C.ar    1  UNL1        0.2365
     18 C           5.3465   -3.0937   19.0914 C.ar    1  UNL1        0.1586
     19 C           4.0530   -3.8471   19.1875 C.3     1  UNL1        0.4257
     20 F           2.7595   -4.6005   19.2836 F       1  UNL1       -0.1656
     21 F           4.6179   -4.9283   18.3147 F       1  UNL1       -0.1656
     22 F           3.4881   -2.7658   20.0603 F       1  UNL1       -0.1656
     23 C           3.6363   -0.7485   16.9473 C.3     1  UNL1        0.2525
     24 O           4.5226   -1.9580   16.9048 O.3     1  UNL1       -0.4713
     25 C           7.6784   -2.6533   27.7966 C.3     1  UNL1        0.1387
     26 C           7.4693   -3.6181   28.9261 C.ar    1  UNL1        0.0555
     27 C           7.0407   -3.1150   30.2726 C.ar    1  UNL1        0.1424
     28 F           6.8211   -1.6472   30.4897 F       1  UNL1       -0.2043
     29 C           6.8316   -4.0798   31.4019 C.ar    1  UNL1        0.0591
     30 C           7.0511   -5.5477   31.1847 C.ar    1  UNL1        0.1446
     31 F           6.8420   -6.5125   32.3141 F       1  UNL1       -0.2040
     32 C           7.4798   -6.0508   29.8382 C.ar    1  UNL1        0.0591
     33 C           7.6888   -5.0860   28.7089 C.ar    1  UNL1        0.1424
     34 F           8.1175   -5.5891   27.3623 F       1  UNL1       -0.2043
@<TRIPOS>BOND
     1    23    24    1
     2    24    13    1
     3    13    14   ar
     4    14    15   ar
     5    15    16   ar
     6    16    17   ar
     7    17    12    1
     8    12     1    1
     9     1     2   ar
    10     2     3   ar
    11     3     4   ar
    12     4     5   ar
    13     5     6   ar
    14     5     7   ar
    15     7     8    2
    16     7     9   ar
    17     9    10   ar
    18    10    11   ar
    19    11    25    1
    20    25    26    1
    21    26    27   ar
    22    27    28    1
    23    27    29   ar
    24    29    30   ar
    25    30    31    1
    26    30    32   ar
    27    32    33   ar
    28    33    34    1
    29    17    18   ar
    30    18    19    1
    31    19    20    1
    32    19    21    1
    33    19    22    1
    34    18    13   ar
    35     6     1   ar
    36    33    26   ar
    37    11     4   ar
@<TRIPOS>MOLECULE
*****
 34 37 0 0 0
SMALL
GASTEIGER

@<TRIPOS>ATOM
      1 C          -4.9703  -18.3255   22.9543 C.ar    1  UNL1        0.1474
      2 C          -6.2491  -18.9423   22.4703 C.ar    1  UNL1        0.0390
      3 C          -7.5670  -18.3516   22.8756 C.ar    1  UNL1        0.0205
      4 C          -7.6061  -17.1443   23.7649 C.ar    1  UNL1        0.0662
      5 C          -6.3273  -16.5275   24.2488 C.ar    1  UNL1        0.0767
      6 C          -5.0094  -17.1181   23.8435 C.ar    1  UNL1        0.0438
      7 C          -6.3664  -15.3201   25.1380 C.ar    1  UNL1        0.2820
      8 O          -5.0876  -14.7034   25.6220 O.2     1  UNL1       -0.2651
      9 N          -7.6843  -14.7295   25.5433 N.ar    1  UNL1       -0.1873
     10 C          -8.9632  -15.3463   25.0594 C.ar    1  UNL1        0.1819
     11 N          -8.9241  -16.5536   24.1701 N.ar    1  UNL1       -0.3057
     12 O          -3.6524  -18.9161   22.5490 O.3     1  UNL1       -0.4360
     13 C          -1.5973  -17.7540   19.3591 C.ar    1  UNL1        0.1487
     14 C          -0.8529  -16.5763   19.9150 C.ar    1  UNL1        0.0577
     15 C          -1.0417  -16.1786   21.3489 C.ar    1  UNL1        0.1052
     16 N          -1.9749  -16.9585   22.2270 N.ar    1  UNL1       -0.2097
     17 C          -2.7192  -18.1362   21.6710 C.ar    1  UNL1        0.2365
     18 C          -2.5304  -18.5339   20.2371 C.ar    1  UNL1        0.1586
     19 C          -3.2747  -19.7116   19.6811 C.3     1  UNL1        0.4257
     20 F          -4.0191  -20.8892   19.1252 F       1  UNL1       -0.1656
     21 F          -4.2312  -18.7826   18.9939 F       1  UNL1       -0.1656
     22 F          -2.3183  -20.6405   20.3684 F       1  UNL1       -0.1656
     23 C          -2.0532  -17.3502   16.8334 C.3     1  UNL1        0.2525
     24 O          -1.4085  -18.1517   17.9252 O.3     1  UNL1       -0.4713
     25 C         -10.2029  -17.1704   23.6862 C.3     1  UNL1        0.1387
     26 C         -10.8024  -16.7295   22.3838 C.ar    1  UNL1        0.0555
     27 C         -10.0062  -15.8747   21.4428 C.ar    1  UNL1        0.1424
     28 F          -8.6105  -15.4607   21.8043 F       1  UNL1       -0.2043
     29 C         -10.6058  -15.4338   20.1405 C.ar    1  UNL1        0.0591
     30 C         -12.0015  -15.8477   19.7791 C.ar    1  UNL1        0.1446
     31 F         -12.6010  -15.4068   18.4767 F       1  UNL1       -0.2040
     32 C         -12.7977  -16.7025   20.7200 C.ar    1  UNL1        0.0591
     33 C         -12.1981  -17.1434   22.0223 C.ar    1  UNL1        0.1424
     34 F         -12.9943  -17.9982   22.9633 F       1  UNL1       -0.2043
@<TRIPOS>BOND
     1    23    24    1
     2    24    13    1
     3    13    14   ar
     4    14    15   ar
     5    15    16   ar
     6    16    17   ar
     7    17    12    1
     8    12     1    1
     9     1     2   ar
    10     2     3   ar
    11     3     4   ar
    12     4     5   ar
    13     5     6   ar
    14     5     7   ar
    15     7     8    2
    16     7     9   ar
    17     9    10   ar
    18    10    11   ar
    19    11    25    1
    20    25    26    1
    21    26    27   ar
    22    27    28    1
    23    27    29   ar
    24    29    30   ar
    25    30    31    1
    26    30    32   ar
    27    32    33   ar
    28    33    34    1
    29    17    18   ar
    30    18    19    1
    31    19    20    1
    32    19    21    1
    33    19    22    1
    34    18    13   ar
    35     6     1   ar
    36    33    26   ar
    37    11     4   ar
@<TRIPOS>MOLECULE
*****
 34 37 0 0 0
SMALL
GASTEIGER

@<TRIPOS>ATOM
      1 C          -5.7057  -19.3532   21.2043 C.ar    1  UNL1        0.1474
      2 C          -6.2186  -18.4177   22.2586 C.ar    1  UNL1        0.0390
      3 C          -7.6616  -18.0083   22.2604 C.ar    1  UNL1        0.0205
      4 C          -8.5918  -18.5344   21.2077 C.ar    1  UNL1        0.0662
      5 C          -8.0789  -19.4699   20.1533 C.ar    1  UNL1        0.0767
      6 C          -6.6359  -19.8793   20.1516 C.ar    1  UNL1        0.0438
      7 C          -9.0090  -19.9960   19.1007 C.ar    1  UNL1        0.2820
      8 O          -8.4961  -20.9315   18.0463 O.2     1  UNL1       -0.2651
      9 N         -10.4520  -19.5866   19.1024 N.ar    1  UNL1       -0.1873
     10 C         -10.9650  -18.6511   20.1568 C.ar    1  UNL1        0.1819
     11 N         -10.0349  -18.1250   21.2095 N.ar    1  UNL1       -0.3057
     12 O          -4.2626  -19.7627   21.2025 O.3     1  UNL1       -0.4360
     13 C          -1.2353  -17.5243   19.9476 C.ar    1  UNL1        0.1487
     14 C          -1.3439  -17.7072   18.4628 C.ar    1  UNL1        0.0577
     15 C          -2.4255  -18.5752   17.8912 C.ar    1  UNL1        0.1052
     16 N          -3.3984  -19.2604   18.8044 N.ar    1  UNL1       -0.2097
     17 C          -3.2898  -19.0775   20.2893 C.ar    1  UNL1        0.2365
     18 C          -2.2081  -18.2094   20.8609 C.ar    1  UNL1        0.1586
     19 C          -2.0995  -18.0266   22.3457 C.3     1  UNL1        0.4257
     20 F          -1.9908  -17.8437   23.8305 F       1  UNL1       -0.1656
     21 F          -1.3638  -19.3294   22.4523 F       1  UNL1       -0.1656
     22 F          -2.8352  -16.7237   22.2391 F       1  UNL1       -0.1656
     23 C           1.2845  -17.0576   20.3756 C.3     1  UNL1        0.2525
     24 O          -0.1537  -16.6563   20.5192 O.3     1  UNL1       -0.4713
     25 C         -10.5477  -17.1895   22.2638 C.3     1  UNL1        0.1387
     26 C         -11.6374  -17.6331   23.1944 C.ar    1  UNL1        0.0555
     27 C         -13.0637  -17.2683   22.9071 C.ar    1  UNL1        0.1424
     28 F         -13.4004  -16.4600   21.6892 F       1  UNL1       -0.2043
     29 C         -14.1533  -17.7120   23.8376 C.ar    1  UNL1        0.0591
     30 C         -13.8166  -18.5203   25.0555 C.ar    1  UNL1        0.1446
     31 F         -14.9063  -18.9640   25.9860 F       1  UNL1       -0.2040
     32 C         -12.3903  -18.8851   25.3428 C.ar    1  UNL1        0.0591
     33 C         -11.3007  -18.4415   24.4123 C.ar    1  UNL1        0.1424
     34 F          -9.8744  -18.8062   24.6996 F       1  UNL1       -0.2043
@<TRIPOS>BOND
     1    23    24    1
     2    24    13    1
     3    13    14   ar
     4    14    15   ar
     5    15    16   ar
     6    16    17   ar
     7    17    12    1
     8    12     1    1
     9     1     2   ar
    10     2     3   ar
    11     3     4   ar
    12     4     5   ar
    13     5     6   ar
    14     5     7   ar
    15     7     8    2
    16     7     9   ar
    17     9    10   ar
    18    10    11   ar
    19    11    25    1
    20    25    26    1
    21    26    27   ar
    22    27    28    1
    23    27    29   ar
    24    29    30   ar
    25    30    31    1
    26    30    32   ar
    27    32    33   ar
    28    33    34    1
    29    17    18   ar
    30    18    19    1
    31    19    20    1
    32    19    21    1
    33    19    22    1
    34    18    13   ar
    35     6     1   ar
    36    33    26   ar
    37    11     4   ar
@<TRIPOS>MOLECULE
*****
 34 37 0 0 0
SMALL
GASTEIGER

@<TRIPOS>ATOM
      1 C          -5.8224  -19.0752   21.5162 C.ar    1  UNL1        0.1474
      2 C          -6.0556  -18.0400   22.5763 C.ar    1  UNL1        0.0390
      3 C          -7.4239  -17.4550   22.7651 C.ar    1  UNL1        0.0205
      4 C          -8.5589  -17.9052   21.8939 C.ar    1  UNL1        0.0662
      5 C          -8.3256  -18.9404   20.8338 C.ar    1  UNL1        0.0767
      6 C          -6.9574  -19.5254   20.6449 C.ar    1  UNL1        0.0438
      7 C          -9.4607  -19.3907   19.9626 C.ar    1  UNL1        0.2820
      8 O          -9.2274  -20.4259   18.9025 O.2     1  UNL1       -0.2651
      9 N         -10.8289  -18.8057   20.1514 N.ar    1  UNL1       -0.1873
     10 C         -11.0621  -17.7704   21.2116 C.ar    1  UNL1        0.1819
     11 N          -9.9271  -17.3201   22.0828 N.ar    1  UNL1       -0.3057
     12 O          -4.4542  -19.6603   21.3273 O.3     1  UNL1       -0.4360
     13 C          -1.3956  -17.5367   19.9540 C.ar    1  UNL1        0.1487
     14 C          -1.5564  -17.7315   18.4755 C.ar    1  UNL1        0.0577
     15 C          -2.6831  -18.5691   17.9475 C.ar    1  UNL1        0.1052
     16 N          -3.6491  -19.2121   18.8981 N.ar    1  UNL1       -0.2097
     17 C          -3.4883  -19.0173   20.3767 C.ar    1  UNL1        0.2365
     18 C          -2.3615  -18.1796   20.9046 C.ar    1  UNL1        0.1586
     19 C          -2.2006  -17.9849   22.3832 C.3     1  UNL1        0.4257
     20 F          -2.0398  -17.7902   23.8618 F       1  UNL1       -0.1656
     21 F          -1.5047  -19.3100   22.4820 F       1  UNL1       -0.1656
     22 F          -2.8966  -16.6598   22.2844 F       1  UNL1       -0.1656
     23 C           1.1447  -17.1895   20.3744 C.3     1  UNL1        0.2525
     24 O          -0.2689  -16.6991   20.4820 O.3     1  UNL1       -0.4713
     25 C         -10.1603  -16.2849   23.1429 C.3     1  UNL1        0.1387
     26 C          -9.3726  -16.3272   24.4187 C.ar    1  UNL1        0.0555
     27 C          -9.6314  -17.4094   25.4245 C.ar    1  UNL1        0.1424
     28 F         -10.6781  -18.4494   25.1546 F       1  UNL1       -0.2043
     29 C          -8.8437  -17.4516   26.7003 C.ar    1  UNL1        0.0591
     30 C          -7.7970  -16.4116   26.9702 C.ar    1  UNL1        0.1446
     31 F          -7.0092  -16.4539   28.2461 F       1  UNL1       -0.2040
     32 C          -7.5381  -15.3294   25.9644 C.ar    1  UNL1        0.0591
     33 C          -8.3259  -15.2872   24.6887 C.ar    1  UNL1        0.1424
     34 F          -8.0671  -14.2049   23.6828 F       1  UNL1       -0.2043
@<TRIPOS>BOND
     1    23    24    1
     2    24    13    1
     3    13    14   ar
     4    14    15   ar
     5    15    16   ar
     6    16    17   ar
     7    17    12    1
     8    12     1    1
     9     1     2   ar
    10     2     3   ar
    11     3     4   ar
    12     4     5   ar
    13     5     6   ar
    14     5     7   ar
    15     7     8    2
    16     7     9   ar
    17     9    10   ar
    18    10    11   ar
    19    11    25    1
    20    25    26    1
    21    26    27   ar
    22    27    28    1
    23    27    29   ar
    24    29    30   ar
    25    30    31    1
    26    30    32   ar
    27    32    33   ar
    28    33    34    1
    29    17    18   ar
    30    18    19    1
    31    19    20    1
    32    19    21    1
    33    19    22    1
    34    18    13   ar
    35     6     1   ar
    36    33    26   ar
    37    11     4   ar
@<TRIPOS>MOLECULE
*****
 34 37 0 0 0
SMALL
GASTEIGER

@<TRIPOS>ATOM
      1 C           3.8447   -2.0191   22.2708 C.ar    1  UNL1        0.1474
      2 C           3.0843   -0.8071   22.7209 C.ar    1  UNL1        0.0390
      3 C           3.2819   -0.2700   24.1074 C.ar    1  UNL1        0.0205
      4 C           4.2399   -0.9449   25.0437 C.ar    1  UNL1        0.0662
      5 C           5.0003   -2.1569   24.5936 C.ar    1  UNL1        0.0767
      6 C           4.8027   -2.6940   23.2071 C.ar    1  UNL1        0.0438
      7 C           5.9583   -2.8318   25.5299 C.ar    1  UNL1        0.2820
      8 O           6.7187   -4.0439   25.0798 O.2     1  UNL1       -0.2651
      9 N           6.1559   -2.2947   26.9164 N.ar    1  UNL1       -0.1873
     10 C           5.3954   -1.0826   27.3667 C.ar    1  UNL1        0.1819
     11 N           4.4374   -0.4077   26.4303 N.ar    1  UNL1       -0.3057
     12 O           3.6472   -2.5563   20.8842 O.3     1  UNL1       -0.4360
     13 C           5.1898   -0.6503   17.7637 C.ar    1  UNL1        0.1487
     14 C           4.0198    0.1848   17.3349 C.ar    1  UNL1        0.0577
     15 C           2.7257    0.1062   18.0892 C.ar    1  UNL1        0.1052
     16 N           2.6015   -0.8075   19.2724 N.ar    1  UNL1       -0.2097
     17 C           3.7714   -1.6426   19.7011 C.ar    1  UNL1        0.2365
     18 C           5.0656   -1.5640   18.9468 C.ar    1  UNL1        0.1586
     19 C           6.2355   -2.3991   19.3755 C.3     1  UNL1        0.4257
     20 F           7.4054   -3.2342   19.8043 F       1  UNL1       -0.1656
     21 F           6.6743   -1.3070   20.3054 F       1  UNL1       -0.1656
     22 F           5.7967   -3.4912   18.4456 F       1  UNL1       -0.1656
     23 C           7.2399    0.7225   16.9498 C.3     1  UNL1        0.2525
     24 O           6.4839   -0.5717   17.0094 O.3     1  UNL1       -0.4713
     25 C           3.6770    0.8044   26.8805 C.3     1  UNL1        0.1387
     26 C           2.2577    0.6689   27.3468 C.ar    1  UNL1        0.0555
     27 C           1.1537    1.3549   26.5982 C.ar    1  UNL1        0.1424
     28 F           1.4688    2.1764   25.3833 F       1  UNL1       -0.2043
     29 C          -0.2655    1.2195   27.0645 C.ar    1  UNL1        0.0591
     30 C          -0.5807    0.3981   28.2794 C.ar    1  UNL1        0.1446
     31 F          -1.9999    0.2627   28.7457 F       1  UNL1       -0.2040
     32 C           0.5234   -0.2879   29.0279 C.ar    1  UNL1        0.0591
     33 C           1.9426   -0.1525   28.5616 C.ar    1  UNL1        0.1424
     34 F           3.0468   -0.8385   29.3102 F       1  UNL1       -0.2043
@<TRIPOS>BOND
     1    23    24    1
     2    24    13    1
     3    13    14   ar
     4    14    15   ar
     5    15    16   ar
     6    16    17   ar
     7    17    12    1
     8    12     1    1
     9     1     2   ar
    10     2     3   ar
    11     3     4   ar
    12     4     5   ar
    13     5     6   ar
    14     5     7   ar
    15     7     8    2
    16     7     9   ar
    17     9    10   ar
    18    10    11   ar
    19    11    25    1
    20    25    26    1
    21    26    27   ar
    22    27    28    1
    23    27    29   ar
    24    29    30   ar
    25    30    31    1
    26    30    32   ar
    27    32    33   ar
    28    33    34    1
    29    17    18   ar
    30    18    19    1
    31    19    20    1
    32    19    21    1
    33    19    22    1
    34    18    13   ar
    35     6     1   ar
    36    33    26   ar
    37    11     4   ar
