@<TRIPOS>MOLECULE
*****
 34 37 0 0 0
SMALL
GASTEIGER

@<TRIPOS>ATOM
      1 C         -10.3300  -19.1199   22.2597 C.ar    1  UNL1        0.0951
      2 C         -11.3932  -18.6677   21.3032 C.ar    1  UNL1        0.1454
      3 F         -12.7067  -18.1650   21.8248 F       1  UNL1       -0.2040
      4 C         -11.1429  -18.7181   19.8251 C.ar    1  UNL1        0.0312
      5 C          -9.8294  -19.2207   19.3035 C.ar    1  UNL1        0.0204
      6 C          -8.7662  -19.6730   20.2601 C.ar    1  UNL1        0.0924
      7 C          -9.0164  -19.6226   21.7382 C.ar    1  UNL1        0.1598
      8 F          -7.9532  -20.0748   22.6947 F       1  UNL1       -0.2026
      9 C         -10.5802  -19.0695   23.7378 C.2     1  UNL1        0.2036
     10 O         -11.6094  -19.9692   24.3554 O.2     1  UNL1       -0.2863
     11 C          -7.8904  -15.1834   22.5634 C.2     1  UNL1        0.1673
     12 C          -7.2800  -14.5149   23.7594 C.2     1  UNL1        0.2683
     13 N          -7.5306  -15.0616   25.1335 N.2     1  UNL1       -0.0278
     14 C          -8.3917  -16.2768   25.3117 C.2     1  UNL1        0.3723
     15 N          -8.8135  -17.0377   26.5336 N.2     1  UNL1       -0.0307
     16 C          -9.6847  -18.1765   26.0927 C.2     1  UNL1        0.2390
     17 C          -9.8013  -18.1194   24.5984 C.2     1  UNL1        0.0897
     18 C          -9.0022  -16.9453   24.1157 C.2     1  UNL1        0.0806
     19 C          -8.7515  -16.3986   22.7415 C.3     1  UNL1        0.1023
     20 C          -8.7694  -14.0434   20.4005 C.3     1  UNL1        0.2522
     21 O          -7.6398  -14.6366   21.1892 O.2     1  UNL1       -0.4715
     22 N          -7.4527  -20.1756   19.7385 N.pl3   1  UNL1       -0.2127
     23 H          -7.4306  -20.7845   18.9652 H       1  UNL1        0.1738
     24 S          -6.1728  -19.7505   20.3951 S.O2    1  UNL1        0.0759
     25 O          -6.5128  -18.3142   20.1282 O.2     1  UNL1       -0.1499
     26 O          -5.8327  -21.1868   20.6620 O.2     1  UNL1       -0.1499
     27 C          -4.8928  -19.3255   21.0517 C.ar    1  UNL1        0.1547
     28 C          -4.9158  -18.7481   22.4359 C.ar    1  UNL1        0.0521
     29 C          -3.6359  -18.3230   23.0926 C.ar    1  UNL1        0.1416
     30 F          -3.6589  -17.7456   24.4768 F       1  UNL1       -0.2041
     31 C          -2.3330  -18.4754   22.3650 C.ar    1  UNL1        0.0320
     32 C          -2.3100  -19.0528   20.9808 C.ar    1  UNL1        0.0333
     33 C          -3.5899  -19.4778   20.3242 C.ar    1  UNL1        0.1590
     34 F          -3.5670  -20.0553   18.9400 F       1  UNL1       -0.2027
@<TRIPOS>BOND
     1    20    21    1
     2    21    11    1
     3    11    12    2
     4    12    13    1
     5    13    14    2
     6    14    15    1
     7    15    16    2
     8    16    17    1
     9    17     9    1
    10     9    10    2
    11     9     1    1
    12     1     2   ar
    13     2     3    1
    14     2     4   ar
    15     4     5   ar
    16     5     6   ar
    17     6    22    1
    18    22    24    1
    19    24    25    2
    20    24    26    2
    21    24    27    1
    22    27    28   ar
    23    28    29   ar
    24    29    30    1
    25    29    31   ar
    26    31    32   ar
    27    32    33   ar
    28    33    34    1
    29     6     7   ar
    30     7     8    1
    31    17    18    2
    32    18    19    1
    33    19    11    1
    34    18    14    1
    35     7     1   ar
    36    33    27   ar
    37    22    23    1
@<TRIPOS>MOLECULE
*****
 34 37 0 0 0
SMALL
GASTEIGER

@<TRIPOS>ATOM
      1 C          -7.8627  -15.9612   25.1825 C.ar    1  UNL1        0.0951
      2 C          -7.6852  -15.5655   26.6184 C.ar    1  UNL1        0.1454
      3 F          -8.8846  -15.3939   27.5027 F       1  UNL1       -0.2040
      4 C          -6.3085  -15.3414   27.1699 C.ar    1  UNL1        0.0312
      5 C          -5.1091  -15.5130   26.2856 C.ar    1  UNL1        0.0204
      6 C          -5.2866  -15.9087   24.8496 C.ar    1  UNL1        0.0924
      7 C          -6.6634  -16.1328   24.2980 C.ar    1  UNL1        0.1598
      8 F          -6.8408  -16.5286   22.8621 F       1  UNL1       -0.2026
      9 C          -9.2395  -16.1854   24.6309 C.2     1  UNL1        0.2036
     10 O         -10.1615  -15.0212   24.4197 O.2     1  UNL1       -0.2863
     11 C         -11.1509  -17.9955   20.5338 C.2     1  UNL1        0.1673
     12 C         -11.4644  -19.4589   20.6346 C.2     1  UNL1        0.2683
     13 N         -11.1822  -20.2004   21.9076 N.2     1  UNL1       -0.0278
     14 C         -10.5866  -19.4786   23.0798 C.2     1  UNL1        0.3723
     15 N         -10.2015  -19.9415   24.4536 N.2     1  UNL1       -0.0307
     16 C          -9.6500  -18.7642   25.2019 C.2     1  UNL1        0.2390
     17 C          -9.6942  -17.5737   24.2905 C.2     1  UNL1        0.0897
     18 C         -10.2731  -18.0152   22.9790 C.2     1  UNL1        0.0806
     19 C         -10.5553  -17.2737   21.7060 C.3     1  UNL1        0.1023
     20 C         -11.7264  -15.7835   19.2986 C.3     1  UNL1        0.2522
     21 O         -11.4331  -17.2540   19.2608 O.2     1  UNL1       -0.4715
     22 N          -4.0872  -16.0803   23.9653 N.pl3   1  UNL1       -0.2127
     23 H          -3.3498  -15.4293   24.0042 H       1  UNL1        0.1738
     24 S          -4.0115  -17.2438   23.0216 S.O2    1  UNL1        0.0759
     25 O          -3.7300  -16.3048   21.8863 O.2     1  UNL1       -0.1499
     26 O          -4.2931  -18.1829   24.1568 O.2     1  UNL1       -0.1499
     27 C          -3.9358  -18.4074   22.0779 C.ar    1  UNL1        0.1547
     28 C          -5.1951  -19.0557   21.5842 C.ar    1  UNL1        0.0521
     29 C          -5.1195  -20.2192   20.6405 C.ar    1  UNL1        0.1416
     30 F          -6.3788  -20.8675   20.1468 F       1  UNL1       -0.2041
     31 C          -3.7845  -20.7344   20.1906 C.ar    1  UNL1        0.0320
     32 C          -2.5252  -20.0861   20.6843 C.ar    1  UNL1        0.0333
     33 C          -2.6008  -18.9226   21.6280 C.ar    1  UNL1        0.1590
     34 F          -1.3416  -18.2742   22.1218 F       1  UNL1       -0.2027
@<TRIPOS>BOND
     1    20    21    1
     2    21    11    1
     3    11    12    2
     4    12    13    1
     5    13    14    2
     6    14    15    1
     7    15    16    2
     8    16    17    1
     9    17     9    1
    10     9    10    2
    11     9     1    1
    12     1     2   ar
    13     2     3    1
    14     2     4   ar
    15     4     5   ar
    16     5     6   ar
    17     6    22    1
    18    22    24    1
    19    24    25    2
    20    24    26    2
    21    24    27    1
    22    27    28   ar
    23    28    29   ar
    24    29    30    1
    25    29    31   ar
    26    31    32   ar
    27    32    33   ar
    28    33    34    1
    29     6     7   ar
    30     7     8    1
    31    17    18    2
    32    18    19    1
    33    19    11    1
    34    18    14    1
    35     7     1   ar
    36    33    27   ar
    37    22    23    1
@<TRIPOS>MOLECULE
*****
 34 37 0 0 0
SMALL
GASTEIGER

@<TRIPOS>ATOM
      1 C          -8.3493  -16.9939   25.4095 C.ar    1  UNL1        0.0951
      2 C          -8.3897  -16.6900   26.8778 C.ar    1  UNL1        0.1454
      3 F          -9.4816  -17.2623   27.7323 F       1  UNL1       -0.2040
      4 C          -7.3383  -15.8138   27.4916 C.ar    1  UNL1        0.0312
      5 C          -6.2463  -15.2415   26.6371 C.ar    1  UNL1        0.0204
      6 C          -6.2060  -15.5454   25.1687 C.ar    1  UNL1        0.0924
      7 C          -7.2574  -16.4216   24.5549 C.ar    1  UNL1        0.1598
      8 F          -7.2170  -16.7254   23.0866 F       1  UNL1       -0.2026
      9 C          -9.4008  -17.8700   24.7957 C.2     1  UNL1        0.2036
     10 O          -9.8145  -19.1382   25.4817 O.2     1  UNL1       -0.2863
     11 C          -8.6397  -19.4781   20.2624 C.2     1  UNL1        0.1673
     12 C          -9.5123  -18.7983   19.2493 C.2     1  UNL1        0.2683
     13 N         -10.4872  -17.7450   19.6854 N.2     1  UNL1       -0.0278
     14 C         -10.5894  -17.3715   21.1345 C.2     1  UNL1        0.3723
     15 N         -11.4505  -16.3780   21.8566 N.2     1  UNL1       -0.0307
     16 C         -11.1100  -16.4438   23.3160 C.2     1  UNL1        0.2390
     17 C         -10.0385  -17.4780   23.4959 C.2     1  UNL1        0.0897
     18 C          -9.7168  -18.0513   22.1476 C.2     1  UNL1        0.0806
     19 C          -8.7419  -19.1047   21.7115 C.3     1  UNL1        0.1023
     20 C          -6.2682  -20.5334   20.3734 C.3     1  UNL1        0.2522
     21 O          -7.6648  -20.5314   19.8263 O.2     1  UNL1       -0.4715
     22 N          -5.1140  -14.9731   24.3142 N.pl3   1  UNL1       -0.2127
     23 H          -4.9375  -14.0046   24.3243 H       1  UNL1        0.1738
     24 S          -4.2911  -15.8764   23.4443 S.O2    1  UNL1        0.0759
     25 O          -4.3443  -14.8621   22.3406 O.2     1  UNL1       -0.1499
     26 O          -4.2378  -16.8908   24.5480 O.2     1  UNL1       -0.1499
     27 C          -3.4680  -16.7798   22.5744 C.ar    1  UNL1        0.1547
     28 C          -2.2396  -16.2515   21.8948 C.ar    1  UNL1        0.0521
     29 C          -1.4166  -17.1548   21.0249 C.ar    1  UNL1        0.1416
     30 F          -0.1882  -16.6265   20.3453 F       1  UNL1       -0.2041
     31 C          -1.8220  -18.5864   20.8347 C.ar    1  UNL1        0.0320
     32 C          -3.0504  -19.1147   21.5143 C.ar    1  UNL1        0.0333
     33 C          -3.8734  -18.2114   22.3841 C.ar    1  UNL1        0.1590
     34 F          -5.1018  -18.7396   23.0638 F       1  UNL1       -0.2027
@<TRIPOS>BOND
     1    20    21    1
     2    21    11    1
     3    11    12    2
     4    12    13    1
     5    13    14    2
     6    14    15    1
     7    15    16    2
     8    16    17    1
     9    17     9    1
    10     9    10    2
    11     9     1    1
    12     1     2   ar
    13     2     3    1
    14     2     4   ar
    15     4     5   ar
    16     5     6   ar
    17     6    22    1
    18    22    24    1
    19    24    25    2
    20    24    26    2
    21    24    27    1
    22    27    28   ar
    23    28    29   ar
    24    29    30    1
    25    29    31   ar
    26    31    32   ar
    27    32    33   ar
    28    33    34    1
    29     6     7   ar
    30     7     8    1
    31    17    18    2
    32    18    19    1
    33    19    11    1
    34    18    14    1
    35     7     1   ar
    36    33    27   ar
    37    22    23    1
@<TRIPOS>MOLECULE
*****
 34 37 0 0 0
SMALL
GASTEIGER

@<TRIPOS>ATOM
      1 C          -6.8404  -16.3251   23.9364 C.ar    1  UNL1        0.0951
      2 C          -6.6985  -15.4854   25.1711 C.ar    1  UNL1        0.1454
      3 F          -7.8052  -14.5587   25.5792 F       1  UNL1       -0.2040
      4 C          -5.4498  -15.5722   25.9978 C.ar    1  UNL1        0.0312
      5 C          -4.3431  -16.4988   25.5897 C.ar    1  UNL1        0.0204
      6 C          -4.4851  -17.3386   24.3549 C.ar    1  UNL1        0.0924
      7 C          -5.7337  -17.2518   23.5283 C.ar    1  UNL1        0.1598
      8 F          -5.8756  -18.0916   22.2936 F       1  UNL1       -0.2026
      9 C          -8.0890  -16.2383   23.1097 C.2     1  UNL1        0.2036
     10 O          -8.1161  -15.3800   21.8799 O.2     1  UNL1       -0.2863
     11 C         -12.4632  -16.6061   21.0008 C.2     1  UNL1        0.1673
     12 C         -13.4009  -17.4997   21.7572 C.2     1  UNL1        0.2683
     13 N         -12.9457  -18.1659   23.0217 N.2     1  UNL1       -0.0278
     14 C         -11.5529  -17.9386   23.5298 C.2     1  UNL1        0.3723
     15 N         -10.8278  -18.4558   24.7368 N.2     1  UNL1       -0.0307
     16 C          -9.4420  -17.8818   24.7264 C.2     1  UNL1        0.2390
     17 C          -9.3106  -17.0099   23.5129 C.2     1  UNL1        0.0897
     18 C         -10.6152  -17.0450   22.7734 C.2     1  UNL1        0.0806
     19 C         -11.0704  -16.3788   21.5089 C.3     1  UNL1        0.1023
     20 C         -11.9102  -15.3595   18.7895 C.3     1  UNL1        0.2522
     21 O         -12.9184  -15.9398   19.7364 O.2     1  UNL1       -0.4715
     22 N          -3.3783  -18.2652   23.9469 N.pl3   1  UNL1       -0.2127
     23 H          -3.0553  -18.9523   24.5737 H       1  UNL1        0.1738
     24 S          -2.7638  -18.1451   22.5839 S.O2    1  UNL1        0.0759
     25 O          -3.0354  -19.5987   22.3332 O.2     1  UNL1       -0.1499
     26 O          -2.4921  -16.6913   22.8345 O.2     1  UNL1       -0.1499
     27 C          -2.1491  -18.0248   21.2208 C.ar    1  UNL1        0.1547
     28 C          -0.7425  -17.5251   21.0739 C.ar    1  UNL1        0.0521
     29 C          -0.1278  -17.4049   19.7109 C.ar    1  UNL1        0.1416
     30 F           1.2788  -16.9051   19.5639 F       1  UNL1       -0.2041
     31 C          -0.9198  -17.7843   18.4948 C.ar    1  UNL1        0.0320
     32 C          -2.3265  -18.2841   18.6418 C.ar    1  UNL1        0.0333
     33 C          -2.9411  -18.4043   20.0047 C.ar    1  UNL1        0.1590
     34 F          -4.3477  -18.9040   20.1518 F       1  UNL1       -0.2027
@<TRIPOS>BOND
     1    20    21    1
     2    21    11    1
     3    11    12    2
     4    12    13    1
     5    13    14    2
     6    14    15    1
     7    15    16    2
     8    16    17    1
     9    17     9    1
    10     9    10    2
    11     9     1    1
    12     1     2   ar
    13     2     3    1
    14     2     4   ar
    15     4     5   ar
    16     5     6   ar
    17     6    22    1
    18    22    24    1
    19    24    25    2
    20    24    26    2
    21    24    27    1
    22    27    28   ar
    23    28    29   ar
    24    29    30    1
    25    29    31   ar
    26    31    32   ar
    27    32    33   ar
    28    33    34    1
    29     6     7   ar
    30     7     8    1
    31    17    18    2
    32    18    19    1
    33    19    11    1
    34    18    14    1
    35     7     1   ar
    36    33    27   ar
    37    22    23    1
@<TRIPOS>MOLECULE
*****
 34 37 0 0 0
SMALL
GASTEIGER

@<TRIPOS>ATOM
      1 C          -8.4014  -17.5303   24.3592 C.ar    1  UNL1        0.0951
      2 C          -8.9207  -17.1720   25.7200 C.ar    1  UNL1        0.1454
      3 F         -10.1736  -17.8143   26.2376 F       1  UNL1       -0.2040
      4 C          -8.1873  -16.1715   26.5633 C.ar    1  UNL1        0.0312
      5 C          -6.9345  -15.5293   26.0457 C.ar    1  UNL1        0.0204
      6 C          -6.4151  -15.8876   24.6848 C.ar    1  UNL1        0.0924
      7 C          -7.1485  -16.8881   23.8416 C.ar    1  UNL1        0.1598
      8 F          -6.6291  -17.2463   22.4807 F       1  UNL1       -0.2026
      9 C          -9.1348  -18.5308   23.5160 C.2     1  UNL1        0.2036
     10 O          -8.4565  -19.8027   23.1009 O.2     1  UNL1       -0.2863
     11 C         -10.9092  -15.5434   20.1038 C.2     1  UNL1        0.1673
     12 C         -12.4056  -15.5886   20.0115 C.2     1  UNL1        0.2683
     13 N         -13.1861  -16.4925   20.9192 N.2     1  UNL1       -0.0278
     14 C         -12.4701  -17.3510   21.9193 C.2     1  UNL1        0.3723
     15 N         -12.9679  -18.3327   22.9384 N.2     1  UNL1       -0.0307
     16 C         -11.7791  -18.8942   23.6605 C.2     1  UNL1        0.2390
     17 C         -10.5465  -18.2595   23.0878 C.2     1  UNL1        0.0897
     18 C         -10.9737  -17.3057   22.0116 C.2     1  UNL1        0.0806
     19 C         -10.1932  -16.4019   21.1039 C.3     1  UNL1        0.1023
     20 C          -9.0791  -13.7308   19.7639 C.3     1  UNL1        0.2522
     21 O         -10.1287  -14.6396   19.1961 O.2     1  UNL1       -0.4715
     22 N          -5.1623  -15.2453   24.1672 N.pl3   1  UNL1       -0.2127
     23 H          -4.9690  -14.3032   24.3777 H       1  UNL1        0.1738
     24 S          -4.2040  -16.0384   23.3290 S.O2    1  UNL1        0.0759
     25 O          -4.2719  -14.9896   22.2589 O.2     1  UNL1       -0.1499
     26 O          -4.1360  -17.0873   24.3991 O.2     1  UNL1       -0.1499
     27 C          -3.2457  -16.8316   22.4908 C.ar    1  UNL1        0.1547
     28 C          -2.1428  -16.1349   21.7503 C.ar    1  UNL1        0.0521
     29 C          -1.1845  -16.9281   20.9121 C.ar    1  UNL1        0.1416
     30 F          -0.0816  -16.2314   20.1717 F       1  UNL1       -0.2041
     31 C          -1.3290  -18.4179   20.8144 C.ar    1  UNL1        0.0320
     32 C          -2.4319  -19.1146   21.5548 C.ar    1  UNL1        0.0333
     33 C          -3.3902  -18.3215   22.3930 C.ar    1  UNL1        0.1590
     34 F          -4.4931  -19.0181   23.1335 F       1  UNL1       -0.2027
@<TRIPOS>BOND
     1    20    21    1
     2    21    11    1
     3    11    12    2
     4    12    13    1
     5    13    14    2
     6    14    15    1
     7    15    16    2
     8    16    17    1
     9    17     9    1
    10     9    10    2
    11     9     1    1
    12     1     2   ar
    13     2     3    1
    14     2     4   ar
    15     4     5   ar
    16     5     6   ar
    17     6    22    1
    18    22    24    1
    19    24    25    2
    20    24    26    2
    21    24    27    1
    22    27    28   ar
    23    28    29   ar
    24    29    30    1
    25    29    31   ar
    26    31    32   ar
    27    32    33   ar
    28    33    34    1
    29     6     7   ar
    30     7     8    1
    31    17    18    2
    32    18    19    1
    33    19    11    1
    34    18    14    1
    35     7     1   ar
    36    33    27   ar
    37    22    23    1
@<TRIPOS>MOLECULE
*****
 34 37 0 0 0
SMALL
GASTEIGER

@<TRIPOS>ATOM
      1 C           3.8855   -1.6297   19.1365 C.ar    1  UNL1        0.0951
      2 C           4.9994   -1.0000   18.3539 C.ar    1  UNL1        0.1454
      3 F           6.2443   -1.7830   18.0587 F       1  UNL1       -0.2040
      4 C           4.8685    0.4125   17.8664 C.ar    1  UNL1        0.0312
      5 C           3.6236    1.1955   18.1616 C.ar    1  UNL1        0.0204
      6 C           2.5096    0.5658   18.9444 C.ar    1  UNL1        0.0924
      7 C           2.6405   -0.8467   19.4318 C.ar    1  UNL1        0.1598
      8 F           1.5265   -1.4763   20.2145 F       1  UNL1       -0.2026
      9 C           4.0164   -3.0422   19.6240 C.2     1  UNL1        0.2036
     10 O           3.0488   -4.0892   19.1577 O.2     1  UNL1       -0.2863
     11 C           4.5796   -2.0588   24.3603 C.2     1  UNL1        0.1673
     12 C           5.8468   -2.6277   24.9263 C.2     1  UNL1        0.2683
     13 N           6.7796   -3.4043   24.0449 N.2     1  UNL1       -0.0278
     14 C           6.4452   -3.6119   22.5975 C.2     1  UNL1        0.3723
     15 N           7.1653   -4.3281   21.4937 N.2     1  UNL1       -0.0307
     16 C           6.3431   -4.2019   20.2454 C.2     1  UNL1        0.2390
     17 C           5.1149   -3.4077   20.5778 C.2     1  UNL1        0.0897
     18 C           5.1780   -3.0430   22.0315 C.2     1  UNL1        0.0806
     19 C           4.2452   -2.2665   22.9129 C.3     1  UNL1        0.1023
     20 C           3.8407   -1.2887   26.7290 C.3     1  UNL1        0.2522
     21 O           3.6468   -1.2823   25.2417 O.2     1  UNL1       -0.4715
     22 N           1.2647    1.3488   19.2396 N.pl3   1  UNL1       -0.2127
     23 H           0.7140    1.6948   18.5005 H       1  UNL1        0.1738
     24 S           0.8589    1.6045   20.6608 S.O2    1  UNL1        0.0759
     25 O          -0.3607    0.7535   20.4658 O.2     1  UNL1       -0.1499
     26 O           2.0785    2.4556   20.8559 O.2     1  UNL1       -0.1499
     27 C           0.4531    1.8603   22.0821 C.ar    1  UNL1        0.1547
     28 C          -0.5202    2.9570   22.3983 C.ar    1  UNL1        0.0521
     29 C          -0.9260    3.2128   23.8195 C.ar    1  UNL1        0.1416
     30 F          -1.8993    4.3095   24.1358 F       1  UNL1       -0.2041
     31 C          -0.3584    2.3721   24.9245 C.ar    1  UNL1        0.0320
     32 C           0.6149    1.2754   24.6083 C.ar    1  UNL1        0.0333
     33 C           1.0206    1.0196   23.1871 C.ar    1  UNL1        0.1590
     34 F           1.9939   -0.0771   22.8708 F       1  UNL1       -0.2027
@<TRIPOS>BOND
     1    20    21    1
     2    21    11    1
     3    11    12    2
     4    12    13    1
     5    13    14    2
     6    14    15    1
     7    15    16    2
     8    16    17    1
     9    17     9    1
    10     9    10    2
    11     9     1    1
    12     1     2   ar
    13     2     3    1
    14     2     4   ar
    15     4     5   ar
    16     5     6   ar
    17     6    22    1
    18    22    24    1
    19    24    25    2
    20    24    26    2
    21    24    27    1
    22    27    28   ar
    23    28    29   ar
    24    29    30    1
    25    29    31   ar
    26    31    32   ar
    27    32    33   ar
    28    33    34    1
    29     6     7   ar
    30     7     8    1
    31    17    18    2
    32    18    19    1
    33    19    11    1
    34    18    14    1
    35     7     1   ar
    36    33    27   ar
    37    22    23    1
@<TRIPOS>MOLECULE
*****
 34 37 0 0 0
SMALL
GASTEIGER

@<TRIPOS>ATOM
      1 C           5.1080   -3.2724   22.8285 C.ar    1  UNL1        0.0951
      2 C           4.2766   -2.2240   23.5065 C.ar    1  UNL1        0.1454
      3 F           3.1038   -1.6196   22.7928 F       1  UNL1       -0.2040
      4 C           4.6179   -1.7801   24.8980 C.ar    1  UNL1        0.0312
      5 C           5.7907   -2.3846   25.6117 C.ar    1  UNL1        0.0204
      6 C           6.6221   -3.4330   24.9336 C.ar    1  UNL1        0.0924
      7 C           6.2808   -3.8769   23.5420 C.ar    1  UNL1        0.1598
      8 F           7.1122   -4.9253   22.8641 F       1  UNL1       -0.2026
      9 C           4.7666   -3.7163   21.4369 C.2     1  UNL1        0.2036
     10 O           3.9768   -4.9735   21.2232 O.2     1  UNL1       -0.2863
     11 C           2.4397   -0.3120   18.8461 C.2     1  UNL1        0.1673
     12 C           3.2787    0.2504   17.7372 C.2     1  UNL1        0.2683
     13 N           4.6778   -0.2485   17.5283 N.2     1  UNL1       -0.0278
     14 C           5.2378   -1.3099   18.4281 C.2     1  UNL1        0.3723
     15 N           6.5728   -1.9929   18.4649 N.2     1  UNL1       -0.0307
     16 C           6.5588   -2.9774   19.5964 C.2     1  UNL1        0.2390
     17 C           5.2152   -2.9030   20.2591 C.2     1  UNL1        0.0897
     18 C           4.3987   -1.8723   19.5370 C.2     1  UNL1        0.0806
     19 C           2.9997   -1.3734   19.7459 C.3     1  UNL1        0.1023
     20 C           0.4384    0.1778   20.4288 C.3     1  UNL1        0.2522
     21 O           1.0406    0.1869   19.0551 O.2     1  UNL1       -0.4715
     22 N           7.7948   -4.0375   25.6472 N.pl3   1  UNL1       -0.2127
     23 H           8.6309   -4.2142   25.1583 H       1  UNL1        0.1738
     24 S           7.6938   -4.3728   27.1058 S.O2    1  UNL1        0.0759
     25 O           8.6871   -3.2946   27.4226 O.2     1  UNL1       -0.1499
     26 O           6.7003   -5.4511   26.7890 O.2     1  UNL1       -0.1499
     27 C           7.5926   -4.7082   28.5644 C.ar    1  UNL1        0.1547
     28 C           6.7557   -3.8576   29.4732 C.ar    1  UNL1        0.0521
     29 C           6.6545   -4.1929   30.9317 C.ar    1  UNL1        0.1416
     30 F           5.8175   -3.3423   31.8405 F       1  UNL1       -0.2041
     31 C           7.3903   -5.3788   31.4814 C.ar    1  UNL1        0.0320
     32 C           8.2273   -6.2294   30.5726 C.ar    1  UNL1        0.0333
     33 C           8.3285   -5.8941   29.1141 C.ar    1  UNL1        0.1590
     34 F           9.1654   -6.7446   28.2053 F       1  UNL1       -0.2027
@<TRIPOS>BOND
     1    20    21    1
     2    21    11    1
     3    11    12    2
     4    12    13    1
     5    13    14    2
     6    14    15    1
     7    15    16    2
     8    16    17    1
     9    17     9    1
    10     9    10    2
    11     9     1    1
    12     1     2   ar
    13     2     3    1
    14     2     4   ar
    15     4     5   ar
    16     5     6   ar
    17     6    22    1
    18    22    24    1
    19    24    25    2
    20    24    26    2
    21    24    27    1
    22    27    28   ar
    23    28    29   ar
    24    29    30    1
    25    29    31   ar
    26    31    32   ar
    27    32    33   ar
    28    33    34    1
    29     6     7   ar
    30     7     8    1
    31    17    18    2
    32    18    19    1
    33    19    11    1
    34    18    14    1
    35     7     1   ar
    36    33    27   ar
    37    22    23    1
@<TRIPOS>MOLECULE
*****
 34 37 0 0 0
SMALL
GASTEIGER

@<TRIPOS>ATOM
      1 C           4.8842   -2.7056   19.8789 C.ar    1  UNL1        0.0951
      2 C           6.2775   -2.5748   19.3390 C.ar    1  UNL1        0.1454
      3 F           7.3850   -3.4088   19.9117 F       1  UNL1       -0.2040
      4 C           6.5634   -1.6102   18.2265 C.ar    1  UNL1        0.0312
      5 C           5.4559   -0.7763   17.6537 C.ar    1  UNL1        0.0204
      6 C           4.0625   -0.9070   18.1937 C.ar    1  UNL1        0.0924
      7 C           3.7766   -1.8717   19.3062 C.ar    1  UNL1        0.1598
      8 F           2.3832   -2.0023   19.8460 F       1  UNL1       -0.2026
      9 C           4.5983   -3.6702   20.9914 C.2     1  UNL1        0.2036
     10 O           3.9226   -4.9765   20.6964 O.2     1  UNL1       -0.2863
     11 C           2.9146   -0.2490   24.0208 C.2     1  UNL1        0.1673
     12 C           3.6013   -0.2632   25.3543 C.2     1  UNL1        0.2683
     13 N           4.6824   -1.2657   25.6306 N.2     1  UNL1       -0.0278
     14 C           5.0768   -2.2540   24.5734 C.2     1  UNL1        0.3723
     15 N           6.0991   -3.3515   24.5567 N.2     1  UNL1       -0.0307
     16 C           6.0443   -4.0156   23.2128 C.2     1  UNL1        0.2390
     17 C           4.9881   -3.3285   22.3990 C.2     1  UNL1        0.0897
     18 C           4.3901   -2.2398   23.2399 C.2     1  UNL1        0.0806
     19 C           3.3090   -1.2373   22.9636 C.3     1  UNL1        0.1023
     20 C           0.7445    0.9786   24.7511 C.3     1  UNL1        0.2522
     21 O           1.8336    0.7534   23.7445 O.2     1  UNL1       -0.4715
     22 N           2.9550   -0.0731   17.6209 N.pl3   1  UNL1       -0.2127
     23 H           2.6945   -0.1813   16.6777 H       1  UNL1        0.1738
     24 S           2.2443    0.9258   18.4853 S.O2    1  UNL1        0.0759
     25 O           3.5650    1.4782   18.9329 O.2     1  UNL1       -0.1499
     26 O           0.9235    0.3733   18.0377 O.2     1  UNL1       -0.1499
     27 C           1.5335    1.9246   19.3497 C.ar    1  UNL1        0.1547
     28 C           1.6154    3.3874   19.0281 C.ar    1  UNL1        0.0521
     29 C           0.9047    4.3863   19.8924 C.ar    1  UNL1        0.1416
     30 F           0.9866    5.8491   19.5708 F       1  UNL1       -0.2041
     31 C           0.1120    3.9224   21.0784 C.ar    1  UNL1        0.0320
     32 C           0.0301    2.4596   21.4000 C.ar    1  UNL1        0.0333
     33 C           0.7408    1.4607   20.5357 C.ar    1  UNL1        0.1590
     34 F           0.6590   -0.0021   20.8572 F       1  UNL1       -0.2027
@<TRIPOS>BOND
     1    20    21    1
     2    21    11    1
     3    11    12    2
     4    12    13    1
     5    13    14    2
     6    14    15    1
     7    15    16    2
     8    16    17    1
     9    17     9    1
    10     9    10    2
    11     9     1    1
    12     1     2   ar
    13     2     3    1
    14     2     4   ar
    15     4     5   ar
    16     5     6   ar
    17     6    22    1
    18    22    24    1
    19    24    25    2
    20    24    26    2
    21    24    27    1
    22    27    28   ar
    23    28    29   ar
    24    29    30    1
    25    29    31   ar
    26    31    32   ar
    27    32    33   ar
    28    33    34    1
    29     6     7   ar
    30     7     8    1
    31    17    18    2
    32    18    19    1
    33    19    11    1
    34    18    14    1
    35     7     1   ar
    36    33    27   ar
    37    22    23    1
@<TRIPOS>MOLECULE
*****
 34 37 0 0 0
SMALL
GASTEIGER

@<TRIPOS>ATOM
      1 C           6.7352   -3.8929   21.3504 C.ar    1  UNL1        0.0951
      2 C           8.2338   -3.8987   21.2872 C.ar    1  UNL1        0.1454
      3 F           8.9282   -3.9262   19.9578 F       1  UNL1       -0.2040
      4 C           9.0381   -3.8771   22.5531 C.ar    1  UNL1        0.0312
      5 C           8.3437   -3.8497   23.8825 C.ar    1  UNL1        0.0204
      6 C           6.8450   -3.8438   23.9457 C.ar    1  UNL1        0.0924
      7 C           6.0407   -3.8655   22.6797 C.ar    1  UNL1        0.1598
      8 F           4.5421   -3.8597   22.7431 F       1  UNL1       -0.2026
      9 C           5.9310   -3.9146   20.0844 C.2     1  UNL1        0.2036
     10 O           5.1099   -5.1211   19.7380 O.2     1  UNL1       -0.2863
     11 C           2.5384   -0.5412   19.1747 C.2     1  UNL1        0.1673
     12 C           2.9857    0.4778   18.1690 C.2     1  UNL1        0.2683
     13 N           4.3544    0.3827   17.5627 N.2     1  UNL1       -0.0278
     14 C           5.2758   -0.7315   17.9620 C.2     1  UNL1        0.3723
     15 N           6.6715   -1.0807   17.5376 N.2     1  UNL1       -0.0307
     16 C           7.0868   -2.3156   18.2810 C.2     1  UNL1        0.2390
     17 C           5.9478   -2.7296   19.1649 C.2     1  UNL1        0.0897
     18 C           4.8285   -1.7506   18.9677 C.2     1  UNL1        0.0806
     19 C           3.4598   -1.6554   19.5741 C.3     1  UNL1        0.1023
     20 C           0.9768    0.2606   21.0900 C.3     1  UNL1        0.2522
     21 O           1.1698   -0.4460   19.7811 O.2     1  UNL1       -0.4715
     22 N           6.1506   -3.8164   25.2750 N.pl3   1  UNL1       -0.2127
     23 H           5.2725   -3.3799   25.3628 H       1  UNL1        0.1738
     24 S           6.7940   -4.4540   26.4706 S.O2    1  UNL1        0.0759
     25 O           6.5195   -5.8114   25.8946 O.2     1  UNL1       -0.1499
     26 O           7.0686   -3.0966   27.0467 O.2     1  UNL1       -0.1499
     27 C           7.4375   -5.0916   27.6663 C.ar    1  UNL1        0.1547
     28 C           6.7112   -5.1287   28.9782 C.ar    1  UNL1        0.0521
     29 C           7.3546   -5.7662   30.1738 C.ar    1  UNL1        0.1416
     30 F           6.6283   -5.8034   31.4857 F       1  UNL1       -0.2041
     31 C           8.7243   -6.3666   30.0576 C.ar    1  UNL1        0.0320
     32 C           9.4506   -6.3295   28.7457 C.ar    1  UNL1        0.0333
     33 C           8.8072   -5.6919   27.5500 C.ar    1  UNL1        0.1590
     34 F           9.5334   -5.6547   26.2381 F       1  UNL1       -0.2027
@<TRIPOS>BOND
     1    20    21    1
     2    21    11    1
     3    11    12    2
     4    12    13    1
     5    13    14    2
     6    14    15    1
     7    15    16    2
     8    16    17    1
     9    17     9    1
    10     9    10    2
    11     9     1    1
    12     1     2   ar
    13     2     3    1
    14     2     4   ar
    15     4     5   ar
    16     5     6   ar
    17     6    22    1
    18    22    24    1
    19    24    25    2
    20    24    26    2
    21    24    27    1
    22    27    28   ar
    23    28    29   ar
    24    29    30    1
    25    29    31   ar
    26    31    32   ar
    27    32    33   ar
    28    33    34    1
    29     6     7   ar
    30     7     8    1
    31    17    18    2
    32    18    19    1
    33    19    11    1
    34    18    14    1
    35     7     1   ar
    36    33    27   ar
    37    22    23    1
