@<TRIPOS>MOLECULE
*****
 28 31 0 0 0
SMALL
GASTEIGER

@<TRIPOS>ATOM
      1 C         -10.5553  -18.2252   22.9448 C.3     1  UNL1        0.1456
      2 C          -9.8690  -19.4586   22.4372 C.2     1  UNL1       -0.0120
      3 C          -8.3866  -19.4518   22.2088 C.2     1  UNL1        0.0126
      4 C          -7.5904  -18.2116   22.4880 C.2     1  UNL1        0.0730
      5 N          -8.2767  -16.9782   22.9957 N.am    1  UNL1       -0.1788
      6 C          -9.7592  -16.9850   23.2241 C.2     1  UNL1        0.2531
      7 O         -10.1008  -16.1242   23.5570 O.2     1  UNL1       -0.2725
      8 C          -6.1079  -18.2048   22.2596 C.ar    1  UNL1        0.0153
      9 C          -5.1820  -17.7706   23.3570 C.ar    1  UNL1        0.0013
     10 C          -3.6995  -17.7638   23.1287 C.ar    1  UNL1        0.0000
     11 C          -3.1428  -18.1911   21.8029 C.ar    1  UNL1        0.0000
     12 C          -1.6604  -18.1843   21.5746 C.ar    1  UNL1        0.0000
     13 C          -1.1038  -18.6116   20.2488 C.ar    1  UNL1        0.0000
     14 C          -2.0297  -19.0458   19.1515 C.ar    1  UNL1        0.0000
     15 C          -3.5121  -19.0526   19.3798 C.ar    1  UNL1        0.0000
     16 C          -4.0687  -18.6253   20.7055 C.ar    1  UNL1        0.0000
     17 C          -5.5513  -18.6321   20.9339 C.ar    1  UNL1        0.0013
     18 C         -12.0379  -18.2320   23.1732 C.3     1  UNL1        0.2169
     19 O         -13.5338  -18.1485   23.1016 O.3     1  UNL1       -0.4320
     20 C         -14.0840  -18.5275   24.4445 C.2     1  UNL1        0.4077
     21 O         -15.5353  -18.5797   24.8200 O.2     1  UNL1       -0.2260
     22 N         -12.9282  -18.8453   25.3462 N.am    1  UNL1       -0.2182
     23 C         -11.6636  -18.6627   24.5605 C.2     1  UNL1        0.2678
     24 O         -10.2694  -18.8737   25.0722 O.2     1  UNL1       -0.2708
     25 H         -12.9889  -19.1247   26.2883 H       1  UNL1        0.1610
     26 C         -11.8701  -18.3371   20.9470 C.3     1  UNL1        0.0041
     27 C         -12.1022  -17.7999   21.7383 C.3     1  UNL1        0.0462
     28 C         -12.5601  -16.4141   21.3921 C.3     1  UNL1        0.0041
@<TRIPOS>BOND
     1    26    27    1
     2    27    28    1
     3    27    18    1
     4    18     1    1
     5     1     2    1
     6     2     3    2
     7     3     4    1
     8     4     8    1
     9     8     9   ar
    10     9    10   ar
    11    10    11   ar
    12    11    12   ar
    13    12    13   ar
    14    13    14   ar
    15    14    15   ar
    16    15    16   ar
    17    16    17   ar
    18     4     5    2
    19     5     6    1
    20     6     7    2
    21    18    19    1
    22    19    20    1
    23    20    21    2
    24    20    22   am
    25    22    23   am
    26    23    24    2
    27    23    18    1
    28     6     1    1
    29    17     8   ar
    30    16    11   ar
    31    22    25    1
@<TRIPOS>MOLECULE
*****
 28 31 0 0 0
SMALL
GASTEIGER

@<TRIPOS>ATOM
      1 C          -9.3482  -18.6050   23.1345 C.3     1  UNL1        0.1456
      2 C          -8.8053  -19.8945   22.5936 C.2     1  UNL1       -0.0120
      3 C          -7.4191  -19.9439   22.0228 C.2     1  UNL1        0.0126
      4 C          -6.5757  -18.7038   21.9929 C.2     1  UNL1        0.0730
      5 N          -7.1186  -17.4143   22.5338 N.am    1  UNL1       -0.1788
      6 C          -8.5049  -17.3649   23.1046 C.2     1  UNL1        0.2531
      7 O          -8.7554  -16.4703   23.4291 O.2     1  UNL1       -0.2725
      8 C          -5.1894  -18.7531   21.4221 C.ar    1  UNL1        0.0153
      9 C          -4.7571  -19.9331   20.6032 C.ar    1  UNL1        0.0013
     10 C          -3.3709  -19.9825   20.0323 C.ar    1  UNL1        0.0000
     11 C          -2.4169  -18.8518   20.2804 C.ar    1  UNL1        0.0000
     12 C          -1.0306  -18.9012   19.7096 C.ar    1  UNL1        0.0000
     13 C          -0.0767  -17.7705   19.9577 C.ar    1  UNL1        0.0000
     14 C          -0.5090  -16.5905   20.7766 C.ar    1  UNL1        0.0000
     15 C          -1.8953  -16.5411   21.3475 C.ar    1  UNL1        0.0000
     16 C          -2.8492  -17.6718   21.0993 C.ar    1  UNL1        0.0000
     17 C          -4.2355  -17.6224   21.6702 C.ar    1  UNL1        0.0013
     18 C         -10.7345  -18.5557   23.7053 C.3     1  UNL1        0.2169
     19 O         -11.9807  -18.6056   24.5387 O.3     1  UNL1       -0.4320
     20 C         -13.1309  -18.1722   23.6789 C.2     1  UNL1        0.4077
     21 O         -14.5647  -18.0738   24.1083 O.2     1  UNL1       -0.2260
     22 N         -12.5955  -17.8544   22.3142 N.am    1  UNL1       -0.2182
     23 C         -11.1145  -18.0914   22.3306 C.2     1  UNL1        0.2678
     24 O         -10.1778  -17.8981   21.1749 O.2     1  UNL1       -0.2708
     25 H         -13.1235  -17.5446   21.5431 H       1  UNL1        0.1610
     26 C          -9.8986  -19.9630   25.2273 C.3     1  UNL1        0.0041
     27 C         -10.0647  -19.0303   24.9608 C.3     1  UNL1        0.0462
     28 C          -9.5672  -18.0357   25.9674 C.3     1  UNL1        0.0041
@<TRIPOS>BOND
     1    26    27    1
     2    27    28    1
     3    27    18    1
     4    18     1    1
     5     1     2    1
     6     2     3    2
     7     3     4    1
     8     4     8    1
     9     8     9   ar
    10     9    10   ar
    11    10    11   ar
    12    11    12   ar
    13    12    13   ar
    14    13    14   ar
    15    14    15   ar
    16    15    16   ar
    17    16    17   ar
    18     4     5    2
    19     5     6    1
    20     6     7    2
    21    18    19    1
    22    19    20    1
    23    20    21    2
    24    20    22   am
    25    22    23   am
    26    23    24    2
    27    23    18    1
    28     6     1    1
    29    17     8   ar
    30    16    11   ar
    31    22    25    1
@<TRIPOS>MOLECULE
*****
 28 31 0 0 0
SMALL
GASTEIGER

@<TRIPOS>ATOM
      1 C         -10.5180  -18.4252   22.7228 C.3     1  UNL1        0.1456
      2 C          -9.4589  -17.4661   23.1794 C.2     1  UNL1       -0.0120
      3 C          -8.0376  -17.6522   22.7375 C.2     1  UNL1        0.0126
      4 C          -7.6755  -18.7973   21.8389 C.2     1  UNL1        0.0730
      5 N          -8.7346  -19.7564   21.3823 N.am    1  UNL1       -0.1788
      6 C         -10.1559  -19.5703   21.8243 C.2     1  UNL1        0.2531
      7 O         -10.7632  -20.2564   21.4650 O.2     1  UNL1       -0.2725
      8 C          -6.2542  -18.9835   21.3969 C.ar    1  UNL1        0.0153
      9 C          -5.8999  -20.1017   20.4619 C.ar    1  UNL1        0.0013
     10 C          -4.4786  -20.2878   20.0199 C.ar    1  UNL1        0.0000
     11 C          -3.4117  -19.3557   20.5128 C.ar    1  UNL1        0.0000
     12 C          -1.9905  -19.5419   20.0707 C.ar    1  UNL1        0.0000
     13 C          -0.9236  -18.6098   20.5636 C.ar    1  UNL1        0.0000
     14 C          -1.2779  -17.4916   21.4985 C.ar    1  UNL1        0.0000
     15 C          -2.6991  -17.3054   21.9406 C.ar    1  UNL1        0.0000
     16 C          -3.7660  -18.2375   21.4477 C.ar    1  UNL1        0.0000
     17 C          -5.1873  -18.0514   21.8897 C.ar    1  UNL1        0.0013
     18 C         -11.9393  -18.2391   23.1649 C.3     1  UNL1        0.2169
     19 O         -13.3878  -17.8909   23.3398 O.3     1  UNL1       -0.4320
     20 C         -13.8556  -18.4899   24.6330 C.2     1  UNL1        0.4077
     21 O         -15.2398  -18.3883   25.2019 O.2     1  UNL1       -0.2260
     22 N         -12.6963  -19.2083   25.2573 N.am    1  UNL1       -0.2182
     23 C         -11.5119  -19.0533   24.3500 C.2     1  UNL1        0.2678
     24 O         -10.1408  -19.6141   24.5862 O.2     1  UNL1       -0.2708
     25 H         -12.7103  -19.6959   26.1124 H       1  UNL1        0.1610
     26 C         -12.5231  -17.7524   21.0630 C.3     1  UNL1        0.0041
     27 C         -12.0695  -17.4638   21.8874 C.3     1  UNL1        0.0462
     28 C         -11.4700  -16.0933   21.7774 C.3     1  UNL1        0.0041
@<TRIPOS>BOND
     1    26    27    1
     2    27    28    1
     3    27    18    1
     4    18     1    1
     5     1     2    1
     6     2     3    2
     7     3     4    1
     8     4     8    1
     9     8     9   ar
    10     9    10   ar
    11    10    11   ar
    12    11    12   ar
    13    12    13   ar
    14    13    14   ar
    15    14    15   ar
    16    15    16   ar
    17    16    17   ar
    18     4     5    2
    19     5     6    1
    20     6     7    2
    21    18    19    1
    22    19    20    1
    23    20    21    2
    24    20    22   am
    25    22    23   am
    26    23    24    2
    27    23    18    1
    28     6     1    1
    29    17     8   ar
    30    16    11   ar
    31    22    25    1
@<TRIPOS>MOLECULE
*****
 28 31 0 0 0
SMALL
GASTEIGER

@<TRIPOS>ATOM
      1 C           5.3035   -3.2586   20.9442 C.3     1  UNL1        0.1456
      2 C           4.4731   -2.9556   22.1561 C.2     1  UNL1       -0.0120
      3 C           4.9758   -3.3230   23.5207 C.2     1  UNL1        0.0126
      4 C           6.3089   -3.9934   23.6734 C.2     1  UNL1        0.0730
      5 N           7.1392   -4.2964   22.4615 N.am    1  UNL1       -0.1788
      6 C           6.6365   -3.9290   21.0969 C.2     1  UNL1        0.2531
      7 O           7.2621   -4.1743   20.3778 O.2     1  UNL1       -0.2725
      8 C           6.8116   -4.3609   25.0381 C.ar    1  UNL1        0.0153
      9 C           6.8000   -3.3439   26.1406 C.ar    1  UNL1        0.0013
     10 C           7.3027   -3.7113   27.5052 C.ar    1  UNL1        0.0000
     11 C           7.8171   -5.0958   27.7674 C.ar    1  UNL1        0.0000
     12 C           8.3199   -5.4632   29.1320 C.ar    1  UNL1        0.0000
     13 C           8.8343   -6.8476   29.3941 C.ar    1  UNL1        0.0000
     14 C           8.8459   -7.8646   28.2916 C.ar    1  UNL1        0.0000
     15 C           8.3432   -7.4972   26.9270 C.ar    1  UNL1        0.0000
     16 C           7.8288   -6.1128   26.6649 C.ar    1  UNL1        0.0000
     17 C           7.3260   -5.7453   25.3002 C.ar    1  UNL1        0.0013
     18 C           4.8007   -2.8911   19.5795 C.3     1  UNL1        0.2169
     19 O           4.1827   -2.8153   18.2149 O.3     1  UNL1       -0.4320
     20 C           4.4571   -1.4503   17.6570 C.2     1  UNL1        0.4077
     21 O           4.0205   -0.9423   16.3148 O.2     1  UNL1       -0.2260
     22 N           5.2446   -0.6824   18.6767 N.am    1  UNL1       -0.2182
     23 C           5.4570   -1.5729   19.8650 C.2     1  UNL1        0.2678
     24 O           6.1960   -1.2090   21.1186 O.2     1  UNL1       -0.2708
     25 H           5.5658    0.2435   18.5827 H       1  UNL1        0.1610
     26 C           3.5647   -4.6525   20.1839 C.3     1  UNL1        0.0041
     27 C           4.2495   -4.2861   19.5794 C.3     1  UNL1        0.0462
     28 C           4.7459   -5.2886   18.5801 C.3     1  UNL1        0.0041
@<TRIPOS>BOND
     1    26    27    1
     2    27    28    1
     3    27    18    1
     4    18     1    1
     5     1     2    1
     6     2     3    2
     7     3     4    1
     8     4     8    1
     9     8     9   ar
    10     9    10   ar
    11    10    11   ar
    12    11    12   ar
    13    12    13   ar
    14    13    14   ar
    15    14    15   ar
    16    15    16   ar
    17    16    17   ar
    18     4     5    2
    19     5     6    1
    20     6     7    2
    21    18    19    1
    22    19    20    1
    23    20    21    2
    24    20    22   am
    25    22    23   am
    26    23    24    2
    27    23    18    1
    28     6     1    1
    29    17     8   ar
    30    16    11   ar
    31    22    25    1
@<TRIPOS>MOLECULE
*****
 28 31 0 0 0
SMALL
GASTEIGER

@<TRIPOS>ATOM
      1 C         -12.9234   -4.3784   18.8524 C.3     1  UNL1        0.1456
      2 C         -13.0291   -3.7593   20.2146 C.2     1  UNL1       -0.0120
      3 C         -14.1826   -2.8578   20.5413 C.2     1  UNL1        0.0126
      4 C         -15.2304   -2.5754   19.5058 C.2     1  UNL1        0.0730
      5 N         -15.1247   -3.1945   18.1436 N.am    1  UNL1       -0.1788
      6 C         -13.9712   -4.0960   17.8169 C.2     1  UNL1        0.2531
      7 O         -14.0041   -4.4445   16.8971 O.2     1  UNL1       -0.2725
      8 C         -16.3839   -1.6739   19.8324 C.ar    1  UNL1        0.0153
      9 C         -17.7874   -2.1999   19.7719 C.ar    1  UNL1        0.0013
     10 C         -18.9409   -1.2985   20.0985 C.ar    1  UNL1        0.0000
     11 C         -18.6910    0.1291   20.4857 C.ar    1  UNL1        0.0000
     12 C         -19.8446    1.0305   20.8123 C.ar    1  UNL1        0.0000
     13 C         -19.5947    2.4579   21.1994 C.ar    1  UNL1        0.0000
     14 C         -18.1912    2.9839   21.2600 C.ar    1  UNL1        0.0000
     15 C         -17.0377    2.0825   20.9333 C.ar    1  UNL1        0.0000
     16 C         -17.2876    0.6551   20.5462 C.ar    1  UNL1        0.0000
     17 C         -16.1340   -0.2465   20.2196 C.ar    1  UNL1        0.0013
     18 C         -11.7699   -5.2799   18.5258 C.3     1  UNL1        0.2169
     19 O         -10.4824   -5.9177   18.0949 O.3     1  UNL1       -0.4320
     20 C         -10.5685   -7.3847   18.3955 C.2     1  UNL1        0.4077
     21 O          -9.5013   -8.4039   18.1266 O.2     1  UNL1       -0.2260
     22 N         -11.9091   -7.6537   19.0121 N.am    1  UNL1       -0.2182
     23 C         -12.6516   -6.3528   19.0926 C.2     1  UNL1        0.2678
     24 O         -14.0334   -6.1589   19.6434 O.2     1  UNL1       -0.2708
     25 H         -12.2431   -8.5301   19.3114 H       1  UNL1        0.1610
     26 C         -10.9060   -3.2188   18.5555 C.3     1  UNL1        0.0041
     27 C         -11.1292   -4.0186   18.0272 C.3     1  UNL1        0.0462
     28 C         -10.7598   -3.8866   16.5795 C.3     1  UNL1        0.0041
@<TRIPOS>BOND
     1    26    27    1
     2    27    28    1
     3    27    18    1
     4    18     1    1
     5     1     2    1
     6     2     3    2
     7     3     4    1
     8     4     8    1
     9     8     9   ar
    10     9    10   ar
    11    10    11   ar
    12    11    12   ar
    13    12    13   ar
    14    13    14   ar
    15    14    15   ar
    16    15    16   ar
    17    16    17   ar
    18     4     5    2
    19     5     6    1
    20     6     7    2
    21    18    19    1
    22    19    20    1
    23    20    21    2
    24    20    22   am
    25    22    23   am
    26    23    24    2
    27    23    18    1
    28     6     1    1
    29    17     8   ar
    30    16    11   ar
    31    22    25    1
@<TRIPOS>MOLECULE
*****
 28 31 0 0 0
SMALL
GASTEIGER

@<TRIPOS>ATOM
      1 C         -12.8137   -4.4300   18.8677 C.3     1  UNL1        0.1456
      2 C         -13.1950   -3.9220   20.2266 C.2     1  UNL1       -0.0120
      3 C         -13.9083   -2.6096   20.3636 C.2     1  UNL1        0.0126
      4 C         -14.2402   -1.8052   19.1418 C.2     1  UNL1        0.0730
      5 N         -13.8589   -2.3133   17.7830 N.am    1  UNL1       -0.1788
      6 C         -13.1456   -3.6257   17.6459 C.2     1  UNL1        0.2531
      7 O         -12.9455   -3.8587   16.7109 O.2     1  UNL1       -0.2725
      8 C         -14.9535   -0.4928   19.2788 C.ar    1  UNL1        0.0153
      9 C         -14.4287    0.7232   18.5746 C.ar    1  UNL1        0.0013
     10 C         -15.1419    2.0356   18.7115 C.ar    1  UNL1        0.0000
     11 C         -16.3801    2.1321   19.5528 C.ar    1  UNL1        0.0000
     12 C         -17.0933    3.4445   19.6898 C.ar    1  UNL1        0.0000
     13 C         -18.3314    3.5410   20.5310 C.ar    1  UNL1        0.0000
     14 C         -18.8563    2.3250   21.2353 C.ar    1  UNL1        0.0000
     15 C         -18.1431    1.0126   21.0983 C.ar    1  UNL1        0.0000
     16 C         -16.9050    0.9162   20.2571 C.ar    1  UNL1        0.0000
     17 C         -16.1916   -0.3963   20.1201 C.ar    1  UNL1        0.0013
     18 C         -12.1003   -5.7425   18.7307 C.3     1  UNL1        0.2169
     19 O         -11.6770   -7.1740   18.5836 O.3     1  UNL1       -0.4320
     20 C         -10.1777   -7.2148   18.5696 C.2     1  UNL1        0.4077
     21 O          -9.3304   -8.4458   18.4400 O.2     1  UNL1       -0.2260
     22 N          -9.6743   -5.8086   18.7081 N.am    1  UNL1       -0.2182
     23 C         -10.8626   -4.8987   18.8077 C.2     1  UNL1        0.2678
     24 O         -10.8205   -3.4067   18.9578 O.2     1  UNL1       -0.2708
     25 H          -8.7298   -5.5316   18.7299 H       1  UNL1        0.1610
     26 C         -14.1547   -6.3078   19.4055 C.3     1  UNL1        0.0041
     27 C         -13.4872   -6.3119   18.6824 C.3     1  UNL1        0.0462
     28 C         -13.9825   -6.9751   17.4315 C.3     1  UNL1        0.0041
@<TRIPOS>BOND
     1    26    27    1
     2    27    28    1
     3    27    18    1
     4    18     1    1
     5     1     2    1
     6     2     3    2
     7     3     4    1
     8     4     8    1
     9     8     9   ar
    10     9    10   ar
    11    10    11   ar
    12    11    12   ar
    13    12    13   ar
    14    13    14   ar
    15    14    15   ar
    16    15    16   ar
    17    16    17   ar
    18     4     5    2
    19     5     6    1
    20     6     7    2
    21    18    19    1
    22    19    20    1
    23    20    21    2
    24    20    22   am
    25    22    23   am
    26    23    24    2
    27    23    18    1
    28     6     1    1
    29    17     8   ar
    30    16    11   ar
    31    22    25    1
@<TRIPOS>MOLECULE
*****
 28 31 0 0 0
SMALL
GASTEIGER

@<TRIPOS>ATOM
      1 C           4.9235   -0.7805   33.1113 C.3     1  UNL1        0.1456
      2 C           5.9333   -0.4760   32.0448 C.2     1  UNL1       -0.0120
      3 C           6.5600   -1.5933   31.2644 C.2     1  UNL1        0.0126
      4 C           6.1769   -3.0149   31.5506 C.2     1  UNL1        0.0730
      5 N           5.1671   -3.3194   32.6172 N.am    1  UNL1       -0.1788
      6 C           4.5404   -2.2021   33.3976 C.2     1  UNL1        0.2531
      7 O           3.8941   -2.5177   34.0693 O.2     1  UNL1       -0.2725
      8 C           6.8035   -4.1323   30.7702 C.ar    1  UNL1        0.0153
      9 C           7.8230   -5.0207   31.4194 C.ar    1  UNL1        0.0013
     10 C           8.4497   -6.1380   30.6391 C.ar    1  UNL1        0.0000
     11 C           8.0569   -6.3669   29.2096 C.ar    1  UNL1        0.0000
     12 C           8.6836   -7.4842   28.4293 C.ar    1  UNL1        0.0000
     13 C           8.2908   -7.7130   26.9999 C.ar    1  UNL1        0.0000
     14 C           7.2713   -6.8246   26.3507 C.ar    1  UNL1        0.0000
     15 C           6.6447   -5.7073   27.1310 C.ar    1  UNL1        0.0000
     16 C           7.0374   -5.4785   28.5604 C.ar    1  UNL1        0.0000
     17 C           6.4108   -4.3611   29.3408 C.ar    1  UNL1        0.0013
     18 C           4.2968    0.3369   33.8917 C.3     1  UNL1        0.2169
     19 O           3.9106    1.4080   34.8682 O.3     1  UNL1       -0.4320
     20 C           2.6532    2.0572   34.3706 C.2     1  UNL1        0.4077
     21 O           1.9160    3.1792   35.0396 O.2     1  UNL1       -0.2260
     22 N           2.2623    1.3873   33.0868 N.am    1  UNL1       -0.2182
     23 C           3.2782    0.3240   32.7908 C.2     1  UNL1        0.2678
     24 O           3.2758   -0.5913   31.6024 O.2     1  UNL1       -0.2708
     25 H           1.4770    1.6069   32.5352 H       1  UNL1        0.1610
     26 C           6.4042    0.2163   34.6264 C.3     1  UNL1        0.0041
     27 C           5.4465    0.1161   34.8295 C.3     1  UNL1        0.0462
     28 C           5.1887   -0.3040   36.2462 C.3     1  UNL1        0.0041
@<TRIPOS>BOND
     1    26    27    1
     2    27    28    1
     3    27    18    1
     4    18     1    1
     5     1     2    1
     6     2     3    2
     7     3     4    1
     8     4     8    1
     9     8     9   ar
    10     9    10   ar
    11    10    11   ar
    12    11    12   ar
    13    12    13   ar
    14    13    14   ar
    15    14    15   ar
    16    15    16   ar
    17    16    17   ar
    18     4     5    2
    19     5     6    1
    20     6     7    2
    21    18    19    1
    22    19    20    1
    23    20    21    2
    24    20    22   am
    25    22    23   am
    26    23    24    2
    27    23    18    1
    28     6     1    1
    29    17     8   ar
    30    16    11   ar
    31    22    25    1
@<TRIPOS>MOLECULE
*****
 28 31 0 0 0
SMALL
GASTEIGER

@<TRIPOS>ATOM
      1 C           5.7020   -2.4963   21.0577 C.3     1  UNL1        0.1456
      2 C           4.7148   -2.7852   22.1495 C.2     1  UNL1       -0.0120
      3 C           5.1558   -3.5088   23.3872 C.2     1  UNL1        0.0126
      4 C           6.5840   -3.9435   23.5331 C.2     1  UNL1        0.0730
      5 N           7.5712   -3.6546   22.4413 N.am    1  UNL1       -0.1788
      6 C           7.1302   -2.9310   21.2036 C.2     1  UNL1        0.2531
      7 O           7.8594   -2.7964   20.5566 O.2     1  UNL1       -0.2725
      8 C           7.0250   -4.6672   24.7708 C.ar    1  UNL1        0.0153
      9 C           6.7371   -4.0848   26.1228 C.ar    1  UNL1        0.0013
     10 C           7.1781   -4.8084   27.3605 C.ar    1  UNL1        0.0000
     11 C           7.9071   -6.1144   27.2462 C.ar    1  UNL1        0.0000
     12 C           8.3481   -6.8379   28.4839 C.ar    1  UNL1        0.0000
     13 C           9.0770   -8.1439   28.3696 C.ar    1  UNL1        0.0000
     14 C           9.3650   -8.7262   27.0176 C.ar    1  UNL1        0.0000
     15 C           8.9240   -8.0026   25.7799 C.ar    1  UNL1        0.0000
     16 C           8.1950   -6.6967   25.8942 C.ar    1  UNL1        0.0000
     17 C           7.7540   -5.9731   24.6565 C.ar    1  UNL1        0.0013
     18 C           5.2610   -1.7727   19.8200 C.3     1  UNL1        0.2169
     19 O           4.9005   -0.7923   18.7434 O.3     1  UNL1       -0.4320
     20 C           4.3846   -1.5656   17.5663 C.2     1  UNL1        0.4077
     21 O           3.9103   -0.9829   16.2680 O.2     1  UNL1       -0.2260
     22 N           4.4262   -3.0238   17.9152 N.am    1  UNL1       -0.2182
     23 C           4.9678   -3.1518   19.3081 C.2     1  UNL1        0.2678
     24 O           5.1792   -4.4339   20.0576 O.2     1  UNL1       -0.2708
     25 H           4.1470   -3.7665   17.3324 H       1  UNL1        0.1610
     26 C           5.2226   -0.2027   21.4103 C.3     1  UNL1        0.0041
     27 C           5.6464   -0.5448   20.5906 C.3     1  UNL1        0.0462
     28 C           6.7910    0.3049   20.1241 C.3     1  UNL1        0.0041
@<TRIPOS>BOND
     1    26    27    1
     2    27    28    1
     3    27    18    1
     4    18     1    1
     5     1     2    1
     6     2     3    2
     7     3     4    1
     8     4     8    1
     9     8     9   ar
    10     9    10   ar
    11    10    11   ar
    12    11    12   ar
    13    12    13   ar
    14    13    14   ar
    15    14    15   ar
    16    15    16   ar
    17    16    17   ar
    18     4     5    2
    19     5     6    1
    20     6     7    2
    21    18    19    1
    22    19    20    1
    23    20    21    2
    24    20    22   am
    25    22    23   am
    26    23    24    2
    27    23    18    1
    28     6     1    1
    29    17     8   ar
    30    16    11   ar
    31    22    25    1
@<TRIPOS>MOLECULE
*****
 28 31 0 0 0
SMALL
GASTEIGER

@<TRIPOS>ATOM
      1 C           5.6074   -3.4085   20.9632 C.3     1  UNL1        0.1456
      2 C           4.8766   -3.1681   22.2508 C.2     1  UNL1       -0.0120
      3 C           5.4802   -3.6126   23.5501 C.2     1  UNL1        0.0126
      4 C           6.8147   -4.2974   23.5616 C.2     1  UNL1        0.0730
      5 N           7.5455   -4.5377   22.2739 N.am    1  UNL1       -0.1788
      6 C           6.9419   -4.0933   20.9747 C.2     1  UNL1        0.2531
      7 O           7.5073   -4.3020   20.1967 O.2     1  UNL1       -0.2725
      8 C           7.4184   -4.7419   24.8609 C.ar    1  UNL1        0.0153
      9 C           8.8510   -5.1839   24.9099 C.ar    1  UNL1        0.0013
     10 C           9.4547   -5.6283   26.2091 C.ar    1  UNL1        0.0000
     11 C           8.6258   -5.6308   27.4593 C.ar    1  UNL1        0.0000
     12 C           9.2296   -6.0753   28.7585 C.ar    1  UNL1        0.0000
     13 C           8.4007   -6.0778   30.0087 C.ar    1  UNL1        0.0000
     14 C           6.9682   -5.6358   29.9597 C.ar    1  UNL1        0.0000
     15 C           6.3644   -5.1913   28.6605 C.ar    1  UNL1        0.0000
     16 C           7.1933   -5.1888   27.4103 C.ar    1  UNL1        0.0000
     17 C           6.5896   -4.7444   26.1110 C.ar    1  UNL1        0.0013
     18 C           5.0037   -2.9640   19.6639 C.3     1  UNL1        0.2169
     19 O           4.2684   -2.8042   18.3663 O.3     1  UNL1       -0.4320
     20 C           4.5696   -1.4368   17.8282 C.2     1  UNL1        0.4077
     21 O           4.0420   -0.8566   16.5496 O.2     1  UNL1       -0.2260
     22 N           5.4910   -0.7515   18.7932 N.am    1  UNL1       -0.2182
     23 C           5.7593   -1.6954   19.9278 C.2     1  UNL1        0.2678
     24 O           6.6303   -1.4191   21.1173 O.2     1  UNL1       -0.2708
     25 H           5.8556    0.1580   18.6986 H       1  UNL1        0.1610
     26 C           3.7157   -4.6700   20.3168 C.3     1  UNL1        0.0041
     27 C           4.3743   -4.3255   19.6716 C.3     1  UNL1        0.0462
     28 C           4.7373   -5.3256   18.6143 C.3     1  UNL1        0.0041
@<TRIPOS>BOND
     1    26    27    1
     2    27    28    1
     3    27    18    1
     4    18     1    1
     5     1     2    1
     6     2     3    2
     7     3     4    1
     8     4     8    1
     9     8     9   ar
    10     9    10   ar
    11    10    11   ar
    12    11    12   ar
    13    12    13   ar
    14    13    14   ar
    15    14    15   ar
    16    15    16   ar
    17    16    17   ar
    18     4     5    2
    19     5     6    1
    20     6     7    2
    21    18    19    1
    22    19    20    1
    23    20    21    2
    24    20    22   am
    25    22    23   am
    26    23    24    2
    27    23    18    1
    28     6     1    1
    29    17     8   ar
    30    16    11   ar
    31    22    25    1
