@<TRIPOS>MOLECULE
*****
 42 47 0 0 0
SMALL
GASTEIGER

@<TRIPOS>ATOM
      1 C           4.7324   -0.9890   28.8265 C.3     1  UNL1        0.0832
      2 C           5.9600   -1.3359   28.0375 C.3     1  UNL1        0.0374
      3 C           5.8518   -1.6205   26.5687 C.3     1  UNL1        0.0738
      4 N           4.5162   -1.5582   25.8890 N.3     1  UNL1       -0.2734
      5 C           3.2886   -1.2112   26.6780 C.3     1  UNL1        0.0828
      6 C           3.3967   -0.9266   28.1468 C.3     1  UNL1        0.1103
      7 C           4.4081   -1.8428   24.4202 C.3     1  UNL1        0.0575
      8 C           5.1875   -2.9729   23.8159 C.3     1  UNL1        0.0160
      9 C           5.0795   -3.2575   22.3470 C.3     1  UNL1        0.0014
     10 C           4.1919   -2.4120   21.4826 C.3     1  UNL1        0.0001
     11 C           3.4125   -1.2818   22.0869 C.3     1  UNL1        0.0014
     12 C           3.5206   -0.9972   23.5557 C.3     1  UNL1        0.0160
     13 O           5.2921    1.8010   29.7765 O.2     1  UNL1       -0.2684
     14 C           5.1203    0.6907   30.7703 C.2     1  UNL1        0.2669
     15 N           4.8404   -0.7043   30.2953 N.am    1  UNL1       -0.3006
     16 H           4.7277   -1.4331   30.9476 H       1  UNL1        0.1497
     17 C           5.2284    0.9753   32.2391 C.ar    1  UNL1        0.1761
     18 C           4.0834    1.2266   33.1751 C.ar    1  UNL1        0.0673
     19 C           4.6478    1.4653   34.5442 C.ar    1  UNL1        0.1792
     20 O           6.1415    1.3614   34.4544 O.2     1  UNL1       -0.3532
     21 N           6.5003    1.0586   33.0297 N.ar    1  UNL1       -0.0723
     22 C           3.8573    1.7566   35.7852 C.ar    1  UNL1        0.0648
     23 C           2.9472    2.9481   35.8324 C.ar    1  UNL1        0.0077
     24 C           2.1567    3.2394   37.0734 C.ar    1  UNL1        0.0299
     25 C           2.2762    2.3393   38.2673 C.ar    1  UNL1        0.1424
     26 F           1.4857    2.6306   39.5083 F       1  UNL1       -0.2041
     27 C           3.1862    1.1478   38.2201 C.ar    1  UNL1        0.0593
     28 C           3.9767    0.8565   36.9791 C.ar    1  UNL1        0.1453
     29 F           4.8867   -0.3350   36.9320 F       1  UNL1       -0.2040
     30 C           2.1690   -0.5796   28.9359 C.2     1  UNL1        0.2252
     31 O           2.0951   -0.9179   30.3953 O.2     1  UNL1       -0.2750
     32 N           1.0154    0.1058   28.2654 N.am    1  UNL1       -0.3025
     33 H           1.0640    0.3278   27.3075 H       1  UNL1        0.1497
     34 C          -0.2122    0.4528   29.0544 C.3     1  UNL1        0.0921
     35 C          -1.6048    0.3670   29.6050 C.3     1  UNL1        0.0258
     36 C          -1.1138   -0.6728   28.6417 C.3     1  UNL1        0.0258
     37 C           0.2631    1.6987   29.7412 C.ar    1  UNL1        0.0749
     38 C           0.7080    2.8792   28.9296 C.ar    1  UNL1        0.0163
     39 C           1.1833    4.1253   29.6164 C.ar    1  UNL1        0.0029
     40 C           1.2137    4.1908   31.1146 C.ar    1  UNL1        0.0207
     41 C           0.7689    3.0103   31.9261 C.ar    1  UNL1        0.0985
     42 N           0.2936    1.7643   31.2395 N.ar    1  UNL1       -0.2466
@<TRIPOS>BOND
     1    13    14    2
     2    14    15   am
     3     1    15    1
     4     1     2    1
     5     2     3    1
     6     3     4    1
     7     4     7    1
     8     7     8    1
     9     8     9    1
    10     9    10    1
    11    10    11    1
    12    11    12    1
    13     4     5    1
    14     5     6    1
    15     6    30    1
    16    30    31    2
    17    30    32   am
    18    32    34    1
    19    34    37    1
    20    37    38   ar
    21    38    39   ar
    22    39    40   ar
    23    40    41   ar
    24    41    42   ar
    25    34    35    1
    26    35    36    1
    27    14    17    1
    28    17    18   ar
    29    18    19   ar
    30    19    22    1
    31    22    23   ar
    32    23    24   ar
    33    24    25   ar
    34    25    26    1
    35    25    27   ar
    36    27    28   ar
    37    28    29    1
    38    19    20   ar
    39    20    21   ar
    40     6     1    1
    41    36    34    1
    42    21    17   ar
    43    12     7    1
    44    42    37   ar
    45    28    22   ar
    46    15    16    1
    47    32    33    1
@<TRIPOS>MOLECULE
*****
 42 47 0 0 0
SMALL
GASTEIGER

@<TRIPOS>ATOM
      1 C           4.3440   -0.9265   33.7666 C.3     1  UNL1        0.0832
      2 C           4.7427   -0.7207   35.1978 C.3     1  UNL1        0.0374
      3 C           4.4119    0.5679   35.8907 C.3     1  UNL1        0.0738
      4 N           3.6825    1.6507   35.1522 N.3     1  UNL1       -0.2734
      5 C           3.2837    1.4449   33.7209 C.3     1  UNL1        0.0828
      6 C           3.6145    0.1563   33.0281 C.3     1  UNL1        0.1103
      7 C           3.3517    2.9394   35.8451 C.3     1  UNL1        0.0575
      8 C           2.1450    3.7268   35.4283 C.3     1  UNL1        0.0160
      9 C           1.8142    5.0154   36.1212 C.3     1  UNL1        0.0014
     10 C           2.6903    5.5166   37.2308 C.3     1  UNL1        0.0001
     11 C           3.8971    4.7292   37.6476 C.3     1  UNL1        0.0014
     12 C           4.2278    3.4406   36.9547 C.3     1  UNL1        0.0160
     13 O           7.1230   -1.4101   32.7453 O.2     1  UNL1       -0.2684
     14 C           6.0642   -2.4570   32.5630 C.2     1  UNL1        0.2669
     15 N           4.6747   -2.2152   33.0737 N.am    1  UNL1       -0.3006
     16 H           3.9798   -2.9022   32.9541 H       1  UNL1        0.1497
     17 C           6.3950   -3.7456   31.8702 C.ar    1  UNL1        0.1761
     18 C           6.6840   -3.9113   30.4076 C.ar    1  UNL1        0.0673
     19 C           6.9625   -5.3629   30.1517 C.ar    1  UNL1        0.1792
     20 O           6.8456   -6.0942   31.4562 O.2     1  UNL1       -0.3532
     21 N           6.4949   -5.0946   32.5182 N.ar    1  UNL1       -0.0723
     22 C           7.2987   -5.9755   28.8245 C.ar    1  UNL1        0.0648
     23 C           6.5460   -5.5613   27.5949 C.ar    1  UNL1        0.0077
     24 C           6.8823   -6.1739   26.2677 C.ar    1  UNL1        0.0299
     25 C           7.9713   -7.2008   26.1700 C.ar    1  UNL1        0.1424
     26 F           8.3076   -7.8134   24.8428 F       1  UNL1       -0.2041
     27 C           8.7240   -7.6150   27.3995 C.ar    1  UNL1        0.0593
     28 C           8.3877   -7.0023   28.7268 C.ar    1  UNL1        0.1453
     29 F           9.1405   -7.4166   29.9563 F       1  UNL1       -0.2040
     30 C           3.2158   -0.0495   31.5967 C.2     1  UNL1        0.2252
     31 O           2.4500   -1.2770   31.2006 O.2     1  UNL1       -0.2750
     32 N           3.5828    0.9721   30.5616 N.am    1  UNL1       -0.3025
     33 H           4.0854    1.7777   30.8216 H       1  UNL1        0.1497
     34 C           3.1841    0.7663   29.1303 C.3     1  UNL1        0.0921
     35 C           2.3732    0.8292   27.8700 C.3     1  UNL1        0.0258
     36 C           1.8585    1.4683   29.1257 C.3     1  UNL1        0.0258
     37 C           4.3712   -0.0070   28.6378 C.ar    1  UNL1        0.0749
     38 C           4.1708   -1.2603   27.8384 C.ar    1  UNL1        0.0163
     39 C           5.3579   -2.0338   27.3458 C.ar    1  UNL1        0.0029
     40 C           6.7455   -1.5539   27.6528 C.ar    1  UNL1        0.0207
     41 C           6.9460   -0.3007   28.4523 C.ar    1  UNL1        0.0985
     42 N           5.7589    0.4728   28.9448 N.ar    1  UNL1       -0.2466
@<TRIPOS>BOND
     1    13    14    2
     2    14    15   am
     3     1    15    1
     4     1     2    1
     5     2     3    1
     6     3     4    1
     7     4     7    1
     8     7     8    1
     9     8     9    1
    10     9    10    1
    11    10    11    1
    12    11    12    1
    13     4     5    1
    14     5     6    1
    15     6    30    1
    16    30    31    2
    17    30    32   am
    18    32    34    1
    19    34    37    1
    20    37    38   ar
    21    38    39   ar
    22    39    40   ar
    23    40    41   ar
    24    41    42   ar
    25    34    35    1
    26    35    36    1
    27    14    17    1
    28    17    18   ar
    29    18    19   ar
    30    19    22    1
    31    22    23   ar
    32    23    24   ar
    33    24    25   ar
    34    25    26    1
    35    25    27   ar
    36    27    28   ar
    37    28    29    1
    38    19    20   ar
    39    20    21   ar
    40     6     1    1
    41    36    34    1
    42    21    17   ar
    43    12     7    1
    44    42    37   ar
    45    28    22   ar
    46    15    16    1
    47    32    33    1
@<TRIPOS>MOLECULE
*****
 42 47 0 0 0
SMALL
GASTEIGER

@<TRIPOS>ATOM
      1 C           4.3963   -0.9973   33.7672 C.3     1  UNL1        0.0832
      2 C           4.7261   -0.7909   35.2158 C.3     1  UNL1        0.0374
      3 C           4.3841    0.5071   35.8853 C.3     1  UNL1        0.0738
      4 N           3.7122    1.5987   35.1062 N.3     1  UNL1       -0.2734
      5 C           3.3823    1.3922   33.6576 C.3     1  UNL1        0.0828
      6 C           3.7243    0.0943   32.9881 C.3     1  UNL1        0.1103
      7 C           3.3701    2.8967   35.7757 C.3     1  UNL1        0.0575
      8 C           4.2842    3.4656   36.8201 C.3     1  UNL1        0.0160
      9 C           3.9422    4.7636   37.4896 C.3     1  UNL1        0.0014
     10 C           2.6860    5.4926   37.1148 C.3     1  UNL1        0.0001
     11 C           1.7719    4.9237   36.0704 C.3     1  UNL1        0.0014
     12 C           2.1139    3.6257   35.4009 C.3     1  UNL1        0.0160
     13 O           7.0679   -1.3461   32.4480 O.2     1  UNL1       -0.2684
     14 C           6.0741   -2.4697   32.4380 C.2     1  UNL1        0.2669
     15 N           4.7383   -2.2953   33.0976 N.am    1  UNL1       -0.3006
     16 H           4.0860   -3.0327   33.0911 H       1  UNL1        0.1497
     17 C           6.4162   -3.7676   31.7685 C.ar    1  UNL1        0.1761
     18 C           6.7128   -3.9562   30.3102 C.ar    1  UNL1        0.0673
     19 C           7.0017   -5.4100   30.0801 C.ar    1  UNL1        0.1792
     20 O           6.8836   -6.1200   31.3962 O.2     1  UNL1       -0.3532
     21 N           6.5217   -5.1049   32.4396 N.ar    1  UNL1       -0.0723
     22 C           7.3478   -6.0427   28.7649 C.ar    1  UNL1        0.0648
     23 C           6.6050   -5.6466   27.5234 C.ar    1  UNL1        0.0077
     24 C           6.9512   -6.2793   26.2082 C.ar    1  UNL1        0.0299
     25 C           8.0402   -7.3082   26.1345 C.ar    1  UNL1        0.1424
     26 F           8.3863   -7.9410   24.8193 F       1  UNL1       -0.2041
     27 C           8.7830   -7.7043   27.3759 C.ar    1  UNL1        0.0593
     28 C           8.4368   -7.0716   28.6911 C.ar    1  UNL1        0.1453
     29 F           9.1796   -7.4677   29.9326 F       1  UNL1       -0.2040
     30 C           3.3944   -0.1122   31.5394 C.2     1  UNL1        0.2252
     31 O           2.3689   -1.1320   31.1417 O.2     1  UNL1       -0.2750
     32 N           4.0901    0.7012   30.4885 N.am    1  UNL1       -0.3025
     33 H           4.7632    1.3705   30.7495 H       1  UNL1        0.1497
     34 C           3.7603    0.4948   29.0399 C.3     1  UNL1        0.0921
     35 C           3.8197   -0.0536   27.6450 C.3     1  UNL1        0.0258
     36 C           4.7667   -0.5617   28.6916 C.3     1  UNL1        0.0258
     37 C           2.6394    1.4794   28.8850 C.ar    1  UNL1        0.0749
     38 C           1.3001    1.0196   28.3904 C.ar    1  UNL1        0.0163
     39 C           0.1791    2.0043   28.2355 C.ar    1  UNL1        0.0029
     40 C           0.3976    3.4488   28.5753 C.ar    1  UNL1        0.0207
     41 C           1.7369    3.9087   29.0699 C.ar    1  UNL1        0.0985
     42 N           2.8579    2.9241   29.2248 N.ar    1  UNL1       -0.2466
@<TRIPOS>BOND
     1    13    14    2
     2    14    15   am
     3     1    15    1
     4     1     2    1
     5     2     3    1
     6     3     4    1
     7     4     7    1
     8     7     8    1
     9     8     9    1
    10     9    10    1
    11    10    11    1
    12    11    12    1
    13     4     5    1
    14     5     6    1
    15     6    30    1
    16    30    31    2
    17    30    32   am
    18    32    34    1
    19    34    37    1
    20    37    38   ar
    21    38    39   ar
    22    39    40   ar
    23    40    41   ar
    24    41    42   ar
    25    34    35    1
    26    35    36    1
    27    14    17    1
    28    17    18   ar
    29    18    19   ar
    30    19    22    1
    31    22    23   ar
    32    23    24   ar
    33    24    25   ar
    34    25    26    1
    35    25    27   ar
    36    27    28   ar
    37    28    29    1
    38    19    20   ar
    39    20    21   ar
    40     6     1    1
    41    36    34    1
    42    21    17   ar
    43    12     7    1
    44    42    37   ar
    45    28    22   ar
    46    15    16    1
    47    32    33    1
@<TRIPOS>MOLECULE
*****
 42 47 0 0 0
SMALL
GASTEIGER

@<TRIPOS>ATOM
      1 C           2.8432   -0.4635   23.2478 C.3     1  UNL1        0.0832
      2 C           3.2068   -0.5835   24.6981 C.3     1  UNL1        0.0374
      3 C           4.3145   -1.5026   25.1200 C.3     1  UNL1        0.0738
      4 N           5.0588   -2.3017   24.0917 N.3     1  UNL1       -0.2734
      5 C           4.6952   -2.1817   22.6414 C.3     1  UNL1        0.0828
      6 C           3.5875   -1.2626   22.2194 C.3     1  UNL1        0.1103
      7 C           6.1666   -3.2208   24.5137 C.3     1  UNL1        0.0575
      8 C           6.7142   -3.1446   25.9080 C.3     1  UNL1        0.0160
      9 C           7.8220   -4.0637   26.3301 C.3     1  UNL1        0.0014
     10 C           8.3822   -5.0590   25.3577 C.3     1  UNL1        0.0001
     11 C           7.8345   -5.1352   23.9632 C.3     1  UNL1        0.0014
     12 C           6.7267   -4.2161   23.5413 C.3     1  UNL1        0.0160
     13 O           3.4800    2.2904   22.2425 O.2     1  UNL1       -0.2684
     14 C           2.0538    1.8326   22.3231 C.2     1  UNL1        0.2669
     15 N           1.7354    0.4556   22.8258 N.am    1  UNL1       -0.3006
     16 H           0.7994    0.1551   22.8787 H       1  UNL1        0.1497
     17 C           0.9461    2.7517   21.9011 C.ar    1  UNL1        0.1761
     18 C          -0.4464    2.3398   21.5252 C.ar    1  UNL1        0.0673
     19 C          -1.2168    3.5776   21.1727 C.ar    1  UNL1        0.1792
     20 O          -0.3003    4.7546   21.3308 O.2     1  UNL1       -0.3532
     21 N           1.0363    4.2441   21.7810 N.ar    1  UNL1       -0.0723
     22 C          -2.6516    3.6294   20.7384 C.ar    1  UNL1        0.0648
     23 C          -3.7474    3.4458   21.7461 C.ar    1  UNL1        0.0077
     24 C          -5.1821    3.4976   21.3118 C.ar    1  UNL1        0.0299
     25 C          -5.5212    3.7330   19.8697 C.ar    1  UNL1        0.1424
     26 F          -6.9559    3.7848   19.4354 F       1  UNL1       -0.2041
     27 C          -4.4254    3.9165   18.8620 C.ar    1  UNL1        0.0593
     28 C          -2.9907    3.8647   19.2963 C.ar    1  UNL1        0.1453
     29 F          -1.8949    4.0483   18.2885 F       1  UNL1       -0.2040
     30 C           3.2239   -1.1426   20.7691 C.2     1  UNL1        0.2252
     31 O           1.8923   -1.6363   20.2863 O.2     1  UNL1       -0.2750
     32 N           4.1920   -0.5289   19.8015 N.am    1  UNL1       -0.3025
     33 H           5.0660   -0.2049   20.1183 H       1  UNL1        0.1497
     34 C           3.8285   -0.4089   18.3512 C.3     1  UNL1        0.0921
     35 C           3.7194   -0.7434   16.8930 C.3     1  UNL1        0.0258
     36 C           4.4350   -1.6759   17.8250 C.3     1  UNL1        0.0258
     37 C           3.0958    0.8997   18.3737 C.ar    1  UNL1        0.0749
     38 C           1.6027    0.9258   18.2320 C.ar    1  UNL1        0.0163
     39 C           0.8699    2.2345   18.2546 C.ar    1  UNL1        0.0029
     40 C           1.6303    3.5170   18.4188 C.ar    1  UNL1        0.0207
     41 C           3.1233    3.4909   18.5605 C.ar    1  UNL1        0.0985
     42 N           3.8561    2.1823   18.5380 N.ar    1  UNL1       -0.2466
@<TRIPOS>BOND
     1    13    14    2
     2    14    15   am
     3     1    15    1
     4     1     2    1
     5     2     3    1
     6     3     4    1
     7     4     7    1
     8     7     8    1
     9     8     9    1
    10     9    10    1
    11    10    11    1
    12    11    12    1
    13     4     5    1
    14     5     6    1
    15     6    30    1
    16    30    31    2
    17    30    32   am
    18    32    34    1
    19    34    37    1
    20    37    38   ar
    21    38    39   ar
    22    39    40   ar
    23    40    41   ar
    24    41    42   ar
    25    34    35    1
    26    35    36    1
    27    14    17    1
    28    17    18   ar
    29    18    19   ar
    30    19    22    1
    31    22    23   ar
    32    23    24   ar
    33    24    25   ar
    34    25    26    1
    35    25    27   ar
    36    27    28   ar
    37    28    29    1
    38    19    20   ar
    39    20    21   ar
    40     6     1    1
    41    36    34    1
    42    21    17   ar
    43    12     7    1
    44    42    37   ar
    45    28    22   ar
    46    15    16    1
    47    32    33    1
@<TRIPOS>MOLECULE
*****
 42 47 0 0 0
SMALL
GASTEIGER

@<TRIPOS>ATOM
      1 C           2.4291    0.2198   28.6584 C.3     1  UNL1        0.0832
      2 C           1.3984    1.0978   29.3038 C.3     1  UNL1        0.0374
      3 C           1.5445    1.4920   30.7437 C.3     1  UNL1        0.0738
      4 N           2.7213    1.0083   31.5380 N.3     1  UNL1       -0.2734
      5 C           3.7521    0.1303   30.8926 C.3     1  UNL1        0.0828
      6 C           3.6060   -0.2639   29.4527 C.3     1  UNL1        0.1103
      7 C           2.8674    1.4026   32.9779 C.3     1  UNL1        0.0575
      8 C           2.0248    2.5079   33.5421 C.3     1  UNL1        0.0160
      9 C           2.1709    2.9022   34.9820 C.3     1  UNL1        0.0014
     10 C           3.1596    2.1911   35.8577 C.3     1  UNL1        0.0001
     11 C           4.0022    1.0857   35.2935 C.3     1  UNL1        0.0014
     12 C           3.8561    0.6915   33.8537 C.3     1  UNL1        0.0160
     13 O           3.6380    1.9248   26.5063 O.2     1  UNL1       -0.2684
     14 C           2.8875    0.6781   26.1424 C.2     1  UNL1        0.2669
     15 N           2.2831   -0.1744   27.2184 N.am    1  UNL1       -0.3006
     16 H           1.7905   -0.9927   26.9796 H       1  UNL1        0.1497
     17 C           2.7415    0.2838   24.7025 C.ar    1  UNL1        0.1761
     18 C           3.4519   -0.8485   24.0220 C.ar    1  UNL1        0.0673
     19 C           3.0089   -0.8794   22.5893 C.ar    1  UNL1        0.1792
     20 O           2.0246    0.2338   22.3843 O.2     1  UNL1       -0.3532
     21 N           1.8594    0.9527   23.6904 N.ar    1  UNL1       -0.0723
     22 C           3.4692   -1.8527   21.5448 C.ar    1  UNL1        0.0648
     23 C           4.4074   -2.9628   21.9157 C.ar    1  UNL1        0.0077
     24 C           4.8677   -3.9361   20.8713 C.ar    1  UNL1        0.0299
     25 C           4.3900   -3.7992   19.4560 C.ar    1  UNL1        0.1424
     26 F           4.8503   -4.7724   18.4116 F       1  UNL1       -0.2041
     27 C           3.4519   -2.6891   19.0852 C.ar    1  UNL1        0.0593
     28 C           2.9915   -1.7159   20.1296 C.ar    1  UNL1        0.1453
     29 F           2.0534   -0.6057   19.7588 F       1  UNL1       -0.2040
     30 C           4.6368   -1.1419   28.8072 C.2     1  UNL1        0.2252
     31 O           4.2321   -2.1106   27.7359 O.2     1  UNL1       -0.2750
     32 N           6.0722   -1.0511   29.2330 N.am    1  UNL1       -0.3025
     33 H           6.3378   -0.4152   29.9361 H       1  UNL1        0.1497
     34 C           7.1030   -1.9290   28.5875 C.3     1  UNL1        0.0921
     35 C           8.1541   -2.3948   27.6240 C.3     1  UNL1        0.0258
     36 C           7.5194   -1.0471   27.4478 C.3     1  UNL1        0.0258
     37 C           7.0445   -3.1158   29.5029 C.ar    1  UNL1        0.0749
     38 C           6.9527   -2.9147   30.9866 C.ar    1  UNL1        0.0163
     39 C           6.8942   -4.1015   31.9022 C.ar    1  UNL1        0.0029
     40 C           6.9277   -5.4893   31.3340 C.ar    1  UNL1        0.0207
     41 C           7.0195   -5.6904   29.8504 C.ar    1  UNL1        0.0985
     42 N           7.0780   -4.5036   28.9348 N.ar    1  UNL1       -0.2466
@<TRIPOS>BOND
     1    13    14    2
     2    14    15   am
     3     1    15    1
     4     1     2    1
     5     2     3    1
     6     3     4    1
     7     4     7    1
     8     7     8    1
     9     8     9    1
    10     9    10    1
    11    10    11    1
    12    11    12    1
    13     4     5    1
    14     5     6    1
    15     6    30    1
    16    30    31    2
    17    30    32   am
    18    32    34    1
    19    34    37    1
    20    37    38   ar
    21    38    39   ar
    22    39    40   ar
    23    40    41   ar
    24    41    42   ar
    25    34    35    1
    26    35    36    1
    27    14    17    1
    28    17    18   ar
    29    18    19   ar
    30    19    22    1
    31    22    23   ar
    32    23    24   ar
    33    24    25   ar
    34    25    26    1
    35    25    27   ar
    36    27    28   ar
    37    28    29    1
    38    19    20   ar
    39    20    21   ar
    40     6     1    1
    41    36    34    1
    42    21    17   ar
    43    12     7    1
    44    42    37   ar
    45    28    22   ar
    46    15    16    1
    47    32    33    1
@<TRIPOS>MOLECULE
*****
 42 47 0 0 0
SMALL
GASTEIGER

@<TRIPOS>ATOM
      1 C           6.0646   -2.0609   25.8769 C.3     1  UNL1        0.0832
      2 C           5.2186   -1.0111   25.2195 C.3     1  UNL1        0.0374
      3 C           4.6501   -1.2535   23.8528 C.3     1  UNL1        0.0738
      4 N           4.9275   -2.5457   23.1435 N.3     1  UNL1       -0.2734
      5 C           5.7735   -3.5955   23.8008 C.3     1  UNL1        0.0828
      6 C           6.3420   -3.3531   25.1676 C.3     1  UNL1        0.1103
      7 C           4.3590   -2.7881   21.7767 C.3     1  UNL1        0.0575
      8 C           3.5459   -1.7229   21.1028 C.3     1  UNL1        0.0160
      9 C           2.9774   -1.9653   19.7360 C.3     1  UNL1        0.0014
     10 C           3.2219   -3.2730   19.0431 C.3     1  UNL1        0.0001
     11 C           4.0350   -4.3383   19.7170 C.3     1  UNL1        0.0014
     12 C           4.6035   -4.0958   21.0838 C.3     1  UNL1        0.0160
     13 O           4.2500   -1.3093   28.1446 O.2     1  UNL1       -0.2684
     14 C           5.7259   -1.4427   28.3775 C.2     1  UNL1        0.2669
     15 N           6.6331   -1.8185   27.2437 N.am    1  UNL1       -0.3006
     16 H           7.6018   -1.9060   27.3965 H       1  UNL1        0.1497
     17 C           6.2944   -1.2003   29.7443 C.ar    1  UNL1        0.1761
     18 C           5.5194   -0.7912   30.9617 C.ar    1  UNL1        0.0673
     19 C           6.4837   -0.6625   32.1034 C.ar    1  UNL1        0.1792
     20 O           7.8547   -0.9921   31.5916 O.2     1  UNL1       -0.3532
     21 N           7.7376   -1.3244   30.1336 N.ar    1  UNL1       -0.0723
     22 C           6.1379   -0.2727   33.5100 C.ar    1  UNL1        0.0648
     23 C           6.7457    0.9561   34.1188 C.ar    1  UNL1        0.0077
     24 C           6.3999    1.3459   35.5253 C.ar    1  UNL1        0.0299
     25 C           5.4461    0.5069   36.3231 C.ar    1  UNL1        0.1424
     26 F           5.1003    0.8967   37.7296 F       1  UNL1       -0.2041
     27 C           4.8383   -0.7218   35.7143 C.ar    1  UNL1        0.0593
     28 C           5.1841   -1.1116   34.3078 C.ar    1  UNL1        0.1453
     29 F           4.5763   -2.3404   33.6990 F       1  UNL1       -0.2040
     30 C           7.1881   -4.4029   25.8250 C.2     1  UNL1        0.2252
     31 O           8.6813   -4.3553   25.6908 O.2     1  UNL1       -0.2750
     32 N           6.5408   -5.5004   26.6167 N.am    1  UNL1       -0.3025
     33 H           5.5608   -5.5316   26.7047 H       1  UNL1        0.1497
     34 C           7.3868   -6.5502   27.2741 C.3     1  UNL1        0.0921
     35 C           8.1382   -7.8327   27.4752 C.3     1  UNL1        0.0258
     36 C           7.4084   -7.5849   26.1883 C.3     1  UNL1        0.0258
     37 C           7.6590   -5.8801   28.5882 C.ar    1  UNL1        0.0749
     38 C           6.5231   -5.3308   29.3995 C.ar    1  UNL1        0.0163
     39 C           6.7953   -4.6607   30.7137 C.ar    1  UNL1        0.0029
     40 C           8.2033   -4.5398   31.2164 C.ar    1  UNL1        0.0207
     41 C           9.3392   -5.0891   30.4051 C.ar    1  UNL1        0.0985
     42 N           9.0670   -5.7592   29.0910 N.ar    1  UNL1       -0.2466
@<TRIPOS>BOND
     1    13    14    2
     2    14    15   am
     3     1    15    1
     4     1     2    1
     5     2     3    1
     6     3     4    1
     7     4     7    1
     8     7     8    1
     9     8     9    1
    10     9    10    1
    11    10    11    1
    12    11    12    1
    13     4     5    1
    14     5     6    1
    15     6    30    1
    16    30    31    2
    17    30    32   am
    18    32    34    1
    19    34    37    1
    20    37    38   ar
    21    38    39   ar
    22    39    40   ar
    23    40    41   ar
    24    41    42   ar
    25    34    35    1
    26    35    36    1
    27    14    17    1
    28    17    18   ar
    29    18    19   ar
    30    19    22    1
    31    22    23   ar
    32    23    24   ar
    33    24    25   ar
    34    25    26    1
    35    25    27   ar
    36    27    28   ar
    37    28    29    1
    38    19    20   ar
    39    20    21   ar
    40     6     1    1
    41    36    34    1
    42    21    17   ar
    43    12     7    1
    44    42    37   ar
    45    28    22   ar
    46    15    16    1
    47    32    33    1
@<TRIPOS>MOLECULE
*****
 42 47 0 0 0
SMALL
GASTEIGER

@<TRIPOS>ATOM
      1 C           6.2721   -2.2583   24.1542 C.3     1  UNL1        0.0832
      2 C           6.6803   -2.1067   25.5896 C.3     1  UNL1        0.0374
      3 C           7.1574   -3.2997   26.3636 C.3     1  UNL1        0.0738
      4 N           7.2264   -4.6442   25.7022 N.3     1  UNL1       -0.2734
      5 C           6.8182   -4.7958   24.2668 C.3     1  UNL1        0.0828
      6 C           6.3410   -3.6029   23.4928 C.3     1  UNL1        0.1103
      7 C           7.7036   -5.8372   26.4763 C.3     1  UNL1        0.0575
      8 C           7.8966   -7.1531   25.7827 C.3     1  UNL1        0.0160
      9 C           8.3738   -8.3461   26.5568 C.3     1  UNL1        0.0014
     10 C           8.6579   -8.2231   28.0245 C.3     1  UNL1        0.0001
     11 C           8.4648   -6.9072   28.7181 C.3     1  UNL1        0.0014
     12 C           7.9877   -5.7143   27.9440 C.3     1  UNL1        0.0160
     13 O           3.4758   -1.2417   24.5381 O.2     1  UNL1       -0.2684
     14 C           4.3968   -0.5570   23.5721 C.2     1  UNL1        0.2669
     15 N           5.7949   -1.0653   23.3801 N.am    1  UNL1       -0.3006
     16 H           6.3993   -0.6160   22.7461 H       1  UNL1        0.1497
     17 C           3.9196    0.6359   22.7981 C.ar    1  UNL1        0.1761
     18 C           2.6666    0.7105   21.9768 C.ar    1  UNL1        0.0673
     19 C           2.5842    2.0844   21.3805 C.ar    1  UNL1        0.1792
     20 O           3.7863    2.8590   21.8333 O.2     1  UNL1       -0.3532
     21 N           4.6116    1.9638   22.7094 N.ar    1  UNL1       -0.0723
     22 C           1.4916    2.5942   20.4882 C.ar    1  UNL1        0.0648
     23 C           1.8216    3.1142   19.1205 C.ar    1  UNL1        0.0077
     24 C           0.7290    3.6241   18.2281 C.ar    1  UNL1        0.0299
     25 C          -0.6937    3.6138   18.7036 C.ar    1  UNL1        0.1424
     26 F          -1.7863    4.1237   17.8112 F       1  UNL1       -0.2041
     27 C          -1.0236    3.0938   20.0712 C.ar    1  UNL1        0.0593
     28 C           0.0690    2.5840   20.9635 C.ar    1  UNL1        0.1453
     29 F          -0.2610    2.0640   22.3313 F       1  UNL1       -0.2040
     30 C           5.9328   -3.7545   22.0574 C.2     1  UNL1        0.2252
     31 O           6.8944   -4.3310   21.0610 O.2     1  UNL1       -0.2750
     32 N           4.5629   -3.3295   21.6184 N.am    1  UNL1       -0.3025
     33 H           3.9317   -2.9511   22.2724 H       1  UNL1        0.1497
     34 C           4.1546   -3.4810   20.1830 C.3     1  UNL1        0.0921
     35 C           3.6760   -4.1213   18.9138 C.3     1  UNL1        0.0258
     36 C           3.8104   -4.9409   20.1629 C.3     1  UNL1        0.0258
     37 C           4.3570   -2.0739   19.7047 C.ar    1  UNL1        0.0749
     38 C           3.3538   -1.4426   18.7854 C.ar    1  UNL1        0.0163
     39 C           3.5562   -0.0353   18.3070 C.ar    1  UNL1        0.0029
     40 C           4.7618    0.7405   18.7479 C.ar    1  UNL1        0.0207
     41 C           5.7650    0.1093   19.6672 C.ar    1  UNL1        0.0985
     42 N           5.5627   -1.2979   20.1456 N.ar    1  UNL1       -0.2466
@<TRIPOS>BOND
     1    13    14    2
     2    14    15   am
     3     1    15    1
     4     1     2    1
     5     2     3    1
     6     3     4    1
     7     4     7    1
     8     7     8    1
     9     8     9    1
    10     9    10    1
    11    10    11    1
    12    11    12    1
    13     4     5    1
    14     5     6    1
    15     6    30    1
    16    30    31    2
    17    30    32   am
    18    32    34    1
    19    34    37    1
    20    37    38   ar
    21    38    39   ar
    22    39    40   ar
    23    40    41   ar
    24    41    42   ar
    25    34    35    1
    26    35    36    1
    27    14    17    1
    28    17    18   ar
    29    18    19   ar
    30    19    22    1
    31    22    23   ar
    32    23    24   ar
    33    24    25   ar
    34    25    26    1
    35    25    27   ar
    36    27    28   ar
    37    28    29    1
    38    19    20   ar
    39    20    21   ar
    40     6     1    1
    41    36    34    1
    42    21    17   ar
    43    12     7    1
    44    42    37   ar
    45    28    22   ar
    46    15    16    1
    47    32    33    1
@<TRIPOS>MOLECULE
*****
 42 47 0 0 0
SMALL
GASTEIGER

@<TRIPOS>ATOM
      1 C           3.7576    0.1477   33.2487 C.3     1  UNL1        0.0832
      2 C           3.9774    0.6385   34.6489 C.3     1  UNL1        0.0374
      3 C           3.2852    1.8810   35.1254 C.3     1  UNL1        0.0738
      4 N           2.3733    2.6327   34.2016 N.3     1  UNL1       -0.2734
      5 C           2.1536    2.1419   32.8013 C.3     1  UNL1        0.0828
      6 C           2.8457    0.8994   32.3249 C.3     1  UNL1        0.1103
      7 C           1.6812    3.8752   34.6781 C.3     1  UNL1        0.0575
      8 C           0.8492    4.6823   33.7261 C.3     1  UNL1        0.0160
      9 C           0.1571    5.9249   34.2027 C.3     1  UNL1        0.0014
     10 C           0.2969    6.3603   35.6312 C.3     1  UNL1        0.0001
     11 C           1.1290    5.5532   36.5833 C.3     1  UNL1        0.0014
     12 C           1.8211    4.3107   36.1067 C.3     1  UNL1        0.0160
     13 O           6.4388    0.3412   31.9168 O.2     1  UNL1       -0.2684
     14 C           5.7904   -0.9982   32.1062 C.2     1  UNL1        0.2669
     15 N           4.4498   -1.0949   32.7721 N.am    1  UNL1       -0.3006
     16 H           4.0242   -1.9739   32.8964 H       1  UNL1        0.1497
     17 C           6.4825   -2.2406   31.6297 C.ar    1  UNL1        0.1761
     18 C           6.2623   -2.9223   30.3117 C.ar    1  UNL1        0.0673
     19 C           7.1601   -4.1226   30.2549 C.ar    1  UNL1        0.1792
     20 O           7.9352   -4.1827   31.5378 O.2     1  UNL1       -0.3532
     21 N           7.5164   -3.0196   32.3874 N.ar    1  UNL1       -0.0723
     22 C           7.2645   -5.0924   29.1154 C.ar    1  UNL1        0.0648
     23 C           8.0655   -6.3509   29.2726 C.ar    1  UNL1        0.0077
     24 C           8.1699   -7.3207   28.1330 C.ar    1  UNL1        0.0299
     25 C           7.4732   -7.0320   26.8364 C.ar    1  UNL1        0.1424
     26 F           7.5776   -8.0019   25.6969 F       1  UNL1       -0.2041
     27 C           6.6723   -5.7737   26.6792 C.ar    1  UNL1        0.0593
     28 C           6.5679   -4.8038   27.8187 C.ar    1  UNL1        0.1453
     29 F           5.7669   -3.5454   27.6616 F       1  UNL1       -0.2040
     30 C           2.6260    0.4085   30.9245 C.2     1  UNL1        0.2252
     31 O           1.9603   -0.9150   30.6895 O.2     1  UNL1       -0.2750
     32 N           3.0719    1.2412   29.7593 N.am    1  UNL1       -0.3025
     33 H           3.5089    2.1098   29.9136 H       1  UNL1        0.1497
     34 C           2.8522    0.7504   28.3590 C.3     1  UNL1        0.0921
     35 C           3.0562   -0.0157   27.0857 C.3     1  UNL1        0.0258
     36 C           3.9958   -0.2128   28.2382 C.3     1  UNL1        0.0258
     37 C           1.6324    1.5430   27.9936 C.ar    1  UNL1        0.0749
     38 C           0.6052    0.9563   27.0712 C.ar    1  UNL1        0.0163
     39 C          -0.6147    1.7490   26.7057 C.ar    1  UNL1        0.0029
     40 C          -0.8074    3.1283   27.2625 C.ar    1  UNL1        0.0207
     41 C           0.2198    3.7151   28.1848 C.ar    1  UNL1        0.0985
     42 N           1.4397    2.9225   28.5504 N.ar    1  UNL1       -0.2466
@<TRIPOS>BOND
     1    13    14    2
     2    14    15   am
     3     1    15    1
     4     1     2    1
     5     2     3    1
     6     3     4    1
     7     4     7    1
     8     7     8    1
     9     8     9    1
    10     9    10    1
    11    10    11    1
    12    11    12    1
    13     4     5    1
    14     5     6    1
    15     6    30    1
    16    30    31    2
    17    30    32   am
    18    32    34    1
    19    34    37    1
    20    37    38   ar
    21    38    39   ar
    22    39    40   ar
    23    40    41   ar
    24    41    42   ar
    25    34    35    1
    26    35    36    1
    27    14    17    1
    28    17    18   ar
    29    18    19   ar
    30    19    22    1
    31    22    23   ar
    32    23    24   ar
    33    24    25   ar
    34    25    26    1
    35    25    27   ar
    36    27    28   ar
    37    28    29    1
    38    19    20   ar
    39    20    21   ar
    40     6     1    1
    41    36    34    1
    42    21    17   ar
    43    12     7    1
    44    42    37   ar
    45    28    22   ar
    46    15    16    1
    47    32    33    1
@<TRIPOS>MOLECULE
*****
 42 47 0 0 0
SMALL
GASTEIGER

@<TRIPOS>ATOM
      1 C           6.5430   -3.5148   23.2273 C.3     1  UNL1        0.0832
      2 C           7.2974   -4.7641   22.8808 C.3     1  UNL1        0.0374
      3 C           7.8279   -5.6467   23.9714 C.3     1  UNL1        0.0738
      4 N           7.6040   -5.2800   25.4085 N.3     1  UNL1       -0.2734
      5 C           6.8496   -4.0307   25.7551 C.3     1  UNL1        0.0828
      6 C           6.3191   -3.1481   24.6644 C.3     1  UNL1        0.1103
      7 C           8.1345   -6.1627   26.4992 C.3     1  UNL1        0.0575
      8 C           8.6954   -5.5543   27.7503 C.3     1  UNL1        0.0160
      9 C           9.2259   -6.4370   28.8409 C.3     1  UNL1        0.0014
     10 C           9.1955   -7.9281   28.6805 C.3     1  UNL1        0.0001
     11 C           8.6346   -8.5365   27.4293 C.3     1  UNL1        0.0014
     12 C           8.1041   -7.6538   26.3387 C.3     1  UNL1        0.0160
     13 O           4.2956   -4.4699   21.4845 O.2     1  UNL1       -0.2684
     14 C           4.8888   -3.1097   21.2652 C.2     1  UNL1        0.2669
     15 N           6.0125   -2.6321   22.1366 N.am    1  UNL1       -0.3006
     16 H           6.4018   -1.7394   21.9927 H       1  UNL1        0.1497
     17 C           4.3583   -2.2271   20.1746 C.ar    1  UNL1        0.1761
     18 C           3.6827   -0.9012   20.3636 C.ar    1  UNL1        0.0673
     19 C           3.3170   -0.3701   19.0093 C.ar    1  UNL1        0.1792
     20 O           3.7666   -1.3677   17.9833 O.2     1  UNL1       -0.3532
     21 N           4.4101   -2.5154   18.7035 N.ar    1  UNL1       -0.0723
     22 C           2.6236    0.9303   18.7300 C.ar    1  UNL1        0.0648
     23 C           1.1364    0.9608   18.5363 C.ar    1  UNL1        0.0077
     24 C           0.4429    2.2612   18.2570 C.ar    1  UNL1        0.0299
     25 C           1.2366    3.5311   18.1714 C.ar    1  UNL1        0.1424
     26 F           0.5431    4.8315   17.8921 F       1  UNL1       -0.2041
     27 C           2.7237    3.5007   18.3650 C.ar    1  UNL1        0.0593
     28 C           3.4171    2.2003   18.6443 C.ar    1  UNL1        0.1453
     29 F           4.9043    2.1698   18.8380 F       1  UNL1       -0.2040
     30 C           5.5647   -1.8987   25.0109 C.2     1  UNL1        0.2252
     31 O           6.1412   -0.5561   24.6717 O.2     1  UNL1       -0.2750
     32 N           4.2339   -1.9920   25.6966 N.am    1  UNL1       -0.3025
     33 H           3.8556   -2.8732   25.9192 H       1  UNL1        0.1497
     34 C           3.4795   -0.7427   26.0430 C.3     1  UNL1        0.0921
     35 C           2.6796    0.5144   25.8706 C.3     1  UNL1        0.0258
     36 C           3.0865   -0.2863   24.6692 C.3     1  UNL1        0.0258
     37 C           3.6104   -0.7653   27.5371 C.ar    1  UNL1        0.0749
     38 C           4.9609   -0.9282   28.1693 C.ar    1  UNL1        0.0163
     39 C           5.0919   -0.9508   29.6635 C.ar    1  UNL1        0.0029
     40 C           3.8723   -0.8103   30.5253 C.ar    1  UNL1        0.0207
     41 C           2.5219   -0.6474   29.8932 C.ar    1  UNL1        0.0985
     42 N           2.3908   -0.6248   28.3991 N.ar    1  UNL1       -0.2466
@<TRIPOS>BOND
     1    13    14    2
     2    14    15   am
     3     1    15    1
     4     1     2    1
     5     2     3    1
     6     3     4    1
     7     4     7    1
     8     7     8    1
     9     8     9    1
    10     9    10    1
    11    10    11    1
    12    11    12    1
    13     4     5    1
    14     5     6    1
    15     6    30    1
    16    30    31    2
    17    30    32   am
    18    32    34    1
    19    34    37    1
    20    37    38   ar
    21    38    39   ar
    22    39    40   ar
    23    40    41   ar
    24    41    42   ar
    25    34    35    1
    26    35    36    1
    27    14    17    1
    28    17    18   ar
    29    18    19   ar
    30    19    22    1
    31    22    23   ar
    32    23    24   ar
    33    24    25   ar
    34    25    26    1
    35    25    27   ar
    36    27    28   ar
    37    28    29    1
    38    19    20   ar
    39    20    21   ar
    40     6     1    1
    41    36    34    1
    42    21    17   ar
    43    12     7    1
    44    42    37   ar
    45    28    22   ar
    46    15    16    1
    47    32    33    1
