@<TRIPOS>MOLECULE
*****
 34 37 0 0 0
SMALL
GASTEIGER

@<TRIPOS>ATOM
      1 C           5.7461   -1.5652   29.6359 C.ar    1  UNL1        0.0305
      2 C           5.4594   -1.0664   31.0212 C.ar    1  UNL1        0.0049
      3 C           5.6526   -1.9738   32.1999 C.ar    1  UNL1        0.0536
      4 C           6.1323   -3.3799   31.9933 C.ar    1  UNL1        0.0107
      5 C           6.4190   -3.8786   30.6080 C.ar    1  UNL1        0.0735
      6 C           6.8988   -5.2847   30.4014 C.ar    1  UNL1        0.2030
      7 O           7.0919   -6.1921   31.5801 O.2     1  UNL1       -0.2863
      8 C           7.1855   -5.7835   29.0161 C.ar    1  UNL1        0.0955
      9 C           6.9924   -4.8761   27.8374 C.ar    1  UNL1        0.2024
     10 O           6.5126   -3.4700   28.0439 O.2     1  UNL1       -0.4400
     11 C           6.2259   -2.9713   29.4293 C.ar    1  UNL1        0.1474
     12 N           7.2791   -5.3748   26.4521 N.pl3   1  UNL1       -0.2742
     13 C           7.6982   -6.7993   26.2396 C.3     1  UNL1        0.1257
     14 C           7.9849   -7.2980   24.8542 C.3     1  UNL1        0.1637
     15 O           7.8525   -6.3723   23.6815 O.3     1  UNL1       -0.3501
     16 C           7.4333   -4.9478   23.8940 C.3     1  UNL1        0.1637
     17 C           7.1466   -4.4491   25.2792 C.3     1  UNL1        0.1257
     18 C           5.3659   -1.4751   33.5852 C.2     1  UNL1        0.2491
     19 O           4.0388   -1.7580   34.2245 O.2     1  UNL1       -0.2699
     20 N           6.4063   -0.6935   34.3312 N.am    1  UNL1       -0.2726
     21 C           6.1197   -0.1947   35.7165 C.3     1  UNL1        0.1152
     22 C           7.7335   -0.4105   33.6918 C.3     1  UNL1        0.1152
     23 C           6.6940    0.1800   27.9607 C.3     1  UNL1        0.0264
     24 C           5.5530   -0.6578   28.4571 C.3     1  UNL1        0.0984
     25 N           4.2190   -0.5882   27.7748 N.pl3   1  UNL1       -0.3034
     26 C           4.0376   -1.2020   26.4182 C.3     1  UNL1        0.1124
     27 C           3.0664    0.0952   28.4491 C.ar    1  UNL1        0.0526
     28 C           1.7192   -0.5635   28.4821 C.ar    1  UNL1        0.0443
     29 C           0.5666    0.1198   29.1564 C.ar    1  UNL1        0.1436
     30 F          -0.7806   -0.5388   29.1894 F       1  UNL1       -0.2041
     31 C           0.7613    1.4618   29.7976 C.ar    1  UNL1        0.0593
     32 C           2.1086    2.1204   29.7646 C.ar    1  UNL1        0.1436
     33 F           2.3033    3.4624   30.4059 F       1  UNL1       -0.2041
     34 C           3.2612    1.4371   29.0904 C.ar    1  UNL1        0.0443
@<TRIPOS>BOND
     1    24    23    1
     2    24     1    1
     3     1     2   ar
     4     2     3   ar
     5     3    18    1
     6    18    19    2
     7    18    20   am
     8    20    21    1
     9    20    22    1
    10     3     4   ar
    11     4     5   ar
    12     5     6   ar
    13     6     7    2
    14     6     8   ar
    15     8     9   ar
    16     9    12    1
    17    12    13    1
    18    13    14    1
    19    14    15    1
    20    15    16    1
    21    16    17    1
    22     9    10   ar
    23    10    11   ar
    24    24    25    1
    25    25    26    1
    26    25    27    1
    27    27    28   ar
    28    28    29   ar
    29    29    30    1
    30    29    31   ar
    31    31    32   ar
    32    32    33    1
    33    32    34   ar
    34    11     1   ar
    35    34    27   ar
    36    11     5   ar
    37    17    12    1
@<TRIPOS>MOLECULE
*****
 34 37 0 0 0
SMALL
GASTEIGER

@<TRIPOS>ATOM
      1 C           3.6463   -2.1416   20.6673 C.ar    1  UNL1        0.0305
      2 C           2.6359   -1.2676   19.9852 C.ar    1  UNL1        0.0049
      3 C           1.9056   -0.2156   20.7660 C.ar    1  UNL1        0.0536
      4 C           2.1856   -0.0375   22.2289 C.ar    1  UNL1        0.0107
      5 C           3.1960   -0.9115   22.9109 C.ar    1  UNL1        0.0735
      6 C           3.4761   -0.7334   24.3737 C.ar    1  UNL1        0.2030
      7 O           2.7457    0.3186   25.1545 O.2     1  UNL1       -0.2863
      8 C           4.4865   -1.6074   25.0557 C.ar    1  UNL1        0.0955
      9 C           5.2169   -2.6595   24.2749 C.ar    1  UNL1        0.2024
     10 O           4.9368   -2.8376   22.8121 O.2     1  UNL1       -0.4400
     11 C           3.9264   -1.9635   22.1301 C.ar    1  UNL1        0.1474
     12 N           6.2273   -3.5335   24.9569 N.pl3   1  UNL1       -0.2742
     13 C           6.5561   -3.3117   26.4036 C.3     1  UNL1        0.1257
     14 C           7.5665   -4.1858   27.0856 C.3     1  UNL1        0.1637
     15 O           8.2481   -5.2816   26.3210 O.3     1  UNL1       -0.3501
     16 C           7.9193   -5.5033   24.8744 C.3     1  UNL1        0.1637
     17 C           6.9089   -4.6294   24.1923 C.3     1  UNL1        0.1257
     18 C           0.8951    0.6585   20.0840 C.2     1  UNL1        0.2491
     19 O          -0.5494    0.5859   20.4816 O.2     1  UNL1       -0.2699
     20 N           1.3292    1.6051   19.0044 N.am    1  UNL1       -0.2726
     21 C           0.3189    2.4791   18.3224 C.3     1  UNL1        0.1152
     22 C           2.7738    1.6776   18.6068 C.3     1  UNL1        0.1152
     23 C           3.6220   -4.3452   19.2911 C.3     1  UNL1        0.0264
     24 C           4.3768   -3.1937   19.8864 C.3     1  UNL1        0.0984
     25 N           5.8619   -3.0944   19.7010 N.pl3   1  UNL1       -0.3034
     26 C           6.7493   -4.2223   20.1371 C.3     1  UNL1        0.1124
     27 C           6.4597   -1.8670   19.0795 C.ar    1  UNL1        0.0526
     28 C           5.8240   -1.2551   17.8664 C.ar    1  UNL1        0.0443
     29 C           6.4218   -0.0278   17.2449 C.ar    1  UNL1        0.1436
     30 F           5.7861    0.5842   16.0319 F       1  UNL1       -0.2041
     31 C           7.6552    0.5876   17.8364 C.ar    1  UNL1        0.0593
     32 C           8.2909   -0.0243   19.0494 C.ar    1  UNL1        0.1436
     33 F           9.5244    0.5911   19.6409 F       1  UNL1       -0.2041
     34 C           7.6932   -1.2516   19.6709 C.ar    1  UNL1        0.0443
@<TRIPOS>BOND
     1    24    23    1
     2    24     1    1
     3     1     2   ar
     4     2     3   ar
     5     3    18    1
     6    18    19    2
     7    18    20   am
     8    20    21    1
     9    20    22    1
    10     3     4   ar
    11     4     5   ar
    12     5     6   ar
    13     6     7    2
    14     6     8   ar
    15     8     9   ar
    16     9    12    1
    17    12    13    1
    18    13    14    1
    19    14    15    1
    20    15    16    1
    21    16    17    1
    22     9    10   ar
    23    10    11   ar
    24    24    25    1
    25    25    26    1
    26    25    27    1
    27    27    28   ar
    28    28    29   ar
    29    29    30    1
    30    29    31   ar
    31    31    32   ar
    32    32    33    1
    33    32    34   ar
    34    11     1   ar
    35    34    27   ar
    36    11     5   ar
    37    17    12    1
@<TRIPOS>MOLECULE
*****
 34 37 0 0 0
SMALL
GASTEIGER

@<TRIPOS>ATOM
      1 C           1.9333    0.4257   22.4486 C.ar    1  UNL1        0.0305
      2 C           0.9471    1.4580   22.9088 C.ar    1  UNL1        0.0049
      3 C           0.8573    1.8134   24.3632 C.ar    1  UNL1        0.0536
      4 C           1.7536    1.1366   25.3575 C.ar    1  UNL1        0.0107
      5 C           2.7397    0.1044   24.8973 C.ar    1  UNL1        0.0735
      6 C           3.6361   -0.5724   25.8916 C.ar    1  UNL1        0.2030
      7 O           3.5462   -0.2169   27.3460 O.2     1  UNL1       -0.2863
      8 C           4.6222   -1.6047   25.4314 C.ar    1  UNL1        0.0955
      9 C           4.7121   -1.9602   23.9768 C.ar    1  UNL1        0.2024
     10 O           3.8158   -1.2835   22.9826 O.2     1  UNL1       -0.4400
     11 C           2.8296   -0.2511   23.4428 C.ar    1  UNL1        0.1474
     12 N           5.6983   -2.9925   23.5166 N.pl3   1  UNL1       -0.2742
     13 C           6.3303   -3.9215   24.5103 C.3     1  UNL1        0.1257
     14 C           7.3165   -4.9538   24.0501 C.3     1  UNL1        0.1637
     15 O           7.6706   -5.0571   22.5962 O.3     1  UNL1       -0.3501
     16 C           7.0386   -4.1281   21.6024 C.3     1  UNL1        0.1637
     17 C           6.0524   -3.0959   22.0626 C.3     1  UNL1        0.1257
     18 C          -0.1290    2.8458   24.8235 C.2     1  UNL1        0.2491
     19 O          -1.4818    2.4240   25.3151 O.2     1  UNL1       -0.2699
     20 N           0.2378    4.2999   24.7921 N.am    1  UNL1       -0.2726
     21 C          -0.7483    5.3322   25.2524 C.3     1  UNL1        0.1152
     22 C           1.5908    4.7217   24.3005 C.3     1  UNL1        0.1152
     23 C           0.7834   -0.2974   20.2338 C.3     1  UNL1        0.0264
     24 C           2.0231    0.0701   20.9940 C.3     1  UNL1        0.0984
     25 N           3.3527    0.0821   20.2998 N.pl3   1  UNL1       -0.3034
     26 C           4.1440    1.3537   20.2166 C.3     1  UNL1        0.1124
     27 C           3.8911   -1.1776   19.6887 C.ar    1  UNL1        0.0526
     28 C           5.2048   -1.1580   18.9648 C.ar    1  UNL1        0.0443
     29 C           5.7432   -2.4176   18.3537 C.ar    1  UNL1        0.1436
     30 F           7.0568   -2.3980   17.6298 F       1  UNL1       -0.2041
     31 C           4.9680   -3.6968   18.4665 C.ar    1  UNL1        0.0593
     32 C           3.6544   -3.7163   19.1904 C.ar    1  UNL1        0.1436
     33 F           2.8792   -4.9956   19.3033 F       1  UNL1       -0.2041
     34 C           3.1160   -2.4567   19.8015 C.ar    1  UNL1        0.0443
@<TRIPOS>BOND
     1    24    23    1
     2    24     1    1
     3     1     2   ar
     4     2     3   ar
     5     3    18    1
     6    18    19    2
     7    18    20   am
     8    20    21    1
     9    20    22    1
    10     3     4   ar
    11     4     5   ar
    12     5     6   ar
    13     6     7    2
    14     6     8   ar
    15     8     9   ar
    16     9    12    1
    17    12    13    1
    18    13    14    1
    19    14    15    1
    20    15    16    1
    21    16    17    1
    22     9    10   ar
    23    10    11   ar
    24    24    25    1
    25    25    26    1
    26    25    27    1
    27    27    28   ar
    28    28    29   ar
    29    29    30    1
    30    29    31   ar
    31    31    32   ar
    32    32    33    1
    33    32    34   ar
    34    11     1   ar
    35    34    27   ar
    36    11     5   ar
    37    17    12    1
@<TRIPOS>MOLECULE
*****
 34 37 0 0 0
SMALL
GASTEIGER

@<TRIPOS>ATOM
      1 C           3.7431   -2.1067   20.8114 C.ar    1  UNL1        0.0305
      2 C           2.7387   -1.2589   20.0887 C.ar    1  UNL1        0.0049
      3 C           1.9750   -0.2033   20.8319 C.ar    1  UNL1        0.0536
      4 C           2.2157    0.0044   22.2978 C.ar    1  UNL1        0.0107
      5 C           3.2200   -0.8434   23.0206 C.ar    1  UNL1        0.0735
      6 C           3.4607   -0.6356   24.4865 C.ar    1  UNL1        0.2030
      7 O           2.6970    0.4200   25.2297 O.2     1  UNL1       -0.2863
      8 C           4.4651   -1.4834   25.2092 C.ar    1  UNL1        0.0955
      9 C           5.2289   -2.5391   24.4660 C.ar    1  UNL1        0.2024
     10 O           4.9882   -2.7469   23.0001 O.2     1  UNL1       -0.4400
     11 C           3.9838   -1.8990   22.2773 C.ar    1  UNL1        0.1474
     12 N           6.2333   -3.3869   25.1887 N.pl3   1  UNL1       -0.2742
     13 C           6.8700   -4.5530   24.4925 C.3     1  UNL1        0.1257
     14 C           7.8744   -5.4009   25.2152 C.3     1  UNL1        0.1637
     15 O           8.2421   -5.0826   26.6342 O.3     1  UNL1       -0.3501
     16 C           7.6054   -3.9164   27.3304 C.3     1  UNL1        0.1637
     17 C           6.6010   -3.0686   26.6077 C.3     1  UNL1        0.1257
     18 C           0.9705    0.6446   20.1092 C.2     1  UNL1        0.2491
     19 O          -0.4872    0.5293   20.4433 O.2     1  UNL1       -0.2699
     20 N           1.4239    1.6077   19.0524 N.am    1  UNL1       -0.2726
     21 C           0.4196    2.4555   18.3297 C.3     1  UNL1        0.1152
     22 C           2.8817    1.7229   18.7182 C.3     1  UNL1        0.1152
     23 C           3.9251   -4.5355   19.9069 C.3     1  UNL1        0.0264
     24 C           4.5069   -3.1624   20.0682 C.3     1  UNL1        0.0984
     25 N           5.8525   -2.8449   19.4864 N.pl3   1  UNL1       -0.3034
     26 C           5.9771   -2.4916   18.0339 C.3     1  UNL1        0.1124
     27 C           7.0735   -2.8807   20.3570 C.ar    1  UNL1        0.0526
     28 C           7.6915   -4.1961   20.7284 C.ar    1  UNL1        0.0443
     29 C           8.9124   -4.2319   21.5989 C.ar    1  UNL1        0.1436
     30 F           9.5304   -5.5473   21.9703 F       1  UNL1       -0.2041
     31 C           9.5154   -2.9524   22.0981 C.ar    1  UNL1        0.0593
     32 C           8.8975   -1.6371   21.7267 C.ar    1  UNL1        0.1436
     33 F           9.5005   -0.3575   22.2259 F       1  UNL1       -0.2041
     34 C           7.6765   -1.6012   20.8561 C.ar    1  UNL1        0.0443
@<TRIPOS>BOND
     1    24    23    1
     2    24     1    1
     3     1     2   ar
     4     2     3   ar
     5     3    18    1
     6    18    19    2
     7    18    20   am
     8    20    21    1
     9    20    22    1
    10     3     4   ar
    11     4     5   ar
    12     5     6   ar
    13     6     7    2
    14     6     8   ar
    15     8     9   ar
    16     9    12    1
    17    12    13    1
    18    13    14    1
    19    14    15    1
    20    15    16    1
    21    16    17    1
    22     9    10   ar
    23    10    11   ar
    24    24    25    1
    25    25    26    1
    26    25    27    1
    27    27    28   ar
    28    28    29   ar
    29    29    30    1
    30    29    31   ar
    31    31    32   ar
    32    32    33    1
    33    32    34   ar
    34    11     1   ar
    35    34    27   ar
    36    11     5   ar
    37    17    12    1
@<TRIPOS>MOLECULE
*****
 34 37 0 0 0
SMALL
GASTEIGER

@<TRIPOS>ATOM
      1 C           5.6104   -1.6688   29.3740 C.ar    1  UNL1        0.0305
      2 C           5.3025   -1.1713   30.7552 C.ar    1  UNL1        0.0049
      3 C           5.5779   -2.0424   31.9448 C.ar    1  UNL1        0.0536
      4 C           6.1611   -3.4110   31.7533 C.ar    1  UNL1        0.0107
      5 C           6.4690   -3.9085   30.3722 C.ar    1  UNL1        0.0735
      6 C           7.0523   -5.2771   30.1807 C.ar    1  UNL1        0.2030
      7 O           7.3277   -6.1482   31.3703 O.2     1  UNL1       -0.2863
      8 C           7.3602   -5.7747   28.7995 C.ar    1  UNL1        0.0955
      9 C           7.0848   -4.9036   27.6098 C.ar    1  UNL1        0.2024
     10 O           6.5015   -3.5350   27.8013 O.2     1  UNL1       -0.4400
     11 C           6.1936   -3.0374   29.1825 C.ar    1  UNL1        0.1474
     12 N           7.3927   -5.4011   26.2286 N.pl3   1  UNL1       -0.2742
     13 C           7.3651   -4.4532   25.0665 C.3     1  UNL1        0.1257
     14 C           7.6730   -4.9508   23.6853 C.3     1  UNL1        0.1637
     15 O           8.0085   -6.3963   23.4663 O.3     1  UNL1       -0.3501
     16 C           8.0360   -7.3442   24.6285 C.3     1  UNL1        0.1637
     17 C           7.7281   -6.8467   26.0096 C.3     1  UNL1        0.1257
     18 C           5.2700   -1.5448   33.3261 C.2     1  UNL1        0.2491
     19 O           3.9420   -1.8485   33.9539 O.2     1  UNL1       -0.2699
     20 N           6.2901   -0.7436   34.0793 N.am    1  UNL1       -0.2726
     21 C           5.9823   -0.2461   35.4605 C.3     1  UNL1        0.1152
     22 C           7.6181   -0.4399   33.4514 C.3     1  UNL1        0.1152
     23 C           6.4315    0.0430   27.6004 C.3     1  UNL1        0.0264
     24 C           5.3350   -0.7977   28.1843 C.3     1  UNL1        0.0984
     25 N           3.9631   -0.7674   27.5784 N.pl3   1  UNL1       -0.3034
     26 C           2.7556   -0.6567   28.4613 C.3     1  UNL1        0.1124
     27 C           3.7988   -0.8477   26.0895 C.ar    1  UNL1        0.0526
     28 C           2.9829    0.1839   25.3683 C.ar    1  UNL1        0.0443
     29 C           2.8185    0.1036   23.8796 C.ar    1  UNL1        0.1436
     30 F           2.0026    1.1351   23.1583 F       1  UNL1       -0.2041
     31 C           3.4701   -1.0083   23.1120 C.ar    1  UNL1        0.0593
     32 C           4.2861   -2.0398   23.8332 C.ar    1  UNL1        0.1436
     33 F           4.9377   -3.1517   23.0656 F       1  UNL1       -0.2041
     34 C           4.4504   -1.9595   25.3220 C.ar    1  UNL1        0.0443
@<TRIPOS>BOND
     1    24    23    1
     2    24     1    1
     3     1     2   ar
     4     2     3   ar
     5     3    18    1
     6    18    19    2
     7    18    20   am
     8    20    21    1
     9    20    22    1
    10     3     4   ar
    11     4     5   ar
    12     5     6   ar
    13     6     7    2
    14     6     8   ar
    15     8     9   ar
    16     9    12    1
    17    12    13    1
    18    13    14    1
    19    14    15    1
    20    15    16    1
    21    16    17    1
    22     9    10   ar
    23    10    11   ar
    24    24    25    1
    25    25    26    1
    26    25    27    1
    27    27    28   ar
    28    28    29   ar
    29    29    30    1
    30    29    31   ar
    31    31    32   ar
    32    32    33    1
    33    32    34   ar
    34    11     1   ar
    35    34    27   ar
    36    11     5   ar
    37    17    12    1
@<TRIPOS>MOLECULE
*****
 34 37 0 0 0
SMALL
GASTEIGER

@<TRIPOS>ATOM
      1 C           3.4266   -0.0991   23.8263 C.ar    1  UNL1        0.0305
      2 C           2.4748    0.5246   22.8490 C.ar    1  UNL1        0.0049
      3 C           2.2216   -0.1331   21.5249 C.ar    1  UNL1        0.0536
      4 C           2.9201   -1.4144   21.1781 C.ar    1  UNL1        0.0107
      5 C           3.8719   -2.0381   22.1554 C.ar    1  UNL1        0.0735
      6 C           4.5705   -3.3194   21.8086 C.ar    1  UNL1        0.2030
      7 O           4.3172   -3.9770   20.4845 O.2     1  UNL1       -0.2863
      8 C           5.5223   -3.9430   22.7858 C.ar    1  UNL1        0.0955
      9 C           5.7756   -3.2853   24.1100 C.ar    1  UNL1        0.2024
     10 O           5.0770   -2.0040   24.4568 O.2     1  UNL1       -0.4400
     11 C           4.1252   -1.3804   23.4795 C.ar    1  UNL1        0.1474
     12 N           6.7274   -3.9089   25.0873 N.pl3   1  UNL1       -0.2742
     13 C           7.5794   -5.0700   24.6677 C.3     1  UNL1        0.1257
     14 C           8.5313   -5.6936   25.6451 C.3     1  UNL1        0.1637
     15 O           8.6311   -5.1562   27.0419 O.3     1  UNL1       -0.3501
     16 C           7.7790   -3.9951   27.4615 C.3     1  UNL1        0.1637
     17 C           6.8272   -3.3715   26.4842 C.3     1  UNL1        0.1257
     18 C           1.2697    0.4905   20.5476 C.2     1  UNL1        0.2491
     19 O          -0.1995    0.2045   20.6449 O.2     1  UNL1       -0.2699
     20 N           1.7872    1.4001   19.4729 N.am    1  UNL1       -0.2726
     21 C           0.8354    2.0237   18.4956 C.3     1  UNL1        0.1152
     22 C           3.2565    1.6861   19.3756 C.3     1  UNL1        0.1152
     23 C           4.6285    1.7169   25.2433 C.3     1  UNL1        0.0264
     24 C           3.6799    0.5586   25.1505 C.3     1  UNL1        0.0984
     25 N           2.9846    0.0581   26.3817 N.pl3   1  UNL1       -0.3034
     26 C           3.5710   -1.0795   27.1641 C.3     1  UNL1        0.1124
     27 C           1.7029    0.6951   26.8306 C.ar    1  UNL1        0.0526
     28 C           1.3896    0.7997   28.2938 C.ar    1  UNL1        0.0443
     29 C           0.1080    1.4366   28.7427 C.ar    1  UNL1        0.1436
     30 F          -0.2053    1.5412   30.2059 F       1  UNL1       -0.2041
     31 C          -0.8604    1.9690   27.7284 C.ar    1  UNL1        0.0593
     32 C          -0.5472    1.8644   26.2652 C.ar    1  UNL1        0.1436
     33 F          -1.5156    2.3968   25.2510 F       1  UNL1       -0.2041
     34 C           0.7345    1.2274   25.8163 C.ar    1  UNL1        0.0443
@<TRIPOS>BOND
     1    24    23    1
     2    24     1    1
     3     1     2   ar
     4     2     3   ar
     5     3    18    1
     6    18    19    2
     7    18    20   am
     8    20    21    1
     9    20    22    1
    10     3     4   ar
    11     4     5   ar
    12     5     6   ar
    13     6     7    2
    14     6     8   ar
    15     8     9   ar
    16     9    12    1
    17    12    13    1
    18    13    14    1
    19    14    15    1
    20    15    16    1
    21    16    17    1
    22     9    10   ar
    23    10    11   ar
    24    24    25    1
    25    25    26    1
    26    25    27    1
    27    27    28   ar
    28    28    29   ar
    29    29    30    1
    30    29    31   ar
    31    31    32   ar
    32    32    33    1
    33    32    34   ar
    34    11     1   ar
    35    34    27   ar
    36    11     5   ar
    37    17    12    1
@<TRIPOS>MOLECULE
*****
 34 37 0 0 0
SMALL
GASTEIGER

@<TRIPOS>ATOM
      1 C          -0.2435    3.1888   23.8897 C.ar    1  UNL1        0.0305
      2 C           0.2650    3.1131   25.2988 C.ar    1  UNL1        0.0049
      3 C          -0.6972    3.1767   26.4477 C.ar    1  UNL1        0.0536
      4 C          -2.1679    3.3158   26.1875 C.ar    1  UNL1        0.0107
      5 C          -2.6764    3.3914   24.7784 C.ar    1  UNL1        0.0735
      6 C          -4.1471    3.5306   24.5181 C.ar    1  UNL1        0.2030
      7 O          -5.1093    3.5941   25.6670 O.2     1  UNL1       -0.2863
      8 C          -4.6555    3.6062   23.1090 C.ar    1  UNL1        0.0955
      9 C          -3.6933    3.5427   21.9600 C.ar    1  UNL1        0.2024
     10 O          -2.2226    3.4035   22.2202 O.2     1  UNL1       -0.4400
     11 C          -1.7141    3.3279   23.6294 C.ar    1  UNL1        0.1474
     12 N          -4.2017    3.6183   20.5509 N.pl3   1  UNL1       -0.2742
     13 C          -5.6690    3.4747   20.2742 C.3     1  UNL1        0.1257
     14 C          -6.1774    3.5503   18.8650 C.3     1  UNL1        0.1637
     15 O          -5.2186    3.7696   17.7325 O.3     1  UNL1       -0.3501
     16 C          -3.7514    3.9132   18.0091 C.3     1  UNL1        0.1637
     17 C          -3.2429    3.8376   19.4183 C.3     1  UNL1        0.1257
     18 C          -0.1888    3.1010   27.8569 C.2     1  UNL1        0.2491
     19 O           0.2705    4.3459   28.5564 O.2     1  UNL1       -0.2699
     20 N          -0.1397    1.7805   28.5667 N.am    1  UNL1       -0.2726
     21 C           0.3687    1.7048   29.9758 C.3     1  UNL1        0.1152
     22 C          -0.5990    0.5355   27.8672 C.3     1  UNL1        0.1152
     23 C           1.6393    4.2779   22.4687 C.3     1  UNL1        0.0264
     24 C           0.7188    3.1252   22.7407 C.3     1  UNL1        0.0984
     25 N           0.7605    1.9090   21.8637 N.pl3   1  UNL1       -0.3034
     26 C          -0.1163    1.8297   20.6492 C.3     1  UNL1        0.1124
     27 C           1.6790    0.7721   22.2012 C.ar    1  UNL1        0.0526
     28 C           2.1230    0.5620   23.6185 C.ar    1  UNL1        0.0443
     29 C           3.0414   -0.5749   23.9560 C.ar    1  UNL1        0.1436
     30 F           3.4854   -0.7850   25.3733 F       1  UNL1       -0.2041
     31 C           3.5160   -1.5015   22.8762 C.ar    1  UNL1        0.0593
     32 C           3.0721   -1.2914   21.4589 C.ar    1  UNL1        0.1436
     33 F           3.5467   -2.2181   20.3791 F       1  UNL1       -0.2041
     34 C           2.1536   -0.1545   21.1214 C.ar    1  UNL1        0.0443
@<TRIPOS>BOND
     1    24    23    1
     2    24     1    1
     3     1     2   ar
     4     2     3   ar
     5     3    18    1
     6    18    19    2
     7    18    20   am
     8    20    21    1
     9    20    22    1
    10     3     4   ar
    11     4     5   ar
    12     5     6   ar
    13     6     7    2
    14     6     8   ar
    15     8     9   ar
    16     9    12    1
    17    12    13    1
    18    13    14    1
    19    14    15    1
    20    15    16    1
    21    16    17    1
    22     9    10   ar
    23    10    11   ar
    24    24    25    1
    25    25    26    1
    26    25    27    1
    27    27    28   ar
    28    28    29   ar
    29    29    30    1
    30    29    31   ar
    31    31    32   ar
    32    32    33    1
    33    32    34   ar
    34    11     1   ar
    35    34    27   ar
    36    11     5   ar
    37    17    12    1
@<TRIPOS>MOLECULE
*****
 34 37 0 0 0
SMALL
GASTEIGER

@<TRIPOS>ATOM
      1 C           3.7362   -0.2518   24.6047 C.ar    1  UNL1        0.0305
      2 C           2.9323    0.1963   23.4202 C.ar    1  UNL1        0.0049
      3 C           2.9648   -0.5977   22.1480 C.ar    1  UNL1        0.0536
      4 C           3.8011   -1.8398   22.0603 C.ar    1  UNL1        0.0107
      5 C           4.6049   -2.2879   23.2447 C.ar    1  UNL1        0.0735
      6 C           5.4412   -3.5301   23.1570 C.ar    1  UNL1        0.2030
      7 O           5.4737   -4.3241   21.8848 O.2     1  UNL1       -0.2863
      8 C           6.2451   -3.9782   24.3414 C.ar    1  UNL1        0.0955
      9 C           6.2127   -3.1842   25.6137 C.ar    1  UNL1        0.2024
     10 O           5.3764   -1.9421   25.7014 O.2     1  UNL1       -0.4400
     11 C           4.5725   -1.4940   24.5169 C.ar    1  UNL1        0.1474
     12 N           7.0165   -3.6324   26.7981 N.pl3   1  UNL1       -0.2742
     13 C           8.3034   -2.9400   27.1366 C.3     1  UNL1        0.1257
     14 C           9.1072   -3.3882   28.3211 C.3     1  UNL1        0.1637
     15 O           8.6242   -4.5287   29.1671 O.3     1  UNL1       -0.3501
     16 C           7.3374   -5.2212   28.8286 C.3     1  UNL1        0.1637
     17 C           6.5335   -4.7730   27.6442 C.3     1  UNL1        0.1257
     18 C           2.1609   -0.1495   20.9635 C.2     1  UNL1        0.2491
     19 O           0.7558   -0.6419   20.7810 O.2     1  UNL1       -0.2699
     20 N           2.7621    0.7910   19.9616 N.am    1  UNL1       -0.2726
     21 C           1.9583    1.2391   18.7771 C.3     1  UNL1        0.1152
     22 C           4.1673    1.2834   20.1441 C.3     1  UNL1        0.1152
     23 C           4.6550    1.6854   26.0720 C.3     1  UNL1        0.0264
     24 C           3.7037    0.5422   25.8769 C.3     1  UNL1        0.0984
     25 N           2.7200    0.1929   26.9541 N.pl3   1  UNL1       -0.3034
     26 C           3.0644   -0.8514   27.9744 C.3     1  UNL1        0.1124
     27 C           1.3919    0.8879   27.0110 C.ar    1  UNL1        0.0526
     28 C           1.1267    2.0720   26.1293 C.ar    1  UNL1        0.0443
     29 C          -0.2013    2.7670   26.1862 C.ar    1  UNL1        0.1436
     30 F          -0.4665    3.9511   25.3044 F       1  UNL1       -0.2041
     31 C          -1.2641    2.2778   27.1248 C.ar    1  UNL1        0.0593
     32 C          -0.9989    1.0937   28.0066 C.ar    1  UNL1        0.1436
     33 F          -2.0618    0.6046   28.9452 F       1  UNL1       -0.2041
     34 C           0.3291    0.3987   27.9497 C.ar    1  UNL1        0.0443
@<TRIPOS>BOND
     1    24    23    1
     2    24     1    1
     3     1     2   ar
     4     2     3   ar
     5     3    18    1
     6    18    19    2
     7    18    20   am
     8    20    21    1
     9    20    22    1
    10     3     4   ar
    11     4     5   ar
    12     5     6   ar
    13     6     7    2
    14     6     8   ar
    15     8     9   ar
    16     9    12    1
    17    12    13    1
    18    13    14    1
    19    14    15    1
    20    15    16    1
    21    16    17    1
    22     9    10   ar
    23    10    11   ar
    24    24    25    1
    25    25    26    1
    26    25    27    1
    27    27    28   ar
    28    28    29   ar
    29    29    30    1
    30    29    31   ar
    31    31    32   ar
    32    32    33    1
    33    32    34   ar
    34    11     1   ar
    35    34    27   ar
    36    11     5   ar
    37    17    12    1
@<TRIPOS>MOLECULE
*****
 34 37 0 0 0
SMALL
GASTEIGER

@<TRIPOS>ATOM
      1 C           1.8982    1.3944   25.2878 C.ar    1  UNL1        0.0305
      2 C           1.7756    1.1448   26.7618 C.ar    1  UNL1        0.0049
      3 C           0.5191    1.5286   27.4855 C.ar    1  UNL1        0.0536
      4 C          -0.6149    2.1621   26.7352 C.ar    1  UNL1        0.0107
      5 C          -0.4923    2.4118   25.2613 C.ar    1  UNL1        0.0735
      6 C          -1.6262    3.0453   24.5110 C.ar    1  UNL1        0.2030
      7 O          -2.8827    3.4291   25.2347 O.2     1  UNL1       -0.2863
      8 C          -1.5036    3.2950   23.0371 C.ar    1  UNL1        0.0955
      9 C          -0.2470    2.9111   22.3133 C.ar    1  UNL1        0.2024
     10 O           0.8869    2.2776   23.0635 O.2     1  UNL1       -0.4400
     11 C           0.7643    2.0280   24.5376 C.ar    1  UNL1        0.1474
     12 N          -0.1244    3.1608   20.8393 N.pl3   1  UNL1       -0.2742
     13 C           1.1663    2.8673   20.1337 C.3     1  UNL1        0.1257
     14 C           1.2889    3.1170   18.6597 C.3     1  UNL1        0.1637
     15 O           0.1207    3.6601   17.8913 O.3     1  UNL1       -0.3501
     16 C          -1.1700    3.9536   18.5969 C.3     1  UNL1        0.1637
     17 C          -1.2926    3.7039   20.0709 C.3     1  UNL1        0.1257
     18 C           0.3964    1.2790   28.9595 C.2     1  UNL1        0.2491
     19 O          -0.0702   -0.0567   29.4577 O.2     1  UNL1       -0.2699
     20 N           0.7404    2.3650   29.9353 N.am    1  UNL1       -0.2726
     21 C           0.6178    2.1154   31.4093 C.3     1  UNL1        0.1152
     22 C           1.2070    3.7008   29.4370 C.3     1  UNL1        0.1152
     23 C           4.1292    2.0692   24.1402 C.3     1  UNL1        0.0264
     24 C           3.1547    1.0106   24.5641 C.3     1  UNL1        0.0984
     25 N           3.4368   -0.4318   24.2642 N.pl3   1  UNL1       -0.3034
     26 C           3.8472   -1.3609   25.3680 C.3     1  UNL1        0.1124
     27 C           3.3083   -0.9451   22.8606 C.ar    1  UNL1        0.0526
     28 C           4.2612   -1.9863   22.3527 C.ar    1  UNL1        0.0443
     29 C           4.1328   -2.4996   20.9492 C.ar    1  UNL1        0.1436
     30 F           5.0857   -3.5408   20.4413 F       1  UNL1       -0.2041
     31 C           3.0516   -1.9717   20.0535 C.ar    1  UNL1        0.0593
     32 C           2.0988   -0.9305   20.5614 C.ar    1  UNL1        0.1436
     33 F           1.0175   -0.4026   19.6657 F       1  UNL1       -0.2041
     34 C           2.2271   -0.4172   21.9650 C.ar    1  UNL1        0.0443
@<TRIPOS>BOND
     1    24    23    1
     2    24     1    1
     3     1     2   ar
     4     2     3   ar
     5     3    18    1
     6    18    19    2
     7    18    20   am
     8    20    21    1
     9    20    22    1
    10     3     4   ar
    11     4     5   ar
    12     5     6   ar
    13     6     7    2
    14     6     8   ar
    15     8     9   ar
    16     9    12    1
    17    12    13    1
    18    13    14    1
    19    14    15    1
    20    15    16    1
    21    16    17    1
    22     9    10   ar
    23    10    11   ar
    24    24    25    1
    25    25    26    1
    26    25    27    1
    27    27    28   ar
    28    28    29   ar
    29    29    30    1
    30    29    31   ar
    31    31    32   ar
    32    32    33    1
    33    32    34   ar
    34    11     1   ar
    35    34    27   ar
    36    11     5   ar
    37    17    12    1
