@<TRIPOS>MOLECULE
*****
 41 46 0 0 0
SMALL
GASTEIGER

@<TRIPOS>ATOM
      1 N           7.1895   -4.0303   23.4615 N.3     1  UNL1       -0.2641
      2 C           7.6415   -5.2422   24.2212 C.3     1  UNL1        0.0981
      3 C           8.3335   -6.3626   23.5031 C.3     1  UNL1        0.0224
      4 C           8.7855   -7.5744   24.2627 C.3     1  UNL1        0.0065
      5 C           8.5454   -7.6659   25.7405 C.3     1  UNL1        0.0277
      6 C           7.8534   -6.5455   26.4587 C.ar    1  UNL1       -0.0073
      7 C           7.6132   -6.6369   27.9365 C.ar    1  UNL1       -0.0015
      8 C           6.9212   -5.5166   28.6547 C.ar    1  UNL1        0.0203
      9 C           6.4692   -4.3047   27.8950 C.ar    1  UNL1        0.0985
     10 N           6.7093   -4.2132   26.4172 N.ar    1  UNL1       -0.2471
     11 C           7.4014   -5.3337   25.6990 C.ar    1  UNL1        0.0695
     12 C           8.1387   -2.8918   23.2321 C.3     1  UNL1        0.0994
     13 C           7.9827   -0.5739   19.3782 C.ar    1  UNL1       -0.0064
     14 C           8.4199   -2.0088   19.3732 C.ar    1  UNL1       -0.0032
     15 C           8.4719   -2.7814   20.6578 C.ar    1  UNL1       -0.0032
     16 C           8.0867   -2.1191   21.9475 C.ar    1  UNL1       -0.0062
     17 C           7.6496   -0.6843   21.9524 C.ar    1  UNL1       -0.0032
     18 C           7.5976    0.0884   20.6678 C.ar    1  UNL1       -0.0032
     19 C           7.9307    0.1988   18.0935 C.3     1  UNL1        0.0956
     20 N           6.7917   -0.0079   17.1396 N.3     1  UNL1       -0.2948
     21 H           7.0293    0.4942   16.2841 H       1  UNL1        0.1235
     22 C           1.9005    2.4891   18.7775 C.3     1  UNL1        0.0000
     23 C           2.6343    1.2762   18.2875 C.3     1  UNL1        0.0001
     24 C           1.2450    0.7189   18.3837 C.3     1  UNL1        0.0000
     25 C           2.8856   -0.1304   17.8309 C.3     1  UNL1        0.0014
     26 C           4.2714   -0.5585   17.4483 C.3     1  UNL1        0.0157
     27 C           5.4059    0.4201   17.5222 C.3     1  UNL1        0.0542
     28 C           5.1546    1.8266   17.9788 C.3     1  UNL1        0.0157
     29 C           3.7688    2.2546   18.3615 C.3     1  UNL1        0.0014
     30 C           5.7883   -3.9570   22.9312 C.3     1  UNL1        0.0888
     31 C           4.8876   -2.8313   23.3454 C.3     1  UNL1        0.0748
     32 C           4.0570   -2.1190   22.3194 C.3     1  UNL1        0.0432
     33 C           3.1562   -0.9933   22.7336 C.ar    1  UNL1       -0.0234
     34 C           2.3257   -0.2809   21.7076 C.ar    1  UNL1       -0.0045
     35 C           1.4250    0.8447   22.1218 C.ar    1  UNL1       -0.0003
     36 C           1.3548    1.2580   23.5620 C.ar    1  UNL1       -0.0003
     37 C           2.1854    0.5457   24.5880 C.ar    1  UNL1       -0.0032
     38 C           3.0861   -0.5800   24.1738 C.ar    1  UNL1       -0.0103
     39 C           3.9167   -1.2924   25.1998 C.3     1  UNL1        0.0953
     40 N           4.8174   -2.4180   24.7856 N.3     1  UNL1       -0.2934
     41 H           4.5237   -3.2397   25.3138 H       1  UNL1        0.1236
@<TRIPOS>BOND
     1    22    23    1
     2    23    24    1
     3    23    25    1
     4    25    26    1
     5    26    27    1
     6    27    20    1
     7    20    19    1
     8    19    13    1
     9    13    14   ar
    10    14    15   ar
    11    15    16   ar
    12    16    12    1
    13    12     1    1
    14     1    30    1
    15    31    30    1
    16    31    32    1
    17    32    33    1
    18    33    34   ar
    19    34    35   ar
    20    35    36   ar
    21    36    37   ar
    22    37    38   ar
    23    38    39    1
    24    39    40    1
    25     2     1    1
    26     2     3    1
    27     3     4    1
    28     4     5    1
    29     5     6    1
    30     6     7   ar
    31     7     8   ar
    32     8     9   ar
    33     9    10   ar
    34    10    11   ar
    35    16    17   ar
    36    17    18   ar
    37    27    28    1
    38    28    29    1
    39    29    23    1
    40    18    13   ar
    41    40    31    1
    42    11     2    1
    43    38    33   ar
    44    11     6   ar
    45    20    21    1
    46    40    41    1
@<TRIPOS>MOLECULE
*****
 41 46 0 0 0
SMALL
GASTEIGER

@<TRIPOS>ATOM
      1 N           0.1328    2.2139   20.3320 N.3     1  UNL1       -0.2641
      2 C          -0.5975    3.0816   19.3503 C.3     1  UNL1        0.0981
      3 C           0.1227    3.6324   18.1553 C.3     1  UNL1        0.0224
      4 C          -0.6076    4.5001   17.1736 C.3     1  UNL1        0.0065
      5 C          -2.0581    4.8170   17.3869 C.3     1  UNL1        0.0277
      6 C          -2.7783    4.2663   18.5819 C.ar    1  UNL1       -0.0073
      7 C          -4.2289    4.5833   18.7952 C.ar    1  UNL1       -0.0015
      8 C          -4.9491    4.0325   19.9901 C.ar    1  UNL1        0.0203
      9 C          -4.2188    3.1648   20.9718 C.ar    1  UNL1        0.0985
     10 N          -2.7683    2.8479   20.7586 N.ar    1  UNL1       -0.2471
     11 C          -2.0480    3.3986   19.5636 C.ar    1  UNL1        0.0695
     12 C           0.8491    2.8352   21.4942 C.3     1  UNL1        0.0994
     13 C          -0.3098    1.7344   25.7008 C.ar    1  UNL1       -0.0064
     14 C          -1.0438    2.8276   24.9823 C.ar    1  UNL1       -0.0032
     15 C          -0.6575    3.1945   23.5801 C.ar    1  UNL1       -0.0032
     16 C           0.4628    2.4683   22.8964 C.ar    1  UNL1       -0.0062
     17 C           1.1968    1.3751   23.6149 C.ar    1  UNL1       -0.0032
     18 C           0.8105    1.0082   25.0171 C.ar    1  UNL1       -0.0032
     19 C          -0.6961    1.3675   27.1030 C.3     1  UNL1        0.0956
     20 N          -0.0109    0.2268   27.7956 N.3     1  UNL1       -0.2948
     21 H          -0.7308   -0.4640   28.0076 H       1  UNL1        0.1235
     22 C           2.2676    1.8840   32.7859 C.3     1  UNL1        0.0000
     23 C           2.2602    0.9496   31.6125 C.3     1  UNL1        0.0001
     24 C           3.4128    0.3844   32.3885 C.3     1  UNL1        0.0000
     25 C           2.6532   -0.1812   30.7087 C.3     1  UNL1        0.0014
     26 C           1.8961   -0.4221   29.4363 C.3     1  UNL1        0.0157
     27 C           0.7461    0.4678   29.0679 C.3     1  UNL1        0.0542
     28 C           0.3532    1.5985   29.9718 C.3     1  UNL1        0.0157
     29 C           1.1102    1.8394   31.2441 C.3     1  UNL1        0.0014
     30 C           0.1468    0.7249   20.1514 C.3     1  UNL1        0.0888
     31 C           1.3605    0.0495   19.5849 C.3     1  UNL1        0.0748
     32 C           2.0254   -1.0593   20.3455 C.3     1  UNL1        0.0432
     33 C           3.2390   -1.7348   19.7790 C.ar    1  UNL1       -0.0234
     34 C           3.9039   -2.8435   20.5395 C.ar    1  UNL1       -0.0045
     35 C           5.1175   -3.5189   19.9730 C.ar    1  UNL1       -0.0003
     36 C           5.6662   -3.0856   18.6459 C.ar    1  UNL1       -0.0003
     37 C           5.0013   -1.9768   17.8853 C.ar    1  UNL1       -0.0032
     38 C           3.7877   -1.3014   18.4519 C.ar    1  UNL1       -0.0103
     39 C           3.1227   -0.1926   17.6913 C.3     1  UNL1        0.0953
     40 N           1.9091    0.4828   18.2578 N.3     1  UNL1       -0.2934
     41 H           1.1600    0.3626   17.5761 H       1  UNL1        0.1236
@<TRIPOS>BOND
     1    22    23    1
     2    23    24    1
     3    23    25    1
     4    25    26    1
     5    26    27    1
     6    27    20    1
     7    20    19    1
     8    19    13    1
     9    13    14   ar
    10    14    15   ar
    11    15    16   ar
    12    16    12    1
    13    12     1    1
    14     1    30    1
    15    31    30    1
    16    31    32    1
    17    32    33    1
    18    33    34   ar
    19    34    35   ar
    20    35    36   ar
    21    36    37   ar
    22    37    38   ar
    23    38    39    1
    24    39    40    1
    25     2     1    1
    26     2     3    1
    27     3     4    1
    28     4     5    1
    29     5     6    1
    30     6     7   ar
    31     7     8   ar
    32     8     9   ar
    33     9    10   ar
    34    10    11   ar
    35    16    17   ar
    36    17    18   ar
    37    27    28    1
    38    28    29    1
    39    29    23    1
    40    18    13   ar
    41    40    31    1
    42    11     2    1
    43    38    33   ar
    44    11     6   ar
    45    20    21    1
    46    40    41    1
@<TRIPOS>MOLECULE
*****
 41 46 0 0 0
SMALL
GASTEIGER

@<TRIPOS>ATOM
      1 N           0.1856    2.2147   20.3896 N.3     1  UNL1       -0.2641
      2 C          -0.4882    3.1755   19.4553 C.3     1  UNL1        0.0981
      3 C           0.2923    3.8141   18.3450 C.3     1  UNL1        0.0224
      4 C          -0.3815    4.7749   17.4107 C.3     1  UNL1        0.0065
      5 C          -1.8358    5.0971   17.5868 C.3     1  UNL1        0.0277
      6 C          -2.6163    4.4585   18.6972 C.ar    1  UNL1       -0.0073
      7 C          -4.0707    4.7807   18.8733 C.ar    1  UNL1       -0.0015
      8 C          -4.8513    4.1421   19.9836 C.ar    1  UNL1        0.0203
      9 C          -4.1775    3.1813   20.9179 C.ar    1  UNL1        0.0985
     10 N          -2.7232    2.8591   20.7418 N.ar    1  UNL1       -0.2471
     11 C          -1.9425    3.4977   19.6314 C.ar    1  UNL1        0.0695
     12 C           0.8872    2.7255   21.6131 C.3     1  UNL1        0.0994
     13 C           3.9079    0.1391   23.7192 C.ar    1  UNL1       -0.0064
     14 C           2.4619    0.0759   24.1131 C.ar    1  UNL1       -0.0032
     15 C           1.4550    0.9380   23.4110 C.ar    1  UNL1       -0.0032
     16 C           1.8941    1.8633   22.3151 C.ar    1  UNL1       -0.0062
     17 C           3.3401    1.9265   21.9213 C.ar    1  UNL1       -0.0032
     18 C           4.3470    1.0644   22.6234 C.ar    1  UNL1       -0.0032
     19 C           4.9148   -0.7230   24.4213 C.3     1  UNL1        0.0956
     20 N           5.0504   -2.1705   24.0518 N.3     1  UNL1       -0.2948
     21 H           5.1890   -2.6848   24.9217 H       1  UNL1        0.1235
     22 C           9.2052   -2.9133   20.1753 C.3     1  UNL1        0.0000
     23 C           8.3081   -3.4784   21.2363 C.3     1  UNL1        0.0001
     24 C           9.0748   -4.7114   20.8595 C.3     1  UNL1        0.0000
     25 C           7.6773   -4.4718   22.1666 C.3     1  UNL1        0.0014
     26 C           6.5913   -4.0358   23.1050 C.3     1  UNL1        0.0157
     27 C           6.1363   -2.6065   23.1133 C.3     1  UNL1        0.0542
     28 C           6.7671   -1.6132   22.1831 C.3     1  UNL1        0.0157
     29 C           7.8530   -2.0491   21.2446 C.3     1  UNL1        0.0014
     30 C           0.1578    0.7431   20.1005 C.3     1  UNL1        0.0888
     31 C           1.3698    0.0677   19.5304 C.3     1  UNL1        0.0748
     32 C           1.9390   -1.1454   20.2044 C.3     1  UNL1        0.0432
     33 C           3.1511   -1.8208   19.6344 C.ar    1  UNL1       -0.0234
     34 C           3.7203   -3.0339   20.3084 C.ar    1  UNL1       -0.0045
     35 C           4.9323   -3.7092   19.7383 C.ar    1  UNL1       -0.0003
     36 C           5.5751   -3.1714   18.4943 C.ar    1  UNL1       -0.0003
     37 C           5.0059   -1.9583   17.8203 C.ar    1  UNL1       -0.0032
     38 C           3.7939   -1.2830   18.3904 C.ar    1  UNL1       -0.0103
     39 C           3.2246   -0.0698   17.7164 C.3     1  UNL1        0.0953
     40 N           2.0126    0.6055   18.2864 N.3     1  UNL1       -0.2934
     41 H           1.2990    0.5940   17.5577 H       1  UNL1        0.1236
@<TRIPOS>BOND
     1    22    23    1
     2    23    24    1
     3    23    25    1
     4    25    26    1
     5    26    27    1
     6    27    20    1
     7    20    19    1
     8    19    13    1
     9    13    14   ar
    10    14    15   ar
    11    15    16   ar
    12    16    12    1
    13    12     1    1
    14     1    30    1
    15    31    30    1
    16    31    32    1
    17    32    33    1
    18    33    34   ar
    19    34    35   ar
    20    35    36   ar
    21    36    37   ar
    22    37    38   ar
    23    38    39    1
    24    39    40    1
    25     2     1    1
    26     2     3    1
    27     3     4    1
    28     4     5    1
    29     5     6    1
    30     6     7   ar
    31     7     8   ar
    32     8     9   ar
    33     9    10   ar
    34    10    11   ar
    35    16    17   ar
    36    17    18   ar
    37    27    28    1
    38    28    29    1
    39    29    23    1
    40    18    13   ar
    41    40    31    1
    42    11     2    1
    43    38    33   ar
    44    11     6   ar
    45    20    21    1
    46    40    41    1
@<TRIPOS>MOLECULE
*****
 41 46 0 0 0
SMALL
GASTEIGER

@<TRIPOS>ATOM
      1 N           6.2599   -2.9100   24.8879 N.3     1  UNL1       -0.2641
      2 C           6.5918   -3.5765   26.1900 C.3     1  UNL1        0.0981
      3 C           6.3655   -2.8509   27.4831 C.3     1  UNL1        0.0224
      4 C           6.6974   -3.5175   28.7853 C.3     1  UNL1        0.0065
      5 C           7.2556   -4.9097   28.7943 C.3     1  UNL1        0.0277
      6 C           7.4819   -5.6353   27.5012 C.ar    1  UNL1       -0.0073
      7 C           8.0401   -7.0276   27.5101 C.ar    1  UNL1       -0.0015
      8 C           8.2664   -7.7532   26.2170 C.ar    1  UNL1        0.0203
      9 C           7.9345   -7.0867   24.9149 C.ar    1  UNL1        0.0985
     10 N           7.3763   -5.6945   24.9059 N.ar    1  UNL1       -0.2471
     11 C           7.1500   -4.9687   26.1990 C.ar    1  UNL1        0.0695
     12 C           7.3582   -2.3731   24.0188 C.3     1  UNL1        0.0994
     13 C           6.8339   -2.2462   19.5512 C.ar    1  UNL1       -0.0064
     14 C           7.0136   -0.9718   20.3218 C.ar    1  UNL1       -0.0032
     15 C           7.1883   -1.0141   21.8110 C.ar    1  UNL1       -0.0032
     16 C           7.1834   -2.3308   22.5296 C.ar    1  UNL1       -0.0062
     17 C           7.0038   -3.6051   21.7591 C.ar    1  UNL1       -0.0032
     18 C           6.8291   -3.5628   20.2699 C.ar    1  UNL1       -0.0032
     19 C           6.6592   -2.2039   18.0621 C.3     1  UNL1        0.0956
     20 N           5.2899   -2.3345   17.4636 N.3     1  UNL1       -0.2948
     21 H           5.3587   -2.0132   16.4980 H       1  UNL1        0.1235
     22 C           0.9794    1.0705   19.0970 C.3     1  UNL1        0.0000
     23 C           1.8103   -0.1598   19.3112 C.3     1  UNL1        0.0001
     24 C           0.8641   -0.2796   20.4690 C.3     1  UNL1        0.0000
     25 C           2.3126   -1.4318   19.9275 C.3     1  UNL1        0.0014
     26 C           3.4724   -2.1567   19.3117 C.3     1  UNL1        0.0157
     27 C           4.1300   -1.6096   18.0794 C.3     1  UNL1        0.0542
     28 C           3.6278   -0.3376   17.4632 C.3     1  UNL1        0.0157
     29 C           2.4679    0.3872   18.0790 C.3     1  UNL1        0.0014
     30 C           4.8296   -2.7803   24.4549 C.3     1  UNL1        0.0888
     31 C           4.1414   -1.4495   24.5285 C.3     1  UNL1        0.0748
     32 C           4.0659   -0.5758   23.3116 C.3     1  UNL1        0.0432
     33 C           3.3777    0.7550   23.3853 C.ar    1  UNL1       -0.0234
     34 C           3.3022    1.6287   22.1684 C.ar    1  UNL1       -0.0045
     35 C           2.6140    2.9594   22.2421 C.ar    1  UNL1       -0.0003
     36 C           2.0012    3.4164   23.5327 C.ar    1  UNL1       -0.0003
     37 C           2.0766    2.5427   24.7496 C.ar    1  UNL1       -0.0032
     38 C           2.7649    1.2120   24.6759 C.ar    1  UNL1       -0.0103
     39 C           2.8403    0.3382   25.8928 C.3     1  UNL1        0.0953
     40 N           3.5286   -0.9925   25.8191 N.3     1  UNL1       -0.2934
     41 H           2.8385   -1.6959   26.0828 H       1  UNL1        0.1236
@<TRIPOS>BOND
     1    22    23    1
     2    23    24    1
     3    23    25    1
     4    25    26    1
     5    26    27    1
     6    27    20    1
     7    20    19    1
     8    19    13    1
     9    13    14   ar
    10    14    15   ar
    11    15    16   ar
    12    16    12    1
    13    12     1    1
    14     1    30    1
    15    31    30    1
    16    31    32    1
    17    32    33    1
    18    33    34   ar
    19    34    35   ar
    20    35    36   ar
    21    36    37   ar
    22    37    38   ar
    23    38    39    1
    24    39    40    1
    25     2     1    1
    26     2     3    1
    27     3     4    1
    28     4     5    1
    29     5     6    1
    30     6     7   ar
    31     7     8   ar
    32     8     9   ar
    33     9    10   ar
    34    10    11   ar
    35    16    17   ar
    36    17    18   ar
    37    27    28    1
    38    28    29    1
    39    29    23    1
    40    18    13   ar
    41    40    31    1
    42    11     2    1
    43    38    33   ar
    44    11     6   ar
    45    20    21    1
    46    40    41    1
@<TRIPOS>MOLECULE
*****
 41 46 0 0 0
SMALL
GASTEIGER

@<TRIPOS>ATOM
      1 N           6.0979   -2.1313   23.5209 N.3     1  UNL1       -0.2641
      2 C           4.9306   -1.8561   22.6199 C.3     1  UNL1        0.0981
      3 C           3.9867   -0.7342   22.9367 C.3     1  UNL1        0.0224
      4 C           2.8195   -0.4591   22.0357 C.3     1  UNL1        0.0065
      5 C           2.5961   -1.3058   20.8179 C.3     1  UNL1        0.0277
      6 C           3.5400   -2.4277   20.5011 C.ar    1  UNL1       -0.0073
      7 C           3.3167   -3.2745   19.2832 C.ar    1  UNL1       -0.0015
      8 C           4.2606   -4.3964   18.9664 C.ar    1  UNL1        0.0203
      9 C           5.4278   -4.6715   19.8674 C.ar    1  UNL1        0.0985
     10 N           5.6512   -3.8248   21.0852 N.ar    1  UNL1       -0.2471
     11 C           4.7073   -2.7029   21.4021 C.ar    1  UNL1        0.0695
     12 C           7.4406   -1.5391   23.2108 C.3     1  UNL1        0.0994
     13 C           8.1457    0.4910   19.2571 C.ar    1  UNL1       -0.0064
     14 C           7.6353    1.2813   20.4255 C.ar    1  UNL1       -0.0032
     15 C           7.4003    0.6046   21.7434 C.ar    1  UNL1       -0.0032
     16 C           7.6757   -0.8624   21.8929 C.ar    1  UNL1       -0.0062
     17 C           8.1860   -1.6526   20.7246 C.ar    1  UNL1       -0.0032
     18 C           8.4210   -0.9759   19.4067 C.ar    1  UNL1       -0.0032
     19 C           8.3807    1.1677   17.9392 C.3     1  UNL1        0.0956
     20 N           7.2914    1.2012   16.9085 N.3     1  UNL1       -0.2948
     21 H           7.4533    2.0296   16.3358 H       1  UNL1        0.1235
     22 C           1.9921    2.2818   18.8039 C.3     1  UNL1        0.0000
     23 C           2.9809    1.3329   18.1941 C.3     1  UNL1        0.0001
     24 C           1.7683    0.4512   18.2408 C.3     1  UNL1        0.0000
     25 C           3.5485    0.0777   17.6005 C.3     1  UNL1        0.0014
     26 C           4.9853    0.0338   17.1720 C.3     1  UNL1        0.0157
     27 C           5.8546    1.2451   17.3370 C.3     1  UNL1        0.0542
     28 C           5.2869    2.5003   17.9306 C.3     1  UNL1        0.0157
     29 C           3.8501    2.5442   18.3591 C.3     1  UNL1        0.0014
     30 C           5.9223   -2.9986   24.7320 C.3     1  UNL1        0.0888
     31 C           6.7248   -4.2579   24.8754 C.3     1  UNL1        0.0748
     32 C           6.9749   -4.8369   26.2363 C.3     1  UNL1        0.0432
     33 C           7.7773   -6.0962   26.3797 C.ar    1  UNL1       -0.0234
     34 C           8.0275   -6.6752   27.7406 C.ar    1  UNL1       -0.0045
     35 C           8.8299   -7.9344   27.8840 C.ar    1  UNL1       -0.0003
     36 C           9.3821   -8.6145   26.6664 C.ar    1  UNL1       -0.0003
     37 C           9.1319   -8.0355   25.3055 C.ar    1  UNL1       -0.0032
     38 C           8.3296   -6.7763   25.1622 C.ar    1  UNL1       -0.0103
     39 C           8.0794   -6.1972   23.8012 C.3     1  UNL1        0.0953
     40 N           7.2770   -4.9380   23.6579 N.3     1  UNL1       -0.2934
     41 H           6.4818   -5.1621   23.0596 H       1  UNL1        0.1236
@<TRIPOS>BOND
     1    22    23    1
     2    23    24    1
     3    23    25    1
     4    25    26    1
     5    26    27    1
     6    27    20    1
     7    20    19    1
     8    19    13    1
     9    13    14   ar
    10    14    15   ar
    11    15    16   ar
    12    16    12    1
    13    12     1    1
    14     1    30    1
    15    31    30    1
    16    31    32    1
    17    32    33    1
    18    33    34   ar
    19    34    35   ar
    20    35    36   ar
    21    36    37   ar
    22    37    38   ar
    23    38    39    1
    24    39    40    1
    25     2     1    1
    26     2     3    1
    27     3     4    1
    28     4     5    1
    29     5     6    1
    30     6     7   ar
    31     7     8   ar
    32     8     9   ar
    33     9    10   ar
    34    10    11   ar
    35    16    17   ar
    36    17    18   ar
    37    27    28    1
    38    28    29    1
    39    29    23    1
    40    18    13   ar
    41    40    31    1
    42    11     2    1
    43    38    33   ar
    44    11     6   ar
    45    20    21    1
    46    40    41    1
@<TRIPOS>MOLECULE
*****
 41 46 0 0 0
SMALL
GASTEIGER

@<TRIPOS>ATOM
      1 N           7.6639   -4.1704   24.3247 N.3     1  UNL1       -0.2641
      2 C           8.0648   -5.4444   25.0074 C.3     1  UNL1        0.0981
      3 C           8.6640   -6.5656   24.2112 C.3     1  UNL1        0.0224
      4 C           9.0649   -7.8396   24.8939 C.3     1  UNL1        0.0065
      5 C           8.8667   -7.9925   26.3729 C.3     1  UNL1        0.0277
      6 C           8.2675   -6.8714   27.1691 C.ar    1  UNL1       -0.0073
      7 C           8.0692   -7.0242   28.6481 C.ar    1  UNL1       -0.0015
      8 C           7.4700   -5.9031   29.4443 C.ar    1  UNL1        0.0203
      9 C           7.0690   -4.6291   28.7615 C.ar    1  UNL1        0.0985
     10 N           7.2673   -4.4762   27.2826 N.ar    1  UNL1       -0.2471
     11 C           7.8665   -5.5973   26.4863 C.ar    1  UNL1        0.0695
     12 C           8.6371   -3.0332   24.2275 C.3     1  UNL1        0.0994
     13 C           8.9135   -0.6259   20.4356 C.ar    1  UNL1       -0.0064
     14 C           8.2693   -0.0343   21.6543 C.ar    1  UNL1       -0.0032
     15 C           8.1771   -0.8367   22.9183 C.ar    1  UNL1       -0.0032
     16 C           8.7292   -2.2308   22.9636 C.ar    1  UNL1       -0.0062
     17 C           9.3733   -2.8223   21.7449 C.ar    1  UNL1       -0.0032
     18 C           9.4655   -2.0199   20.4810 C.ar    1  UNL1       -0.0032
     19 C           9.0056    0.1765   19.1716 C.3     1  UNL1        0.0956
     20 N           7.8968    0.1171   18.1630 N.3     1  UNL1       -0.2948
     21 H           7.5803    1.0756   18.0166 H       1  UNL1        0.1235
     22 C           2.8578   -2.2078   19.5931 C.3     1  UNL1        0.0000
     23 C           4.2268   -2.3498   18.9967 C.3     1  UNL1        0.0001
     24 C           3.7214   -3.7518   18.8261 C.3     1  UNL1        0.0000
     25 C           5.4203   -2.9789   18.3411 C.3     1  UNL1        0.0014
     26 C           6.6436   -2.1566   18.0632 C.3     1  UNL1        0.0157
     27 C           6.6735   -0.7052   18.4409 C.3     1  UNL1        0.0542
     28 C           5.4800   -0.0762   19.0966 C.3     1  UNL1        0.0157
     29 C           4.2566   -0.8985   19.3744 C.3     1  UNL1        0.0014
     30 C           6.2897   -4.0337   23.7391 C.3     1  UNL1        0.0888
     31 C           5.3861   -2.9273   24.1968 C.3     1  UNL1        0.0748
     32 C           4.5298   -2.1989   23.2037 C.3     1  UNL1        0.0432
     33 C           3.6261   -1.0926   23.6614 C.ar    1  UNL1       -0.0234
     34 C           2.7699   -0.3642   22.6684 C.ar    1  UNL1       -0.0045
     35 C           1.8663    0.7421   23.1261 C.ar    1  UNL1       -0.0003
     36 C           1.8190    1.1201   24.5769 C.ar    1  UNL1       -0.0003
     37 C           2.6753    0.3917   25.5700 C.ar    1  UNL1       -0.0032
     38 C           3.5788   -0.7146   25.1123 C.ar    1  UNL1       -0.0103
     39 C           4.4352   -1.4430   26.1054 C.3     1  UNL1        0.0953
     40 N           5.3388   -2.5493   25.6476 N.3     1  UNL1       -0.2934
     41 H           5.0628   -3.3863   26.1611 H       1  UNL1        0.1236
@<TRIPOS>BOND
     1    22    23    1
     2    23    24    1
     3    23    25    1
     4    25    26    1
     5    26    27    1
     6    27    20    1
     7    20    19    1
     8    19    13    1
     9    13    14   ar
    10    14    15   ar
    11    15    16   ar
    12    16    12    1
    13    12     1    1
    14     1    30    1
    15    31    30    1
    16    31    32    1
    17    32    33    1
    18    33    34   ar
    19    34    35   ar
    20    35    36   ar
    21    36    37   ar
    22    37    38   ar
    23    38    39    1
    24    39    40    1
    25     2     1    1
    26     2     3    1
    27     3     4    1
    28     4     5    1
    29     5     6    1
    30     6     7   ar
    31     7     8   ar
    32     8     9   ar
    33     9    10   ar
    34    10    11   ar
    35    16    17   ar
    36    17    18   ar
    37    27    28    1
    38    28    29    1
    39    29    23    1
    40    18    13   ar
    41    40    31    1
    42    11     2    1
    43    38    33   ar
    44    11     6   ar
    45    20    21    1
    46    40    41    1
@<TRIPOS>MOLECULE
*****
 41 46 0 0 0
SMALL
GASTEIGER

@<TRIPOS>ATOM
      1 N           6.6639   -3.2371   23.1769 N.3     1  UNL1       -0.2641
      2 C           5.4395   -2.6250   22.5637 C.3     1  UNL1        0.0981
      3 C           4.7473   -1.4847   23.2496 C.3     1  UNL1        0.0224
      4 C           3.5228   -0.8725   22.6364 C.3     1  UNL1        0.0065
      5 C           2.9906   -1.4006   21.3373 C.3     1  UNL1        0.0277
      6 C           3.6828   -2.5409   20.6514 C.ar    1  UNL1       -0.0073
      7 C           3.1505   -3.0691   19.3522 C.ar    1  UNL1       -0.0015
      8 C           3.8427   -4.2094   18.6663 C.ar    1  UNL1        0.0203
      9 C           5.0672   -4.8216   19.2795 C.ar    1  UNL1        0.0985
     10 N           5.5994   -4.2934   20.5786 N.ar    1  UNL1       -0.2471
     11 C           4.9072   -3.1531   21.2646 C.ar    1  UNL1        0.0695
     12 C           8.0182   -2.6662   22.8772 C.3     1  UNL1        0.0994
     13 C           8.5800    0.0540   19.3367 C.ar    1  UNL1       -0.0064
     14 C           8.2290    0.6298   20.6767 C.ar    1  UNL1       -0.0032
     15 C           8.0418   -0.2770   21.8568 C.ar    1  UNL1       -0.0032
     16 C           8.2055   -1.7595   21.6970 C.ar    1  UNL1       -0.0062
     17 C           8.5565   -2.3352   20.3571 C.ar    1  UNL1       -0.0032
     18 C           8.7437   -1.4284   19.1770 C.ar    1  UNL1       -0.0032
     19 C           8.7673    0.9607   18.1566 C.3     1  UNL1        0.0956
     20 N           7.7088    1.0407   17.0967 N.3     1  UNL1       -0.2948
     21 H           7.8803    1.8993   16.5734 H       1  UNL1        0.1235
     22 C           2.1397    0.2078   18.1613 C.3     1  UNL1        0.0000
     23 C           3.3611    1.0732   18.2572 C.3     1  UNL1        0.0001
     24 C           2.3621    1.9552   18.9458 C.3     1  UNL1        0.0000
     25 C           4.2356    2.2450   18.5923 C.3     1  UNL1        0.0014
     26 C           5.6848    2.2342   18.2055 C.3     1  UNL1        0.0157
     27 C           6.2595    1.0515   17.4836 C.3     1  UNL1        0.0542
     28 C           5.3851   -0.1202   17.1485 C.3     1  UNL1        0.0157
     29 C           3.9358   -0.1094   17.5353 C.3     1  UNL1        0.0014
     30 C           6.5341   -4.4202   24.0898 C.3     1  UNL1        0.0888
     31 C           6.5343   -4.2237   25.5769 C.3     1  UNL1        0.0748
     32 C           7.0974   -5.2860   26.4737 C.3     1  UNL1        0.0432
     33 C           7.0977   -5.0895   27.9608 C.ar    1  UNL1       -0.0234
     34 C           7.6607   -6.1518   28.8576 C.ar    1  UNL1       -0.0045
     35 C           7.6610   -5.9553   30.3447 C.ar    1  UNL1       -0.0003
     36 C           7.0982   -4.6963   30.9349 C.ar    1  UNL1       -0.0003
     37 C           6.5351   -3.6340   30.0381 C.ar    1  UNL1       -0.0032
     38 C           6.5349   -3.8305   28.5511 C.ar    1  UNL1       -0.0103
     39 C           5.9718   -2.7682   27.6542 C.3     1  UNL1        0.0953
     40 N           5.9715   -2.9647   26.1671 N.3     1  UNL1       -0.2934
     41 H           6.5010   -2.1899   25.7676 H       1  UNL1        0.1236
@<TRIPOS>BOND
     1    22    23    1
     2    23    24    1
     3    23    25    1
     4    25    26    1
     5    26    27    1
     6    27    20    1
     7    20    19    1
     8    19    13    1
     9    13    14   ar
    10    14    15   ar
    11    15    16   ar
    12    16    12    1
    13    12     1    1
    14     1    30    1
    15    31    30    1
    16    31    32    1
    17    32    33    1
    18    33    34   ar
    19    34    35   ar
    20    35    36   ar
    21    36    37   ar
    22    37    38   ar
    23    38    39    1
    24    39    40    1
    25     2     1    1
    26     2     3    1
    27     3     4    1
    28     4     5    1
    29     5     6    1
    30     6     7   ar
    31     7     8   ar
    32     8     9   ar
    33     9    10   ar
    34    10    11   ar
    35    16    17   ar
    36    17    18   ar
    37    27    28    1
    38    28    29    1
    39    29    23    1
    40    18    13   ar
    41    40    31    1
    42    11     2    1
    43    38    33   ar
    44    11     6   ar
    45    20    21    1
    46    40    41    1
@<TRIPOS>MOLECULE
*****
 41 46 0 0 0
SMALL
GASTEIGER

@<TRIPOS>ATOM
      1 N           4.0254    2.8017   23.2260 N.3     1  UNL1       -0.2641
      2 C           3.4803    1.5624   22.5803 C.3     1  UNL1        0.0981
      3 C           2.3774    1.6666   21.5690 C.3     1  UNL1        0.0224
      4 C           1.8323    0.4273   20.9233 C.3     1  UNL1        0.0065
      5 C           2.3901   -0.9163   21.2889 C.3     1  UNL1        0.0277
      6 C           3.4929   -1.0205   22.3002 C.ar    1  UNL1       -0.0073
      7 C           4.0507   -2.3641   22.6658 C.ar    1  UNL1       -0.0015
      8 C           5.1536   -2.4684   23.6771 C.ar    1  UNL1        0.0203
      9 C           5.6987   -1.2291   24.3228 C.ar    1  UNL1        0.0985
     10 N           5.1410    0.1145   23.9573 N.ar    1  UNL1       -0.2471
     11 C           4.0380    0.2188   22.9459 C.ar    1  UNL1        0.0695
     12 C           5.2566    3.4560   22.6730 C.3     1  UNL1        0.0994
     13 C           7.0943    1.9322   18.8584 C.ar    1  UNL1       -0.0064
     14 C           7.6326    1.4796   20.1834 C.ar    1  UNL1       -0.0032
     15 C           7.0201    1.9875   21.4549 C.ar    1  UNL1       -0.0032
     16 C           5.8692    2.9481   21.4015 C.ar    1  UNL1       -0.0062
     17 C           5.3308    3.4006   20.0766 C.ar    1  UNL1       -0.0032
     18 C           5.9434    2.8927   18.8051 C.ar    1  UNL1       -0.0032
     19 C           7.7068    1.4242   17.5869 C.3     1  UNL1        0.0956
     20 N           7.0070    0.3647   16.7883 N.3     1  UNL1       -0.2948
     21 H           6.3132    0.8407   16.2116 H       1  UNL1        0.1235
     22 C           3.4750   -3.4864   19.1411 C.3     1  UNL1        0.0000
     23 C           4.8683   -2.9914   18.8888 C.3     1  UNL1        0.0001
     24 C           5.1695   -4.2105   19.7094 C.3     1  UNL1        0.0000
     25 C           6.3663   -2.9199   18.9216 C.3     1  UNL1        0.0014
     26 C           7.0792   -1.8012   18.2214 C.3     1  UNL1        0.0157
     27 C           6.2941   -0.7540   17.4885 C.3     1  UNL1        0.0542
     28 C           4.7962   -0.8256   17.4557 C.3     1  UNL1        0.0157
     29 C           4.0833   -1.9443   18.1559 C.3     1  UNL1        0.0014
     30 C           3.3393    3.3866   24.4248 C.3     1  UNL1        0.0888
     31 C           2.8198    2.4855   25.5057 C.3     1  UNL1        0.0748
     32 C           1.3523    2.4531   25.8142 C.3     1  UNL1        0.0432
     33 C           0.8328    1.5520   26.8951 C.ar    1  UNL1       -0.0234
     34 C          -0.6347    1.5196   27.2036 C.ar    1  UNL1       -0.0045
     35 C          -1.1541    0.6185   28.2845 C.ar    1  UNL1       -0.0003
     36 C          -0.2060   -0.2501   29.0568 C.ar    1  UNL1       -0.0003
     37 C           1.2616   -0.2177   28.7483 C.ar    1  UNL1       -0.0032
     38 C           1.7810    0.6834   27.6674 C.ar    1  UNL1       -0.0103
     39 C           3.2486    0.7158   27.3589 C.3     1  UNL1        0.0953
     40 N           3.7680    1.6169   26.2780 N.3     1  UNL1       -0.2934
     41 H           4.2403    1.0202   25.5989 H       1  UNL1        0.1236
@<TRIPOS>BOND
     1    22    23    1
     2    23    24    1
     3    23    25    1
     4    25    26    1
     5    26    27    1
     6    27    20    1
     7    20    19    1
     8    19    13    1
     9    13    14   ar
    10    14    15   ar
    11    15    16   ar
    12    16    12    1
    13    12     1    1
    14     1    30    1
    15    31    30    1
    16    31    32    1
    17    32    33    1
    18    33    34   ar
    19    34    35   ar
    20    35    36   ar
    21    36    37   ar
    22    37    38   ar
    23    38    39    1
    24    39    40    1
    25     2     1    1
    26     2     3    1
    27     3     4    1
    28     4     5    1
    29     5     6    1
    30     6     7   ar
    31     7     8   ar
    32     8     9   ar
    33     9    10   ar
    34    10    11   ar
    35    16    17   ar
    36    17    18   ar
    37    27    28    1
    38    28    29    1
    39    29    23    1
    40    18    13   ar
    41    40    31    1
    42    11     2    1
    43    38    33   ar
    44    11     6   ar
    45    20    21    1
    46    40    41    1
@<TRIPOS>MOLECULE
*****
 41 46 0 0 0
SMALL
GASTEIGER

@<TRIPOS>ATOM
      1 N          -0.3233    3.4099   22.4688 N.3     1  UNL1       -0.2641
      2 C          -1.7567    3.4060   22.0269 C.3     1  UNL1        0.0981
      3 C          -2.0929    3.2510   20.5733 C.3     1  UNL1        0.0224
      4 C          -3.5263    3.2471   20.1313 C.3     1  UNL1        0.0065
      5 C          -4.6235    3.3982   21.1429 C.3     1  UNL1        0.0277
      6 C          -4.2873    3.5532   22.5965 C.ar    1  UNL1       -0.0073
      7 C          -5.3844    3.7042   23.6082 C.ar    1  UNL1       -0.0015
      8 C          -5.0482    3.8592   25.0617 C.ar    1  UNL1        0.0203
      9 C          -3.6148    3.8631   25.5037 C.ar    1  UNL1        0.0985
     10 N          -2.5176    3.7121   24.4921 N.ar    1  UNL1       -0.2471
     11 C          -2.8539    3.5571   23.0384 C.ar    1  UNL1        0.0695
     12 C           0.6462    4.3801   21.8615 C.3     1  UNL1        0.0994
     13 C           3.8325    2.9112   19.0438 C.ar    1  UNL1       -0.0064
     14 C           4.2010    3.3477   20.4308 C.ar    1  UNL1       -0.0032
     15 C           3.1389    3.8373   21.3700 C.ar    1  UNL1       -0.0032
     16 C           1.7083    3.8905   20.9223 C.ar    1  UNL1       -0.0062
     17 C           1.3398    3.4541   19.5353 C.ar    1  UNL1       -0.0032
     18 C           2.4019    2.9644   18.5961 C.ar    1  UNL1       -0.0032
     19 C           4.8946    2.4216   18.1045 C.3     1  UNL1        0.0956
     20 N           4.9665    0.9667   17.7465 N.3     1  UNL1       -0.2948
     21 H           4.0149    0.6031   17.7991 H       1  UNL1        0.1235
     22 C           8.2540   -3.1384   20.0229 C.3     1  UNL1        0.0000
     23 C           7.5558   -1.8173   20.1538 C.3     1  UNL1        0.0001
     24 C           8.1799   -1.9181   21.5141 C.3     1  UNL1        0.0000
     25 C           7.0742   -0.5312   20.7572 C.3     1  UNL1        0.0014
     26 C           6.2111    0.3968   19.9547 C.3     1  UNL1        0.0157
     27 C           5.8296    0.0387   18.5489 C.3     1  UNL1        0.0542
     28 C           6.3111   -1.2474   17.9456 C.3     1  UNL1        0.0157
     29 C           7.1742   -2.1754   18.7480 C.3     1  UNL1        0.0014
     30 C           0.1407    2.4436   23.5181 C.3     1  UNL1        0.0888
     31 C           1.0903    1.3407   23.1547 C.3     1  UNL1        0.0748
     32 C           1.0941    0.7827   21.7624 C.3     1  UNL1        0.0432
     33 C           2.0437   -0.3202   21.3991 C.ar    1  UNL1       -0.0234
     34 C           2.0476   -0.8783   20.0068 C.ar    1  UNL1       -0.0045
     35 C           2.9971   -1.9811   19.6435 C.ar    1  UNL1       -0.0003
     36 C           3.9429   -2.5258   20.6725 C.ar    1  UNL1       -0.0003
     37 C           3.9391   -1.9678   22.0647 C.ar    1  UNL1       -0.0032
     38 C           2.9895   -0.8650   22.4280 C.ar    1  UNL1       -0.0103
     39 C           2.9856   -0.3068   23.8204 C.3     1  UNL1        0.0953
     40 N           2.0361    0.7960   24.1837 N.3     1  UNL1       -0.2934
     41 H           2.6042    1.5796   24.5056 H       1  UNL1        0.1236
@<TRIPOS>BOND
     1    22    23    1
     2    23    24    1
     3    23    25    1
     4    25    26    1
     5    26    27    1
     6    27    20    1
     7    20    19    1
     8    19    13    1
     9    13    14   ar
    10    14    15   ar
    11    15    16   ar
    12    16    12    1
    13    12     1    1
    14     1    30    1
    15    31    30    1
    16    31    32    1
    17    32    33    1
    18    33    34   ar
    19    34    35   ar
    20    35    36   ar
    21    36    37   ar
    22    37    38   ar
    23    38    39    1
    24    39    40    1
    25     2     1    1
    26     2     3    1
    27     3     4    1
    28     4     5    1
    29     5     6    1
    30     6     7   ar
    31     7     8   ar
    32     8     9   ar
    33     9    10   ar
    34    10    11   ar
    35    16    17   ar
    36    17    18   ar
    37    27    28    1
    38    28    29    1
    39    29    23    1
    40    18    13   ar
    41    40    31    1
    42    11     2    1
    43    38    33   ar
    44    11     6   ar
    45    20    21    1
    46    40    41    1
