@<TRIPOS>MOLECULE
*****
 28 31 0 0 0
SMALL
GASTEIGER

@<TRIPOS>ATOM
      1 N          -6.1580  -18.5577   22.1523 N.pl3   1  UNL1       -0.2860
      2 C          -4.6682  -18.6915   22.0399 C.ar    1  UNL1        0.0576
      3 C          -4.0742  -19.8063   21.2310 C.ar    1  UNL1        0.0153
      4 C          -2.5844  -19.9401   21.1188 C.ar    1  UNL1        0.0013
      5 C          -1.6886  -18.9591   21.8154 C.ar    1  UNL1        0.0006
      6 C          -2.2826  -17.8443   22.6243 C.ar    1  UNL1        0.0077
      7 C          -3.7724  -17.7106   22.7366 C.ar    1  UNL1        0.0431
      8 S          -4.3665  -16.5957   23.5455 S.3     1  UNL1       -0.0844
      9 C          -5.8563  -16.4619   23.6578 C.ar    1  UNL1        0.0431
     10 C          -6.4503  -15.3471   24.4668 C.ar    1  UNL1        0.0086
     11 C          -7.9401  -15.2133   24.5790 C.ar    1  UNL1        0.0120
     12 C          -8.8359  -16.1943   23.8824 C.ar    1  UNL1        0.0589
     13 CL        -10.3256  -16.0605   23.9947 Cl      1  UNL1       -0.0822
     14 C          -8.2419  -17.3091   23.0735 C.ar    1  UNL1        0.0267
     15 C          -6.7520  -17.4429   22.9612 C.ar    1  UNL1        0.0585
     16 C          -7.0538  -19.5387   21.4556 C.3     1  UNL1        0.0970
     17 C          -7.5416  -19.2533   20.0662 C.3     1  UNL1        0.0391
     18 C          -8.9671  -19.5405   19.6980 C.3     1  UNL1        0.0739
     19 N         -12.3030  -18.2104   22.4095 N.3     1  UNL1       -0.2682
     20 C         -11.4464  -19.3806   22.7927 C.3     1  UNL1        0.0897
     21 C         -10.3344  -19.8240   21.8889 C.3     1  UNL1        0.0897
     22 N         -10.0791  -19.0972   20.6019 N.3     1  UNL1       -0.2703
     23 C         -10.9357  -17.9270   20.2187 C.3     1  UNL1        0.0897
     24 C         -12.0476  -17.4836   21.1225 C.3     1  UNL1        0.0897
     25 C         -13.4150  -17.7670   23.3134 C.3     1  UNL1        0.1043
     26 O         -15.0072  -18.5716   25.2021 O.3     1  UNL1       -0.3805
     27 C         -13.6247  -18.4472   24.6337 C.3     1  UNL1        0.1544
     28 H         -14.9662  -19.0334   26.0541 H       1  UNL1        0.2105
@<TRIPOS>BOND
     1    26    27    1
     2    27    25    1
     3    25    19    1
     4    19    20    1
     5    20    21    1
     6    21    22    1
     7    22    18    1
     8    18    17    1
     9    17    16    1
    10    16     1    1
    11     1     2    1
    12     2     3   ar
    13     3     4   ar
    14     4     5   ar
    15     5     6   ar
    16     6     7   ar
    17     7     8    1
    18     8     9    1
    19     9    10   ar
    20    10    11   ar
    21    11    12   ar
    22    12    13    1
    23    12    14   ar
    24    14    15   ar
    25    22    23    1
    26    23    24    1
    27    24    19    1
    28    15     1    1
    29     7     2   ar
    30    15     9   ar
    31    26    28    1
@<TRIPOS>MOLECULE
*****
 28 31 0 0 0
SMALL
GASTEIGER

@<TRIPOS>ATOM
      1 N          -8.3745  -17.8450   21.9752 N.pl3   1  UNL1       -0.2860
      2 C          -9.8718  -17.8240   21.8882 C.ar    1  UNL1        0.0576
      3 C         -10.5729  -18.6240   20.8307 C.ar    1  UNL1        0.0153
      4 C         -12.0702  -18.6029   20.7436 C.ar    1  UNL1        0.0013
      5 C         -12.8664  -17.7818   21.7142 C.ar    1  UNL1        0.0006
      6 C         -12.1653  -16.9818   22.7717 C.ar    1  UNL1        0.0077
      7 C         -10.6680  -17.0029   22.8587 C.ar    1  UNL1        0.0431
      8 S          -9.9669  -16.2029   23.9163 S.3     1  UNL1       -0.0844
      9 C          -8.4696  -16.2239   24.0033 C.ar    1  UNL1        0.0431
     10 C          -7.7684  -15.4239   25.0608 C.ar    1  UNL1        0.0086
     11 C          -6.2711  -15.4450   25.1479 C.ar    1  UNL1        0.0120
     12 C          -5.4749  -16.2661   24.1773 C.ar    1  UNL1        0.0589
     13 CL         -3.9776  -16.2871   24.2643 Cl      1  UNL1       -0.0822
     14 C          -6.1760  -17.0661   23.1198 C.ar    1  UNL1        0.0267
     15 C          -7.6734  -17.0450   23.0328 C.ar    1  UNL1        0.0585
     16 C          -7.5783  -18.6661   21.0047 C.3     1  UNL1        0.0970
     17 C          -7.1240  -20.0443   21.3842 C.3     1  UNL1        0.0391
     18 C          -5.8128  -20.5679   20.8776 C.3     1  UNL1        0.0739
     19 N          -2.2562  -17.8264   20.5872 N.3     1  UNL1       -0.2682
     20 C          -2.5793  -18.5005   21.8876 C.3     1  UNL1        0.0897
     21 C          -3.7649  -19.4143   21.9844 C.3     1  UNL1        0.0897
     22 N          -4.6272  -19.6540   20.7808 N.3     1  UNL1       -0.2703
     23 C          -4.3041  -18.9799   19.4803 C.3     1  UNL1        0.0897
     24 C          -3.1186  -18.0661   19.3835 C.3     1  UNL1        0.0897
     25 C          -1.0706  -16.9125   20.4904 C.3     1  UNL1        0.1043
     26 O           0.4072  -18.9100   19.7319 O.3     1  UNL1       -0.3805
     27 C           0.2605  -17.4539   20.0606 C.3     1  UNL1        0.1544
     28 H           1.3244  -19.0925   19.4741 H       1  UNL1        0.2105
@<TRIPOS>BOND
     1    26    27    1
     2    27    25    1
     3    25    19    1
     4    19    20    1
     5    20    21    1
     6    21    22    1
     7    22    18    1
     8    18    17    1
     9    17    16    1
    10    16     1    1
    11     1     2    1
    12     2     3   ar
    13     3     4   ar
    14     4     5   ar
    15     5     6   ar
    16     6     7   ar
    17     7     8    1
    18     8     9    1
    19     9    10   ar
    20    10    11   ar
    21    11    12   ar
    22    12    13    1
    23    12    14   ar
    24    14    15   ar
    25    22    23    1
    26    23    24    1
    27    24    19    1
    28    15     1    1
    29     7     2   ar
    30    15     9   ar
    31    26    28    1
@<TRIPOS>MOLECULE
*****
 28 31 0 0 0
SMALL
GASTEIGER

@<TRIPOS>ATOM
      1 N          -7.7281  -17.5825   22.4349 N.pl3   1  UNL1       -0.2860
      2 C          -7.0456  -16.7937   23.5129 C.ar    1  UNL1        0.0576
      3 C          -5.5477  -16.7429   23.5710 C.ar    1  UNL1        0.0153
      4 C          -4.8653  -15.9541   24.6490 C.ar    1  UNL1        0.0013
      5 C          -5.6808  -15.2162   25.6689 C.ar    1  UNL1        0.0006
      6 C          -7.1788  -15.2670   25.6108 C.ar    1  UNL1        0.0077
      7 C          -7.8612  -16.0557   24.5328 C.ar    1  UNL1        0.0431
      8 S          -9.3593  -16.1066   24.4747 S.3     1  UNL1       -0.0844
      9 C         -10.0417  -16.8953   23.3967 C.ar    1  UNL1        0.0431
     10 C         -11.5397  -16.9461   23.3385 C.ar    1  UNL1        0.0086
     11 C         -12.2221  -17.7349   22.2605 C.ar    1  UNL1        0.0120
     12 C         -11.4065  -18.4729   21.2406 C.ar    1  UNL1        0.0589
     13 CL        -12.0889  -19.2616   20.1626 Cl      1  UNL1       -0.0822
     14 C          -9.9086  -18.4221   21.2987 C.ar    1  UNL1        0.0267
     15 C          -9.2261  -17.6333   22.3768 C.ar    1  UNL1        0.0585
     16 C          -6.9125  -18.3205   21.4150 C.3     1  UNL1        0.0970
     17 C          -6.7190  -19.8027   21.5392 C.3     1  UNL1        0.0391
     18 C          -5.4201  -20.4270   21.1232 C.3     1  UNL1        0.0739
     19 N          -1.7710  -17.8572   20.5483 N.3     1  UNL1       -0.2682
     20 C          -2.6381  -18.2020   19.3739 C.3     1  UNL1        0.0897
     21 C          -3.8545  -19.0586   19.5655 C.3     1  UNL1        0.0897
     22 N          -4.2037  -19.5703   20.9315 N.3     1  UNL1       -0.2703
     23 C          -3.3366  -19.2255   22.1059 C.3     1  UNL1        0.0897
     24 C          -2.1203  -18.3689   21.9143 C.3     1  UNL1        0.0897
     25 C          -0.5546  -17.0006   20.3566 C.3     1  UNL1        0.1043
     26 O           1.8208  -17.8918   20.9157 O.3     1  UNL1       -0.3805
     27 C           0.7374  -17.6209   19.9143 C.3     1  UNL1        0.1544
     28 H           2.5826  -18.2916   20.4677 H       1  UNL1        0.2105
@<TRIPOS>BOND
     1    26    27    1
     2    27    25    1
     3    25    19    1
     4    19    20    1
     5    20    21    1
     6    21    22    1
     7    22    18    1
     8    18    17    1
     9    17    16    1
    10    16     1    1
    11     1     2    1
    12     2     3   ar
    13     3     4   ar
    14     4     5   ar
    15     5     6   ar
    16     6     7   ar
    17     7     8    1
    18     8     9    1
    19     9    10   ar
    20    10    11   ar
    21    11    12   ar
    22    12    13    1
    23    12    14   ar
    24    14    15   ar
    25    22    23    1
    26    23    24    1
    27    24    19    1
    28    15     1    1
    29     7     2   ar
    30    15     9   ar
    31    26    28    1
@<TRIPOS>MOLECULE
*****
 28 31 0 0 0
SMALL
GASTEIGER

@<TRIPOS>ATOM
      1 N          -6.4338  -17.7729   22.2847 N.pl3   1  UNL1       -0.2860
      2 C          -7.1072  -16.9185   23.3175 C.ar    1  UNL1        0.0576
      3 C          -8.5917  -16.7100   23.2664 C.ar    1  UNL1        0.0153
      4 C          -9.2650  -15.8556   24.2992 C.ar    1  UNL1        0.0013
      5 C          -8.4538  -15.2097   25.3830 C.ar    1  UNL1        0.0006
      6 C          -6.9692  -15.4181   25.4341 C.ar    1  UNL1        0.0077
      7 C          -6.2959  -16.2725   24.4013 C.ar    1  UNL1        0.0431
      8 S          -4.8113  -16.4810   24.4523 S.3     1  UNL1       -0.0844
      9 C          -4.1380  -17.3354   23.4196 C.ar    1  UNL1        0.0431
     10 C          -2.6534  -17.5439   23.4706 C.ar    1  UNL1        0.0086
     11 C          -1.9801  -18.3983   22.4378 C.ar    1  UNL1        0.0120
     12 C          -2.7913  -19.0443   21.3540 C.ar    1  UNL1        0.0589
     13 CL         -2.1180  -19.8986   20.3213 Cl      1  UNL1       -0.0822
     14 C          -4.2759  -18.8358   21.3030 C.ar    1  UNL1        0.0267
     15 C          -4.9493  -17.9814   22.3358 C.ar    1  UNL1        0.0585
     16 C          -7.2450  -18.4189   21.2009 C.3     1  UNL1        0.0970
     17 C          -7.9898  -19.6910   21.4785 C.3     1  UNL1        0.0391
     18 C          -9.3943  -19.8618   20.9803 C.3     1  UNL1        0.0739
     19 N         -12.8391  -18.1904   23.3445 N.3     1  UNL1       -0.2682
     20 C         -12.7122  -17.8801   21.8824 C.3     1  UNL1        0.0897
     21 C         -11.5640  -18.4372   21.0943 C.3     1  UNL1        0.0897
     22 N         -10.5426  -19.3046   21.7683 N.3     1  UNL1       -0.2703
     23 C         -10.6695  -19.6149   23.2304 C.3     1  UNL1        0.0897
     24 C         -11.8177  -19.0578   24.0185 C.3     1  UNL1        0.0897
     25 C         -13.9874  -17.6332   24.1325 C.3     1  UNL1        0.1043
     26 O         -14.5548  -18.7773   26.3950 O.3     1  UNL1       -0.3805
     27 C         -14.8553  -18.5494   24.9433 C.3     1  UNL1        0.1544
     28 H         -15.2068  -19.3912   26.7677 H       1  UNL1        0.2105
@<TRIPOS>BOND
     1    26    27    1
     2    27    25    1
     3    25    19    1
     4    19    20    1
     5    20    21    1
     6    21    22    1
     7    22    18    1
     8    18    17    1
     9    17    16    1
    10    16     1    1
    11     1     2    1
    12     2     3   ar
    13     3     4   ar
    14     4     5   ar
    15     5     6   ar
    16     6     7   ar
    17     7     8    1
    18     8     9    1
    19     9    10   ar
    20    10    11   ar
    21    11    12   ar
    22    12    13    1
    23    12    14   ar
    24    14    15   ar
    25    22    23    1
    26    23    24    1
    27    24    19    1
    28    15     1    1
    29     7     2   ar
    30    15     9   ar
    31    26    28    1
@<TRIPOS>MOLECULE
*****
 28 31 0 0 0
SMALL
GASTEIGER

@<TRIPOS>ATOM
      1 N          -8.3962  -16.5585   23.4686 N.pl3   1  UNL1       -0.2860
      2 C          -9.1548  -17.6085   22.7121 C.ar    1  UNL1        0.0576
      3 C          -9.1002  -17.6396   21.2134 C.ar    1  UNL1        0.0153
      4 C          -9.8587  -18.6896   20.4570 C.ar    1  UNL1        0.0013
      5 C         -10.6717  -19.7084   21.1993 C.ar    1  UNL1        0.0006
      6 C         -10.7263  -19.6773   22.6979 C.ar    1  UNL1        0.0077
      7 C          -9.9678  -18.6273   23.4543 C.ar    1  UNL1        0.0431
      8 S         -10.0223  -18.5962   24.9531 S.3     1  UNL1       -0.0844
      9 C          -9.2638  -17.5462   25.7095 C.ar    1  UNL1        0.0431
     10 C          -9.3183  -17.5151   27.2082 C.ar    1  UNL1        0.0086
     11 C          -8.5598  -16.4651   27.9646 C.ar    1  UNL1        0.0120
     12 C          -7.7468  -15.4462   27.2224 C.ar    1  UNL1        0.0589
     13 CL         -6.9883  -14.3962   27.9788 Cl      1  UNL1       -0.0822
     14 C          -7.6922  -15.4773   25.7237 C.ar    1  UNL1        0.0267
     15 C          -8.4508  -16.5274   24.9672 C.ar    1  UNL1        0.0585
     16 C          -7.5832  -15.5396   22.7263 C.3     1  UNL1        0.0970
     17 C          -6.1494  -15.3070   23.1004 C.3     1  UNL1        0.0391
     18 C          -5.3040  -16.4503   23.5780 C.3     1  UNL1        0.0739
     19 N          -2.0587  -18.1057   20.9365 N.3     1  UNL1       -0.2682
     20 C          -3.1916  -18.9861   21.3740 C.3     1  UNL1        0.0897
     21 C          -4.2733  -18.4343   22.2545 C.3     1  UNL1        0.0897
     22 N          -4.2222  -17.0022   22.6975 N.3     1  UNL1       -0.2703
     23 C          -3.0893  -16.1218   22.2599 C.3     1  UNL1        0.0897
     24 C          -2.0075  -16.6735   21.3794 C.3     1  UNL1        0.0897
     25 C          -0.9769  -18.6576   20.0559 C.3     1  UNL1        0.1043
     26 O           1.3703  -17.8114   20.7799 O.3     1  UNL1       -0.3805
     27 C           0.2530  -17.8446   19.7797 C.3     1  UNL1        0.1544
     28 H           2.0837  -17.2435   20.4490 H       1  UNL1        0.2105
@<TRIPOS>BOND
     1    26    27    1
     2    27    25    1
     3    25    19    1
     4    19    20    1
     5    20    21    1
     6    21    22    1
     7    22    18    1
     8    18    17    1
     9    17    16    1
    10    16     1    1
    11     1     2    1
    12     2     3   ar
    13     3     4   ar
    14     4     5   ar
    15     5     6   ar
    16     6     7   ar
    17     7     8    1
    18     8     9    1
    19     9    10   ar
    20    10    11   ar
    21    11    12   ar
    22    12    13    1
    23    12    14   ar
    24    14    15   ar
    25    22    23    1
    26    23    24    1
    27    24    19    1
    28    15     1    1
    29     7     2   ar
    30    15     9   ar
    31    26    28    1
@<TRIPOS>MOLECULE
*****
 28 31 0 0 0
SMALL
GASTEIGER

@<TRIPOS>ATOM
      1 N         -10.5211  -16.7154   23.3938 N.pl3   1  UNL1       -0.2860
      2 C         -10.8697  -16.3466   21.9822 C.ar    1  UNL1        0.0576
      3 C         -12.1631  -16.8131   21.3827 C.ar    1  UNL1        0.0153
      4 C         -12.5116  -16.4443   19.9712 C.ar    1  UNL1        0.0013
      5 C         -11.5667  -15.6090   19.1592 C.ar    1  UNL1        0.0006
      6 C         -10.2733  -15.1424   19.7587 C.ar    1  UNL1        0.0077
      7 C          -9.9248  -15.5112   21.1702 C.ar    1  UNL1        0.0431
      8 S          -8.6314  -15.0447   21.7698 S.3     1  UNL1       -0.0844
      9 C          -8.2829  -15.4135   23.1813 C.ar    1  UNL1        0.0431
     10 C          -6.9894  -14.9470   23.7809 C.ar    1  UNL1        0.0086
     11 C          -6.6409  -15.3158   25.1925 C.ar    1  UNL1        0.0120
     12 C          -7.5858  -16.1512   26.0045 C.ar    1  UNL1        0.0589
     13 CL         -7.2373  -16.5200   27.4160 Cl      1  UNL1       -0.0822
     14 C          -8.8792  -16.6177   25.4050 C.ar    1  UNL1        0.0267
     15 C          -9.2278  -16.2489   23.9934 C.ar    1  UNL1        0.0585
     16 C         -11.4660  -17.5508   24.2059 C.3     1  UNL1        0.0970
     17 C         -11.9030  -18.8939   23.7010 C.3     1  UNL1        0.0391
     18 C         -10.8926  -19.9837   23.4974 C.3     1  UNL1        0.0739
     19 N          -7.4197  -19.3396   20.7093 N.3     1  UNL1       -0.2682
     20 C          -8.8206  -19.3459   20.1732 C.3     1  UNL1        0.0897
     21 C          -9.9783  -19.5606   21.1026 C.3     1  UNL1        0.0897
     22 N          -9.7350  -19.7690   22.5679 N.3     1  UNL1       -0.2703
     23 C          -8.3340  -19.7627   23.1039 C.3     1  UNL1        0.0897
     24 C          -7.1764  -19.5480   22.1746 C.3     1  UNL1        0.0897
     25 C          -6.2620  -19.1249   19.7798 C.3     1  UNL1        0.1043
     26 O          -3.9270  -18.3593   20.6231 O.3     1  UNL1       -0.3805
     27 C          -4.8694  -19.4571   20.2273 C.3     1  UNL1        0.1544
     28 H          -3.0751  -18.7429   20.8841 H       1  UNL1        0.2105
@<TRIPOS>BOND
     1    26    27    1
     2    27    25    1
     3    25    19    1
     4    19    20    1
     5    20    21    1
     6    21    22    1
     7    22    18    1
     8    18    17    1
     9    17    16    1
    10    16     1    1
    11     1     2    1
    12     2     3   ar
    13     3     4   ar
    14     4     5   ar
    15     5     6   ar
    16     6     7   ar
    17     7     8    1
    18     8     9    1
    19     9    10   ar
    20    10    11   ar
    21    11    12   ar
    22    12    13    1
    23    12    14   ar
    24    14    15   ar
    25    22    23    1
    26    23    24    1
    27    24    19    1
    28    15     1    1
    29     7     2   ar
    30    15     9   ar
    31    26    28    1
@<TRIPOS>MOLECULE
*****
 28 31 0 0 0
SMALL
GASTEIGER

@<TRIPOS>ATOM
      1 N          -7.5706  -18.2483   21.9348 N.pl3   1  UNL1       -0.2860
      2 C          -7.7552  -17.2304   23.0210 C.ar    1  UNL1        0.0576
      3 C          -6.6013  -16.8584   23.9042 C.ar    1  UNL1        0.0153
      4 C          -6.7859  -15.8405   24.9904 C.ar    1  UNL1        0.0013
      5 C          -8.1244  -15.1947   25.1934 C.ar    1  UNL1        0.0006
      6 C          -9.2783  -15.5666   24.3102 C.ar    1  UNL1        0.0077
      7 C          -9.0937  -16.5845   23.2240 C.ar    1  UNL1        0.0431
      8 S         -10.2477  -16.9565   22.3408 S.3     1  UNL1       -0.0844
      9 C         -10.0631  -17.9744   21.2546 C.ar    1  UNL1        0.0431
     10 C         -11.2170  -18.3464   20.3713 C.ar    1  UNL1        0.0086
     11 C         -11.0324  -19.3643   19.2852 C.ar    1  UNL1        0.0120
     12 C          -9.6939  -20.0101   19.0821 C.ar    1  UNL1        0.0589
     13 CL         -9.5093  -21.0280   17.9960 Cl      1  UNL1       -0.0822
     14 C          -8.5400  -19.6381   19.9653 C.ar    1  UNL1        0.0267
     15 C          -8.7245  -18.6202   21.0516 C.ar    1  UNL1        0.0585
     16 C          -6.2321  -18.8941   21.7318 C.3     1  UNL1        0.0970
     17 C          -6.1201  -20.1470   20.9147 C.3     1  UNL1        0.0391
     18 C          -4.7720  -20.6420   20.4816 C.3     1  UNL1        0.0739
     19 N          -1.2888  -17.7998   20.2835 N.3     1  UNL1       -0.2682
     20 C          -1.4637  -18.6896   21.4783 C.3     1  UNL1        0.0897
     21 C          -2.6247  -19.6370   21.5444 C.3     1  UNL1        0.0897
     22 N          -3.6108  -19.6945   20.4156 N.3     1  UNL1       -0.2703
     23 C          -3.4359  -18.8047   19.2208 C.3     1  UNL1        0.0897
     24 C          -2.2749  -17.8573   19.1548 C.3     1  UNL1        0.0897
     25 C          -0.1276  -16.8523   20.2176 C.3     1  UNL1        0.1043
     26 O           1.9500  -18.1407   21.0968 O.3     1  UNL1       -0.3805
     27 C           1.2599  -17.3803   20.0034 C.3     1  UNL1        0.1544
     28 H           2.8327  -18.4086   20.7968 H       1  UNL1        0.2105
@<TRIPOS>BOND
     1    26    27    1
     2    27    25    1
     3    25    19    1
     4    19    20    1
     5    20    21    1
     6    21    22    1
     7    22    18    1
     8    18    17    1
     9    17    16    1
    10    16     1    1
    11     1     2    1
    12     2     3   ar
    13     3     4   ar
    14     4     5   ar
    15     5     6   ar
    16     6     7   ar
    17     7     8    1
    18     8     9    1
    19     9    10   ar
    20    10    11   ar
    21    11    12   ar
    22    12    13    1
    23    12    14   ar
    24    14    15   ar
    25    22    23    1
    26    23    24    1
    27    24    19    1
    28    15     1    1
    29     7     2   ar
    30    15     9   ar
    31    26    28    1
@<TRIPOS>MOLECULE
*****
 28 31 0 0 0
SMALL
GASTEIGER

@<TRIPOS>ATOM
      1 N           5.2567   -2.5842   21.0146 N.pl3   1  UNL1       -0.2860
      2 C           6.6819   -2.8416   20.6237 C.ar    1  UNL1        0.0576
      3 C           7.5332   -3.7574   21.4522 C.ar    1  UNL1        0.0153
      4 C           8.9583   -4.0147   21.0612 C.ar    1  UNL1        0.0013
      5 C           9.5320   -3.3561   19.8417 C.ar    1  UNL1        0.0006
      6 C           8.6807   -2.4403   19.0132 C.ar    1  UNL1        0.0077
      7 C           7.2556   -2.1830   19.4041 C.ar    1  UNL1        0.0431
      8 S           6.4042   -1.2672   18.5756 S.3     1  UNL1       -0.0844
      9 C           4.9791   -1.0099   18.9666 C.ar    1  UNL1        0.0431
     10 C           4.1277   -0.0941   18.1381 C.ar    1  UNL1        0.0086
     11 C           2.7026    0.1632   18.5291 C.ar    1  UNL1        0.0120
     12 C           2.1289   -0.4953   19.7486 C.ar    1  UNL1        0.0589
     13 CL          0.7038   -0.2380   20.1396 Cl      1  UNL1       -0.0822
     14 C           2.9802   -1.4111   20.5771 C.ar    1  UNL1        0.0267
     15 C           4.4054   -1.6684   20.1861 C.ar    1  UNL1        0.0585
     16 C           4.6830   -3.2427   22.2341 C.3     1  UNL1        0.0970
     17 C           4.7536   -2.5512   23.5633 C.3     1  UNL1        0.0391
     18 C           6.0621   -2.4554   24.2904 C.3     1  UNL1        0.0739
     19 N           6.7819   -4.9507   27.9653 N.3     1  UNL1       -0.2682
     20 C           7.1053   -5.5029   26.6087 C.3     1  UNL1        0.0897
     21 C           6.8654   -4.6712   25.3837 C.3     1  UNL1        0.0897
     22 N           6.3020   -3.2872   25.5154 N.3     1  UNL1       -0.2703
     23 C           5.9786   -2.7351   26.8720 C.3     1  UNL1        0.0897
     24 C           6.2185   -3.5668   28.0970 C.3     1  UNL1        0.0897
     25 C           7.0218   -5.7825   29.1904 C.3     1  UNL1        0.1043
     26 O           6.4902   -5.9932   31.7246 O.3     1  UNL1       -0.3805
     27 C           6.9158   -5.1611   30.5514 C.3     1  UNL1        0.1544
     28 H           6.4737   -5.4422   32.5228 H       1  UNL1        0.2105
@<TRIPOS>BOND
     1    26    27    1
     2    27    25    1
     3    25    19    1
     4    19    20    1
     5    20    21    1
     6    21    22    1
     7    22    18    1
     8    18    17    1
     9    17    16    1
    10    16     1    1
    11     1     2    1
    12     2     3   ar
    13     3     4   ar
    14     4     5   ar
    15     5     6   ar
    16     6     7   ar
    17     7     8    1
    18     8     9    1
    19     9    10   ar
    20    10    11   ar
    21    11    12   ar
    22    12    13    1
    23    12    14   ar
    24    14    15   ar
    25    22    23    1
    26    23    24    1
    27    24    19    1
    28    15     1    1
    29     7     2   ar
    30    15     9   ar
    31    26    28    1
@<TRIPOS>MOLECULE
*****
 28 31 0 0 0
SMALL
GASTEIGER

@<TRIPOS>ATOM
      1 N           3.9306   -1.8985   22.6761 N.pl3   1  UNL1       -0.2860
      2 C           4.2451   -2.5079   21.3420 C.ar    1  UNL1        0.0576
      3 C           5.2700   -3.5982   21.2383 C.ar    1  UNL1        0.0153
      4 C           5.5844   -4.2075   19.9043 C.ar    1  UNL1        0.0013
      5 C           4.8740   -3.7266   18.6739 C.ar    1  UNL1        0.0006
      6 C           3.8491   -2.6363   18.7775 C.ar    1  UNL1        0.0077
      7 C           3.5346   -2.0270   20.1116 C.ar    1  UNL1        0.0431
      8 S           2.5097   -0.9366   20.2153 S.3     1  UNL1       -0.0844
      9 C           2.1952   -0.3273   21.5494 C.ar    1  UNL1        0.0431
     10 C           1.1703    0.7630   21.6532 C.ar    1  UNL1        0.0086
     11 C           0.8558    1.3724   22.9872 C.ar    1  UNL1        0.0120
     12 C           1.5663    0.8914   24.2176 C.ar    1  UNL1        0.0589
     13 CL          1.2519    1.5007   25.5517 Cl      1  UNL1       -0.0822
     14 C           2.5912   -0.1989   24.1140 C.ar    1  UNL1        0.0267
     15 C           2.9057   -0.8083   22.7798 C.ar    1  UNL1        0.0585
     16 C           4.6411   -2.3795   23.9066 C.3     1  UNL1        0.0970
     17 C           6.0025   -1.8472   24.2428 C.3     1  UNL1        0.0391
     18 C           7.0985   -2.7898   24.6433 C.3     1  UNL1        0.0739
     19 N           6.9092   -4.9049   28.6107 N.3     1  UNL1       -0.2682
     20 C           7.0731   -3.4147   28.5623 C.3     1  UNL1        0.0897
     21 C           7.1362   -2.7096   27.2399 C.3     1  UNL1        0.0897
     22 N           7.0354   -3.4948   25.9658 N.3     1  UNL1       -0.2703
     23 C           6.8715   -4.9851   26.0142 C.3     1  UNL1        0.0897
     24 C           6.8084   -5.6901   27.3367 C.3     1  UNL1        0.0897
     25 C           6.8460   -5.6099   29.9332 C.3     1  UNL1        0.1043
     26 O           6.4200   -5.3907   32.4867 O.3     1  UNL1       -0.3805
     27 C           6.9624   -4.8265   31.2071 C.3     1  UNL1        0.1544
     28 H           6.5759   -4.7622   33.2089 H       1  UNL1        0.2105
@<TRIPOS>BOND
     1    26    27    1
     2    27    25    1
     3    25    19    1
     4    19    20    1
     5    20    21    1
     6    21    22    1
     7    22    18    1
     8    18    17    1
     9    17    16    1
    10    16     1    1
    11     1     2    1
    12     2     3   ar
    13     3     4   ar
    14     4     5   ar
    15     5     6   ar
    16     6     7   ar
    17     7     8    1
    18     8     9    1
    19     9    10   ar
    20    10    11   ar
    21    11    12   ar
    22    12    13    1
    23    12    14   ar
    24    14    15   ar
    25    22    23    1
    26    23    24    1
    27    24    19    1
    28    15     1    1
    29     7     2   ar
    30    15     9   ar
    31    26    28    1
