@<TRIPOS>MOLECULE
*****
 28 30 0 0 0
SMALL
GASTEIGER

@<TRIPOS>ATOM
      1 C          -8.7339  -17.0553   23.7414 C.ar    1  UNL1        0.0045
      2 C          -9.3663  -17.9879   24.7314 C.ar    1  UNL1        0.0004
      3 C         -10.8267  -18.3144   24.6273 C.ar    1  UNL1        0.0076
      4 C         -11.6545  -17.7083   23.5331 C.ar    1  UNL1        0.0870
      5 C         -11.0220  -16.7757   22.5431 C.ar    1  UNL1        0.1427
      6 C          -9.5617  -16.4492   22.6473 C.ar    1  UNL1        0.0371
      7 C          -4.8057  -17.2241   23.2016 C.ar    1  UNL1        0.0219
      8 C          -4.3529  -16.0758   24.0539 C.ar    1  UNL1        0.0989
      9 N          -5.3603  -15.2541   24.8020 N.ar    1  UNL1       -0.2423
     10 C          -6.8207  -15.5806   24.6979 C.ar    1  UNL1        0.0988
     11 C          -7.2735  -16.7288   23.8456 C.ar    1  UNL1        0.0193
     12 C          -6.2661  -17.5506   23.0975 C.ar    1  UNL1        0.0032
     13 C          -2.1695  -16.0834   21.6528 C.3     1  UNL1        0.0518
     14 C          -2.5865  -17.5216   21.7415 C.ar    1  UNL1        0.0576
     15 C          -3.7983  -18.0459   22.4534 C.ar    1  UNL1        0.0356
     16 C          -3.8257  -19.5362   22.2858 C.ar    1  UNL1        0.1213
     17 N          -2.6309  -19.9330   21.4703 N.ar    1  UNL1       -0.1679
     18 N          -1.8650  -18.6878   21.1339 N.ar    1  UNL1       -0.2528
     19 C          -0.5998  -18.6208   20.3309 C.3     1  UNL1        0.1533
     20 C         -13.1148  -18.0348   23.4290 C.2     1  UNL1        0.2457
     21 N         -13.7522  -18.1999   22.0812 N.am    1  UNL1       -0.3252
     22 O         -13.9378  -18.1963   24.6726 O.2     1  UNL1       -0.2703
     23 H         -13.2121  -18.0939   21.2650 H       1  UNL1        0.1453
     24 H         -14.7107  -18.4141   22.0129 H       1  UNL1        0.1453
     25 O         -11.8499  -16.1695   21.4489 O.3     1  UNL1       -0.4790
     26 C         -11.5601  -16.5047   20.0158 C.3     1  UNL1        0.1661
     27 C         -11.1087  -17.8864   19.6452 C.3     1  UNL1        0.0472
     28 C         -11.7216  -15.4582   18.9534 C.3     1  UNL1        0.0472
@<TRIPOS>BOND
     1    13    14    1
     2    14    15   ar
     3    15     7    1
     4     7     8   ar
     5     8     9   ar
     6     9    10   ar
     7    10    11   ar
     8    11     1    1
     9     1     2   ar
    10     2     3   ar
    11     3     4   ar
    12     4    20    1
    13    20    21   am
    14    20    22    2
    15     4     5   ar
    16     5    25    1
    17    25    26    1
    18    26    27    1
    19    26    28    1
    20     5     6   ar
    21    11    12   ar
    22    15    16   ar
    23    16    17   ar
    24    17    18   ar
    25    18    19    1
    26    18    14   ar
    27    12     7   ar
    28     6     1   ar
    29    21    23    1
    30    21    24    1
@<TRIPOS>MOLECULE
*****
 28 30 0 0 0
SMALL
GASTEIGER

@<TRIPOS>ATOM
      1 C          -6.3779  -19.0181   20.9217 C.ar    1  UNL1        0.0045
      2 C          -5.2695  -19.4540   20.0100 C.ar    1  UNL1        0.0004
      3 C          -3.8401  -19.2561   20.4193 C.ar    1  UNL1        0.0076
      4 C          -3.5191  -18.6222   21.7403 C.ar    1  UNL1        0.0870
      5 C          -4.6275  -18.1863   22.6520 C.ar    1  UNL1        0.1427
      6 C          -6.0569  -18.3842   22.2427 C.ar    1  UNL1        0.0371
      7 C         -10.3453  -18.9672   21.0095 C.ar    1  UNL1        0.0219
      8 C         -10.6662  -19.6119   19.6938 C.ar    1  UNL1        0.0989
      9 N          -9.5578  -20.0587   18.7873 N.ar    1  UNL1       -0.2423
     10 C          -8.1284  -19.8607   19.1966 C.ar    1  UNL1        0.0988
     11 C          -7.8074  -19.2160   20.5124 C.ar    1  UNL1        0.0193
     12 C          -8.9158  -18.7693   21.4188 C.ar    1  UNL1        0.0032
     13 C         -10.8726  -20.0146   24.0549 C.3     1  UNL1        0.0518
     14 C         -11.6961  -19.0019   23.3159 C.ar    1  UNL1        0.0576
     15 C         -11.4537  -18.5204   21.9161 C.ar    1  UNL1        0.0356
     16 C         -12.5144  -17.5138   21.5820 C.ar    1  UNL1        0.1213
     17 N         -13.4123  -17.3731   22.7753 N.ar    1  UNL1       -0.1679
     18 N         -12.9065  -18.2928   23.8469 N.ar    1  UNL1       -0.2528
     19 C         -13.5060  -18.4720   25.2102 C.3     1  UNL1        0.1533
     20 C          -2.0896  -18.4243   22.1496 C.2     1  UNL1        0.2457
     21 N          -1.7679  -17.8600   23.5016 N.am    1  UNL1       -0.3252
     22 O          -0.9819  -18.7905   21.2069 O.2     1  UNL1       -0.2703
     23 H          -2.4949  -17.6196   24.1204 H       1  UNL1        0.1453
     24 H          -0.8297  -17.7301   23.7703 H       1  UNL1        0.1453
     25 O          -4.3066  -17.5523   23.9731 O.3     1  UNL1       -0.4790
     26 C          -4.8486  -16.1935   24.3044 C.3     1  UNL1        0.1661
     27 C          -5.3240  -15.8943   25.6953 C.3     1  UNL1        0.0472
     28 C          -4.9154  -15.1339   23.2448 C.3     1  UNL1        0.0472
@<TRIPOS>BOND
     1    13    14    1
     2    14    15   ar
     3    15     7    1
     4     7     8   ar
     5     8     9   ar
     6     9    10   ar
     7    10    11   ar
     8    11     1    1
     9     1     2   ar
    10     2     3   ar
    11     3     4   ar
    12     4    20    1
    13    20    21   am
    14    20    22    2
    15     4     5   ar
    16     5    25    1
    17    25    26    1
    18    26    27    1
    19    26    28    1
    20     5     6   ar
    21    11    12   ar
    22    15    16   ar
    23    16    17   ar
    24    17    18   ar
    25    18    19    1
    26    18    14   ar
    27    12     7   ar
    28     6     1   ar
    29    21    23    1
    30    21    24    1
@<TRIPOS>MOLECULE
*****
 28 30 0 0 0
SMALL
GASTEIGER

@<TRIPOS>ATOM
      1 C          -8.0936  -18.9261   20.5591 C.ar    1  UNL1        0.0045
      2 C          -9.2598  -19.1975   19.6556 C.ar    1  UNL1        0.0004
      3 C         -10.5533  -18.4662   19.8604 C.ar    1  UNL1        0.0076
      4 C         -10.6806  -17.4635   20.9687 C.ar    1  UNL1        0.0870
      5 C          -9.5144  -17.1921   21.8722 C.ar    1  UNL1        0.1427
      6 C          -8.2209  -17.9234   21.6674 C.ar    1  UNL1        0.0371
      7 C          -4.2554  -19.6250   19.8312 C.ar    1  UNL1        0.0219
      8 C          -4.2130  -21.1201   19.9447 C.ar    1  UNL1        0.0989
      9 N          -5.4641  -21.8839   20.2630 N.ar    1  UNL1       -0.2423
     10 C          -6.7576  -21.1525   20.4678 C.ar    1  UNL1        0.0988
     11 C          -6.8000  -19.6575   20.3543 C.ar    1  UNL1        0.0193
     12 C          -5.5489  -18.8937   20.0360 C.ar    1  UNL1        0.0032
     13 C          -1.8943  -18.8447   21.9446 C.3     1  UNL1        0.0518
     14 C          -1.9190  -18.5026   20.4843 C.ar    1  UNL1        0.0576
     15 C          -3.0042  -18.8612   19.5129 C.ar    1  UNL1        0.0356
     16 C          -2.6187  -18.3220   18.1674 C.ar    1  UNL1        0.1213
     17 N          -1.2952  -17.6301   18.3072 N.ar    1  UNL1       -0.1679
     18 N          -0.8627  -17.7417   19.7392 N.ar    1  UNL1       -0.2528
     19 C           0.4036  -17.1894   20.3234 C.3     1  UNL1        0.1533
     20 C         -11.9742  -16.7321   21.1735 C.2     1  UNL1        0.2457
     21 N         -12.5671  -16.6273   22.5473 N.am    1  UNL1       -0.3252
     22 O         -12.6748  -16.1057   20.0045 O.2     1  UNL1       -0.2703
     23 H         -12.1073  -17.0385   23.3146 H       1  UNL1        0.1453
     24 H         -13.4161  -16.1473   22.6817 H       1  UNL1        0.1453
     25 O          -9.6418  -16.1894   22.9805 O.3     1  UNL1       -0.4790
     26 C          -9.3237  -16.5866   24.3915 C.3     1  UNL1        0.1661
     27 C          -9.7706  -17.9197   24.9143 C.3     1  UNL1        0.0472
     28 C          -8.5587  -15.6509   25.2799 C.3     1  UNL1        0.0472
@<TRIPOS>BOND
     1    13    14    1
     2    14    15   ar
     3    15     7    1
     4     7     8   ar
     5     8     9   ar
     6     9    10   ar
     7    10    11   ar
     8    11     1    1
     9     1     2   ar
    10     2     3   ar
    11     3     4   ar
    12     4    20    1
    13    20    21   am
    14    20    22    2
    15     4     5   ar
    16     5    25    1
    17    25    26    1
    18    26    27    1
    19    26    28    1
    20     5     6   ar
    21    11    12   ar
    22    15    16   ar
    23    16    17   ar
    24    17    18   ar
    25    18    19    1
    26    18    14   ar
    27    12     7   ar
    28     6     1   ar
    29    21    23    1
    30    21    24    1
@<TRIPOS>MOLECULE
*****
 28 30 0 0 0
SMALL
GASTEIGER

@<TRIPOS>ATOM
      1 C           2.1840    0.8929   18.7703 C.ar    1  UNL1        0.0045
      2 C           1.6086    0.0708   19.8851 C.ar    1  UNL1        0.0004
      3 C           2.1654   -1.2911   20.1772 C.ar    1  UNL1        0.0076
      4 C           3.2976   -1.8307   19.3546 C.ar    1  UNL1        0.0870
      5 C           3.8730   -1.0086   18.2398 C.ar    1  UNL1        0.1427
      6 C           3.3162    0.3533   17.9476 C.ar    1  UNL1        0.0371
      7 C          -0.3756    3.7728   17.8190 C.ar    1  UNL1        0.0219
      8 C           0.5136    4.9785   17.8938 C.ar    1  UNL1        0.0989
      9 N           1.9596    4.8223   18.2607 N.ar    1  UNL1       -0.2423
     10 C           2.5164    3.4605   18.5528 C.ar    1  UNL1        0.0988
     11 C           1.6272    2.2548   18.4781 C.ar    1  UNL1        0.0193
     12 C           0.1812    2.4109   18.1112 C.ar    1  UNL1        0.0032
     13 C          -2.8949    3.7426   19.8932 C.3     1  UNL1        0.0518
     14 C          -2.9797    3.9150   18.4055 C.ar    1  UNL1        0.0576
     15 C          -1.8217    3.9289   17.4521 C.ar    1  UNL1        0.0356
     16 C          -2.3637    4.1263   16.0675 C.ar    1  UNL1        0.1213
     17 N          -3.8566    4.2344   16.1651 N.ar    1  UNL1       -0.1679
     18 N          -4.2373    4.1038   17.6101 N.ar    1  UNL1       -0.2528
     19 C          -5.6309    4.1534   18.1627 C.3     1  UNL1        0.1533
     20 C           3.8544   -3.1926   19.6467 C.2     1  UNL1        0.2457
     21 N           3.9473   -4.2152   18.5534 N.am    1  UNL1       -0.3252
     22 O           4.3183   -3.5318   21.0323 O.2     1  UNL1       -0.2703
     23 H           3.6429   -3.9926   17.6440 H       1  UNL1        0.1453
     24 H           4.3128   -5.1091   18.7451 H       1  UNL1        0.1453
     25 O           5.0053   -1.5482   17.4170 O.3     1  UNL1       -0.4790
     26 C           6.4195   -1.1781   17.7531 C.3     1  UNL1        0.1661
     27 C           6.9499    0.1744   17.3795 C.3     1  UNL1        0.0472
     28 C           7.3034   -2.1605   18.4628 C.3     1  UNL1        0.0472
@<TRIPOS>BOND
     1    13    14    1
     2    14    15   ar
     3    15     7    1
     4     7     8   ar
     5     8     9   ar
     6     9    10   ar
     7    10    11   ar
     8    11     1    1
     9     1     2   ar
    10     2     3   ar
    11     3     4   ar
    12     4    20    1
    13    20    21   am
    14    20    22    2
    15     4     5   ar
    16     5    25    1
    17    25    26    1
    18    26    27    1
    19    26    28    1
    20     5     6   ar
    21    11    12   ar
    22    15    16   ar
    23    16    17   ar
    24    17    18   ar
    25    18    19    1
    26    18    14   ar
    27    12     7   ar
    28     6     1   ar
    29    21    23    1
    30    21    24    1
@<TRIPOS>MOLECULE
*****
 28 30 0 0 0
SMALL
GASTEIGER

@<TRIPOS>ATOM
      1 C           4.2146   -1.4243   23.1463 C.ar    1  UNL1        0.0045
      2 C           4.7480   -2.8179   23.2994 C.ar    1  UNL1        0.0004
      3 C           4.7176   -3.7646   22.1363 C.ar    1  UNL1        0.0076
      4 C           4.1537   -3.3177   20.8201 C.ar    1  UNL1        0.0870
      5 C           3.6203   -1.9242   20.6670 C.ar    1  UNL1        0.1427
      6 C           3.6508   -0.9775   21.8301 C.ar    1  UNL1        0.0371
      7 C           3.2688    0.3337   26.5762 C.ar    1  UNL1        0.0219
      8 C           4.3059    1.4158   26.6356 C.ar    1  UNL1        0.0989
      9 N           5.3125    1.5512   25.5318 N.ar    1  UNL1       -0.2423
     10 C           5.2821    0.6045   24.3687 C.ar    1  UNL1        0.0988
     11 C           4.2450   -0.4776   24.3094 C.ar    1  UNL1        0.0193
     12 C           3.2384   -0.6130   25.4131 C.ar    1  UNL1        0.0032
     13 C           0.1472    1.2771   26.4517 C.3     1  UNL1        0.0518
     14 C           0.8272    0.6319   27.6228 C.ar    1  UNL1        0.0576
     15 C           2.2621    0.1983   27.6800 C.ar    1  UNL1        0.0356
     16 C           2.5135   -0.3944   29.0348 C.ar    1  UNL1        0.1213
     17 N           1.2340   -0.3272   29.8148 N.ar    1  UNL1       -0.1679
     18 N           0.1918    0.3072   28.9421 N.ar    1  UNL1       -0.2528
     19 C          -1.2351    0.5705   29.3221 C.3     1  UNL1        0.1533
     20 C           4.1233   -4.2645   19.6570 C.2     1  UNL1        0.2457
     21 N           4.5785   -3.8048   18.3037 N.am    1  UNL1       -0.3252
     22 O           3.6377   -5.6709   19.8472 O.2     1  UNL1       -0.2703
     23 H           4.8972   -2.8817   18.1788 H       1  UNL1        0.1453
     24 H           4.5585   -4.4261   17.5403 H       1  UNL1        0.1453
     25 O           3.0565   -1.4773   19.3507 O.3     1  UNL1       -0.4790
     26 C           2.2780   -0.1982   19.2638 C.3     1  UNL1        0.1661
     27 C           0.8894   -0.1255   19.8266 C.3     1  UNL1        0.0472
     28 C           2.8879    1.0084   18.6142 C.3     1  UNL1        0.0472
@<TRIPOS>BOND
     1    13    14    1
     2    14    15   ar
     3    15     7    1
     4     7     8   ar
     5     8     9   ar
     6     9    10   ar
     7    10    11   ar
     8    11     1    1
     9     1     2   ar
    10     2     3   ar
    11     3     4   ar
    12     4    20    1
    13    20    21   am
    14    20    22    2
    15     4     5   ar
    16     5    25    1
    17    25    26    1
    18    26    27    1
    19    26    28    1
    20     5     6   ar
    21    11    12   ar
    22    15    16   ar
    23    16    17   ar
    24    17    18   ar
    25    18    19    1
    26    18    14   ar
    27    12     7   ar
    28     6     1   ar
    29    21    23    1
    30    21    24    1
@<TRIPOS>MOLECULE
*****
 28 30 0 0 0
SMALL
GASTEIGER

@<TRIPOS>ATOM
      1 C           3.4787   -1.4433   22.8078 C.ar    1  UNL1        0.0045
      2 C           4.2525   -2.7166   22.9807 C.ar    1  UNL1        0.0004
      3 C           4.6154   -3.5423   21.7821 C.ar    1  UNL1        0.0076
      4 C           4.2045   -3.0947   20.4107 C.ar    1  UNL1        0.0870
      5 C           3.4307   -1.8214   20.2379 C.ar    1  UNL1        0.1427
      6 C           3.0678   -0.9957   21.4364 C.ar    1  UNL1        0.0371
      7 C           1.5656    1.1234   25.1535 C.ar    1  UNL1        0.0219
      8 C           2.3899    1.0338   26.4035 C.ar    1  UNL1        0.0989
      9 N           3.5771    0.1185   26.4549 N.ar    1  UNL1       -0.2423
     10 C           3.9400   -0.7072   25.2563 C.ar    1  UNL1        0.0988
     11 C           3.1157   -0.6176   24.0064 C.ar    1  UNL1        0.0193
     12 C           1.9285    0.2977   23.9550 C.ar    1  UNL1        0.0032
     13 C          -0.7835    1.3466   27.4077 C.3     1  UNL1        0.0518
     14 C          -0.7015    2.1413   26.1382 C.ar    1  UNL1        0.0576
     15 C           0.3783    2.0388   25.1020 C.ar    1  UNL1        0.0356
     16 C           0.0624    3.0122   24.0054 C.ar    1  UNL1        0.1213
     17 N          -1.2126    3.7164   24.3638 N.ar    1  UNL1       -0.1679
     18 N          -1.6847    3.1782   25.6820 N.ar    1  UNL1       -0.2528
     19 C          -2.9227    3.6023   26.4151 C.3     1  UNL1        0.1533
     20 C           4.5674   -3.9204   19.2122 C.2     1  UNL1        0.2457
     21 N           5.0319   -3.2508   17.9529 N.am    1  UNL1       -0.3252
     22 O           4.4658   -5.4157   19.2729 O.2     1  UNL1       -0.2703
     23 H           5.0986   -2.2693   17.9130 H       1  UNL1        0.1453
     24 H           5.2701   -3.7927   17.1663 H       1  UNL1        0.1453
     25 O           3.0198   -1.3737   18.8664 O.3     1  UNL1       -0.4790
     26 C           2.7242    0.0738   18.6071 C.3     1  UNL1        0.1661
     27 C           3.8495    1.0432   18.3975 C.3     1  UNL1        0.0472
     28 C           1.3033    0.5520   18.5575 C.3     1  UNL1        0.0472
@<TRIPOS>BOND
     1    13    14    1
     2    14    15   ar
     3    15     7    1
     4     7     8   ar
     5     8     9   ar
     6     9    10   ar
     7    10    11   ar
     8    11     1    1
     9     1     2   ar
    10     2     3   ar
    11     3     4   ar
    12     4    20    1
    13    20    21   am
    14    20    22    2
    15     4     5   ar
    16     5    25    1
    17    25    26    1
    18    26    27    1
    19    26    28    1
    20     5     6   ar
    21    11    12   ar
    22    15    16   ar
    23    16    17   ar
    24    17    18   ar
    25    18    19    1
    26    18    14   ar
    27    12     7   ar
    28     6     1   ar
    29    21    23    1
    30    21    24    1
@<TRIPOS>MOLECULE
*****
 28 30 0 0 0
SMALL
GASTEIGER

@<TRIPOS>ATOM
      1 C           3.3262   -1.2477   22.5566 C.ar    1  UNL1        0.0045
      2 C           2.7741   -0.8058   21.2338 C.ar    1  UNL1        0.0004
      3 C           3.1818   -1.5148   19.9764 C.ar    1  UNL1        0.0076
      4 C           4.1416   -2.6657   20.0418 C.ar    1  UNL1        0.0870
      5 C           4.6937   -3.1075   21.3646 C.ar    1  UNL1        0.1427
      6 C           4.2860   -2.3985   22.6220 C.ar    1  UNL1        0.0371
      7 C           1.3266    1.0907   25.0633 C.ar    1  UNL1        0.0219
      8 C           2.1032    0.8793   26.3290 C.ar    1  UNL1        0.0989
      9 N           3.2876   -0.0411   26.3372 N.ar    1  UNL1       -0.2423
     10 C           3.6953   -0.7501   25.0798 C.ar    1  UNL1        0.0988
     11 C           2.9186   -0.5387   23.8141 C.ar    1  UNL1        0.0193
     12 C           1.7342    0.3817   23.8058 C.ar    1  UNL1        0.0032
     13 C          -0.8626    1.4214   27.4607 C.3     1  UNL1        0.0518
     14 C          -0.8641    2.1632   26.1570 C.ar    1  UNL1        0.0576
     15 C           0.1422    2.0112   25.0550 C.ar    1  UNL1        0.0356
     16 C          -0.2439    2.9412   23.9432 C.ar    1  UNL1        0.1213
     17 N          -1.4888    3.6680   24.3581 N.ar    1  UNL1       -0.1679
     18 N          -1.8721    3.1871   25.7263 N.ar    1  UNL1       -0.2528
     19 C          -3.0555    3.6491   26.5238 C.3     1  UNL1        0.1533
     20 C           4.5492   -3.3747   18.7843 C.2     1  UNL1        0.2457
     21 N           4.1499   -4.8039   18.5661 N.am    1  UNL1       -0.3252
     22 O           5.3562   -2.6544   17.7452 O.2     1  UNL1       -0.2703
     23 H           3.6202   -5.2767   19.2481 H       1  UNL1        0.1453
     24 H           4.4175   -5.2693   17.7408 H       1  UNL1        0.1453
     25 O           5.6535   -4.2584   21.4300 O.3     1  UNL1       -0.4790
     26 C           7.1216   -4.0020   21.6004 C.3     1  UNL1        0.1661
     27 C           7.8892   -3.2941   20.5234 C.3     1  UNL1        0.0472
     28 C           7.8220   -4.4533   22.8476 C.3     1  UNL1        0.0472
@<TRIPOS>BOND
     1    13    14    1
     2    14    15   ar
     3    15     7    1
     4     7     8   ar
     5     8     9   ar
     6     9    10   ar
     7    10    11   ar
     8    11     1    1
     9     1     2   ar
    10     2     3   ar
    11     3     4   ar
    12     4    20    1
    13    20    21   am
    14    20    22    2
    15     4     5   ar
    16     5    25    1
    17    25    26    1
    18    26    27    1
    19    26    28    1
    20     5     6   ar
    21    11    12   ar
    22    15    16   ar
    23    16    17   ar
    24    17    18   ar
    25    18    19    1
    26    18    14   ar
    27    12     7   ar
    28     6     1   ar
    29    21    23    1
    30    21    24    1
@<TRIPOS>MOLECULE
*****
 28 30 0 0 0
SMALL
GASTEIGER

@<TRIPOS>ATOM
      1 C          -8.3839  -16.5674   23.3101 C.ar    1  UNL1        0.0045
      2 C          -9.5433  -16.1121   24.1457 C.ar    1  UNL1        0.0004
      3 C         -10.9441  -16.2636   23.6310 C.ar    1  UNL1        0.0076
      4 C         -11.1853  -16.8704   22.2806 C.ar    1  UNL1        0.0870
      5 C         -10.0259  -17.3257   21.4450 C.ar    1  UNL1        0.1427
      6 C          -8.6251  -17.1742   21.9597 C.ar    1  UNL1        0.0371
      7 C          -4.4174  -16.5536   23.4401 C.ar    1  UNL1        0.0219
      8 C          -4.1816  -16.1128   24.8543 C.ar    1  UNL1        0.0989
      9 N          -5.3466  -15.8236   25.7538 N.ar    1  UNL1       -0.2423
     10 C          -6.7473  -15.9751   25.2391 C.ar    1  UNL1        0.0988
     11 C          -6.9831  -16.4159   23.8248 C.ar    1  UNL1        0.0193
     12 C          -5.8181  -16.7051   22.9254 C.ar    1  UNL1        0.0032
     13 C          -3.6298  -19.4669   22.1983 C.3     1  UNL1        0.0518
     14 C          -2.8904  -18.1820   21.9697 C.ar    1  UNL1        0.0576
     15 C          -3.2524  -16.8429   22.5405 C.ar    1  UNL1        0.0356
     16 C          -2.2449  -15.8439   22.0538 C.ar    1  UNL1        0.1213
     17 N          -1.2602  -16.5655   21.1823 N.ar    1  UNL1       -0.1679
     18 N          -1.6592  -18.0106   21.1303 N.ar    1  UNL1       -0.2528
     19 C          -0.9512  -19.0940   20.3720 C.3     1  UNL1        0.1533
     20 C         -12.5861  -17.0219   21.7659 C.2     1  UNL1        0.2457
     21 N         -13.5854  -17.8314   22.5379 N.am    1  UNL1       -0.3252
     22 O         -12.9875  -16.3639   20.4791 O.2     1  UNL1       -0.2703
     23 H         -13.3219  -18.2633   23.3825 H       1  UNL1        0.1453
     24 H         -14.5047  -17.9309   22.2000 H       1  UNL1        0.1453
     25 O         -10.2671  -17.9325   20.0945 O.3     1  UNL1       -0.4790
     26 C         -10.2505  -19.4231   19.9283 C.3     1  UNL1        0.1661
     27 C         -11.0196  -20.2924   20.8786 C.3     1  UNL1        0.0472
     28 C          -9.4649  -20.0446   18.8118 C.3     1  UNL1        0.0472
@<TRIPOS>BOND
     1    13    14    1
     2    14    15   ar
     3    15     7    1
     4     7     8   ar
     5     8     9   ar
     6     9    10   ar
     7    10    11   ar
     8    11     1    1
     9     1     2   ar
    10     2     3   ar
    11     3     4   ar
    12     4    20    1
    13    20    21   am
    14    20    22    2
    15     4     5   ar
    16     5    25    1
    17    25    26    1
    18    26    27    1
    19    26    28    1
    20     5     6   ar
    21    11    12   ar
    22    15    16   ar
    23    16    17   ar
    24    17    18   ar
    25    18    19    1
    26    18    14   ar
    27    12     7   ar
    28     6     1   ar
    29    21    23    1
    30    21    24    1
@<TRIPOS>MOLECULE
*****
 28 30 0 0 0
SMALL
GASTEIGER

@<TRIPOS>ATOM
      1 C           4.3773   -2.1047   22.4794 C.ar    1  UNL1        0.0045
      2 C           3.6889   -1.2489   23.5009 C.ar    1  UNL1        0.0004
      3 C           2.5903   -0.3176   23.0815 C.ar    1  UNL1        0.0076
      4 C           2.1803   -0.2421   21.6407 C.ar    1  UNL1        0.0870
      5 C           2.8687   -1.0979   20.6192 C.ar    1  UNL1        0.1427
      6 C           3.9673   -2.0293   21.0385 C.ar    1  UNL1        0.0371
      7 C           6.9219   -4.1117   24.7701 C.ar    1  UNL1        0.0219
      8 C           7.6729   -4.8987   23.7374 C.ar    1  UNL1        0.0989
      9 N           7.3254   -4.7544   22.2854 N.ar    1  UNL1       -0.2423
     10 C           6.2269   -3.8231   21.8661 C.ar    1  UNL1        0.0988
     11 C           5.4759   -3.0361   22.8987 C.ar    1  UNL1        0.0193
     12 C           5.8233   -3.1803   24.3507 C.ar    1  UNL1        0.0032
     13 C           6.9126   -6.8927   26.4776 C.3     1  UNL1        0.0518
     14 C           7.2651   -5.5342   27.0070 C.ar    1  UNL1        0.0576
     15 C           7.2693   -4.2559   26.2222 C.ar    1  UNL1        0.0356
     16 C           7.6821   -3.1472   27.1444 C.ar    1  UNL1        0.1213
     17 N           7.9329   -3.7403   28.4991 N.ar    1  UNL1       -0.1679
     18 N           7.6752   -5.2156   28.4142 N.ar    1  UNL1       -0.2528
     19 C           7.8048   -6.1995   29.5390 C.3     1  UNL1        0.1533
     20 C           1.0817    0.6892   21.2213 C.2     1  UNL1        0.2457
     21 N          -0.1184    0.1555   20.4969 N.am    1  UNL1       -0.3252
     22 O           1.1833    2.1544   21.5263 O.2     1  UNL1       -0.2703
     23 H          -0.1851   -0.8062   20.2967 H       1  UNL1        0.1453
     24 H          -0.8394    0.7667   20.2217 H       1  UNL1        0.1453
     25 O           2.4587   -1.0225   19.1782 O.3     1  UNL1       -0.4790
     26 C           3.2740   -0.2208   18.2074 C.3     1  UNL1        0.1661
     27 C           3.6017    1.2120   18.5069 C.3     1  UNL1        0.0472
     28 C           3.7618   -0.8519   16.9371 C.3     1  UNL1        0.0472
@<TRIPOS>BOND
     1    13    14    1
     2    14    15   ar
     3    15     7    1
     4     7     8   ar
     5     8     9   ar
     6     9    10   ar
     7    10    11   ar
     8    11     1    1
     9     1     2   ar
    10     2     3   ar
    11     3     4   ar
    12     4    20    1
    13    20    21   am
    14    20    22    2
    15     4     5   ar
    16     5    25    1
    17    25    26    1
    18    26    27    1
    19    26    28    1
    20     5     6   ar
    21    11    12   ar
    22    15    16   ar
    23    16    17   ar
    24    17    18   ar
    25    18    19    1
    26    18    14   ar
    27    12     7   ar
    28     6     1   ar
    29    21    23    1
    30    21    24    1
