@<TRIPOS>MOLECULE
*****
 38 41 0 0 0
SMALL
GASTEIGER

@<TRIPOS>ATOM
      1 C           6.5809   -3.4898   20.1069 C.ar    1  UNL1        0.2335
      2 C           7.4534   -2.2968   19.8505 C.ar    1  UNL1        0.0788
      3 C           8.8993   -2.3257   20.2487 C.ar    1  UNL1        0.1067
      4 N           9.4727   -3.5475   20.9031 N.ar    1  UNL1       -0.2118
      5 C           8.6003   -4.7404   21.1595 C.ar    1  UNL1        0.2232
      6 N           7.1544   -4.7116   20.7613 N.ar    1  UNL1       -0.1783
      7 N           9.1738   -5.9623   21.8139 N.pl3   1  UNL1       -0.2825
      8 H           9.7895   -6.5455   21.3140 H       1  UNL1        0.1551
      9 C           8.8090   -6.2956   23.2302 C.ar    1  UNL1        0.0504
     10 C           7.9590   -5.3514   24.0279 C.ar    1  UNL1        0.0144
     11 C           7.5943   -5.6847   25.4441 C.ar    1  UNL1       -0.0016
     12 C           8.0795   -6.9622   26.0628 C.ar    1  UNL1       -0.0061
     13 C           8.9294   -7.9063   25.2652 C.ar    1  UNL1       -0.0016
     14 C           9.2942   -7.5730   23.8489 C.ar    1  UNL1        0.0144
     15 C           7.7147   -7.2955   27.4791 C.3     1  UNL1        0.0992
     16 N           7.8458   -6.2553   28.5520 N.3     1  UNL1       -0.2664
     17 C           6.6625   -5.4148   28.9303 C.3     1  UNL1        0.0917
     18 C           6.7936   -4.3747   30.0032 C.3     1  UNL1        0.1128
     19 N           8.1081   -4.1751   30.6977 N.3     1  UNL1       -0.1565
     20 C           9.2915   -5.0157   30.3192 C.3     1  UNL1        0.1128
     21 C           9.1604   -6.0558   29.2464 C.3     1  UNL1        0.0917
     22 S           8.2393   -3.1351   31.7705 S.O2    1  UNL1        0.0457
     23 C           8.3705   -2.0950   32.8433 C.3     1  UNL1        0.1960
     24 O           9.5324   -2.6744   31.1658 O.2     1  UNL1       -0.1572
     25 O           6.9462   -3.5957   32.3752 O.2     1  UNL1       -0.1572
     26 O           5.1350   -3.4610   19.7087 O.3     1  UNL1       -0.4366
     27 C           4.2739   -1.5465   17.5656 C.3     1  UNL1        0.0342
     28 C           3.8536   -1.3191   18.9874 C.ar    1  UNL1        0.0124
     29 C           3.0028   -0.1345   19.3377 C.ar    1  UNL1       -0.0012
     30 C           2.5825    0.0929   20.7595 C.ar    1  UNL1        0.0003
     31 C           3.0130   -0.8643   21.8311 C.ar    1  UNL1       -0.0012
     32 C           3.8638   -2.0489   21.4808 C.ar    1  UNL1        0.0124
     33 C           4.2944   -3.0062   22.5524 C.3     1  UNL1        0.0342
     34 C           4.2841   -2.2763   20.0590 C.ar    1  UNL1        0.1391
     35 C           1.7316    1.2776   21.1098 C.2     1  UNL1        0.0109
     36 C           0.2489    1.2277   20.8886 C.2     1  UNL1        0.0780
     37 C          -0.6020    2.4123   21.2388 C.1     1  UNL1        0.1011
     38 N          -1.4529    3.5969   21.5891 N.1     1  UNL1       -0.1908
@<TRIPOS>BOND
     1    27    28    1
     2    28    29   ar
     3    29    30   ar
     4    30    35    1
     5    35    36    2
     6    36    37    1
     7    37    38    3
     8    30    31   ar
     9    31    32   ar
    10    32    33    1
    11    32    34   ar
    12    34    26    1
    13    26     1    1
    14     1     2   ar
    15     2     3   ar
    16     3     4   ar
    17     4     5   ar
    18     5     7    1
    19     7     9    1
    20     9    10   ar
    21    10    11   ar
    22    11    12   ar
    23    12    15    1
    24    15    16    1
    25    16    17    1
    26    17    18    1
    27    18    19    1
    28    19    22    1
    29    22    23    1
    30    22    24    2
    31    22    25    2
    32    19    20    1
    33    20    21    1
    34    12    13   ar
    35    13    14   ar
    36     5     6   ar
    37    34    28   ar
    38     6     1   ar
    39    14     9   ar
    40    21    16    1
    41     7     8    1
@<TRIPOS>MOLECULE
*****
 38 41 0 0 0
SMALL
GASTEIGER

@<TRIPOS>ATOM
      1 C           7.3465   -3.6078   28.1662 C.ar    1  UNL1        0.2335
      2 C           7.6469   -4.9690   27.6119 C.ar    1  UNL1        0.0788
      3 C           7.5722   -6.1742   28.5017 C.ar    1  UNL1        0.1067
      4 N           7.1971   -6.0184   29.9457 N.ar    1  UNL1       -0.2118
      5 C           6.8967   -4.6573   30.4999 C.ar    1  UNL1        0.2232
      6 N           6.9714   -3.4520   29.6101 N.ar    1  UNL1       -0.1783
      7 N           6.5215   -4.5014   31.9439 N.pl3   1  UNL1       -0.2825
      8 H           6.3756   -5.2982   32.5033 H       1  UNL1        0.1551
      9 C           6.3687   -3.1314   32.5354 C.ar    1  UNL1        0.0504
     10 C           7.5767   -2.2685   32.7508 C.ar    1  UNL1        0.0144
     11 C           7.4239   -0.8985   33.3423 C.ar    1  UNL1       -0.0016
     12 C           6.0631   -0.3915   33.7184 C.ar    1  UNL1       -0.0061
     13 C           4.8553   -1.2544   33.5030 C.ar    1  UNL1       -0.0016
     14 C           5.0081   -2.6244   32.9115 C.ar    1  UNL1        0.0144
     15 C           5.9103    0.9784   34.3099 C.3     1  UNL1        0.0992
     16 N           4.9046    1.2182   35.3967 N.3     1  UNL1       -0.2664
     17 C           3.7266    2.1119   35.1446 C.3     1  UNL1        0.0917
     18 C           2.7209    2.3517   36.2314 C.3     1  UNL1        0.1128
     19 N           2.8932    1.6977   37.5703 N.3     1  UNL1       -0.1565
     20 C           4.0713    0.8040   37.8224 C.3     1  UNL1        0.1128
     21 C           5.0770    0.5642   36.7356 C.3     1  UNL1        0.0917
     22 S           1.8876    1.9374   38.6571 S.O2    1  UNL1        0.0457
     23 C           0.8820    2.1771   39.7439 C.3     1  UNL1        0.1960
     24 O           2.5430    0.8811   39.4965 O.2     1  UNL1       -0.1572
     25 O           1.2322    2.9937   37.8177 O.2     1  UNL1       -0.1572
     26 O           7.4212   -2.4025   27.2764 O.3     1  UNL1       -0.4366
     27 C           8.4380   -3.1862   24.5649 C.3     1  UNL1        0.0342
     28 C           7.0317   -2.6890   24.7236 C.ar    1  UNL1        0.0124
     29 C           6.1339   -2.5837   23.5267 C.ar    1  UNL1       -0.0012
     30 C           4.7276   -2.0865   23.6855 C.ar    1  UNL1        0.0003
     31 C           4.2192   -1.6947   25.0412 C.ar    1  UNL1       -0.0012
     32 C           5.1170   -1.8000   26.2381 C.ar    1  UNL1        0.0124
     33 C           4.6086   -1.4082   27.5939 C.3     1  UNL1        0.0342
     34 C           6.5233   -2.2972   26.0793 C.ar    1  UNL1        0.1391
     35 C           3.8297   -1.9811   22.4885 C.2     1  UNL1        0.0109
     36 C           3.0035   -0.7472   22.2770 C.2     1  UNL1        0.0780
     37 C           2.1056   -0.6418   21.0800 C.1     1  UNL1        0.1011
     38 N           1.2077   -0.5364   19.8830 N.1     1  UNL1       -0.1908
@<TRIPOS>BOND
     1    27    28    1
     2    28    29   ar
     3    29    30   ar
     4    30    35    1
     5    35    36    2
     6    36    37    1
     7    37    38    3
     8    30    31   ar
     9    31    32   ar
    10    32    33    1
    11    32    34   ar
    12    34    26    1
    13    26     1    1
    14     1     2   ar
    15     2     3   ar
    16     3     4   ar
    17     4     5   ar
    18     5     7    1
    19     7     9    1
    20     9    10   ar
    21    10    11   ar
    22    11    12   ar
    23    12    15    1
    24    15    16    1
    25    16    17    1
    26    17    18    1
    27    18    19    1
    28    19    22    1
    29    22    23    1
    30    22    24    2
    31    22    25    2
    32    19    20    1
    33    20    21    1
    34    12    13   ar
    35    13    14   ar
    36     5     6   ar
    37    34    28   ar
    38     6     1   ar
    39    14     9   ar
    40    21    16    1
    41     7     8    1
@<TRIPOS>MOLECULE
*****
 38 41 0 0 0
SMALL
GASTEIGER

@<TRIPOS>ATOM
      1 C           7.2385   -3.4682   28.3874 C.ar    1  UNL1        0.2335
      2 C           7.5424   -4.8259   27.8266 C.ar    1  UNL1        0.0788
      3 C           7.4482   -6.0383   28.7048 C.ar    1  UNL1        0.1067
      4 N           7.0501   -5.8930   30.1438 N.ar    1  UNL1       -0.2118
      5 C           6.7461   -4.5354   30.7044 C.ar    1  UNL1        0.2232
      6 N           6.8403   -3.3230   29.8262 N.ar    1  UNL1       -0.1783
      7 N           6.3480   -4.3900   32.1434 N.pl3   1  UNL1       -0.2825
      8 H           6.1850   -5.1909   32.6923 H       1  UNL1        0.1551
      9 C           6.1982   -3.0246   32.7459 C.ar    1  UNL1        0.0504
     10 C           4.8567   -2.5628   33.2330 C.ar    1  UNL1        0.0144
     11 C           4.7069   -1.1973   33.8355 C.ar    1  UNL1       -0.0016
     12 C           5.8986   -0.2936   33.9508 C.ar    1  UNL1       -0.0061
     13 C           7.2400   -0.7554   33.4637 C.ar    1  UNL1       -0.0016
     14 C           7.3898   -2.1209   32.8612 C.ar    1  UNL1        0.0144
     15 C           5.7488    1.0719   34.5533 C.3     1  UNL1        0.0992
     16 N           4.7267    1.3109   35.6249 N.3     1  UNL1       -0.2664
     17 C           4.9008    0.6901   36.9793 C.3     1  UNL1        0.0917
     18 C           3.8787    0.9290   38.0509 C.3     1  UNL1        0.1128
     19 N           2.6825    1.7887   37.7680 N.3     1  UNL1       -0.1565
     20 C           2.5084    2.4095   36.4136 C.3     1  UNL1        0.1128
     21 C           3.5305    2.1706   35.3421 C.3     1  UNL1        0.0917
     22 S           1.6604    2.0277   38.8395 S.O2    1  UNL1        0.0457
     23 C           0.6383    2.2666   39.9110 C.3     1  UNL1        0.1960
     24 O           1.1036    3.1766   38.0522 O.2     1  UNL1       -0.1572
     25 O           2.2172    0.8788   39.6269 O.2     1  UNL1       -0.1572
     26 O           7.3326   -2.2558   27.5092 O.3     1  UNL1       -0.4366
     27 C           4.8317   -0.8280   28.3498 C.3     1  UNL1        0.0342
     28 C           5.0059   -1.2590   26.9236 C.ar    1  UNL1        0.0124
     29 C           3.9298   -0.9761   25.9178 C.ar    1  UNL1       -0.0012
     30 C           4.1040   -1.4071   24.4916 C.ar    1  UNL1        0.0003
     31 C           5.3545   -2.1210   24.0713 C.ar    1  UNL1       -0.0012
     32 C           6.4307   -2.4039   25.0772 C.ar    1  UNL1        0.0124
     33 C           7.6812   -3.1178   24.6569 C.3     1  UNL1        0.0342
     34 C           6.2564   -1.9729   26.5033 C.ar    1  UNL1        0.1391
     35 C           3.0278   -1.1242   23.4858 C.2     1  UNL1        0.0109
     36 C           3.3488   -1.1358   22.0206 C.2     1  UNL1        0.0780
     37 C           2.2726   -0.8529   21.0147 C.1     1  UNL1        0.1011
     38 N           1.1964   -0.5700   20.0088 N.1     1  UNL1       -0.1908
@<TRIPOS>BOND
     1    27    28    1
     2    28    29   ar
     3    29    30   ar
     4    30    35    1
     5    35    36    2
     6    36    37    1
     7    37    38    3
     8    30    31   ar
     9    31    32   ar
    10    32    33    1
    11    32    34   ar
    12    34    26    1
    13    26     1    1
    14     1     2   ar
    15     2     3   ar
    16     3     4   ar
    17     4     5   ar
    18     5     7    1
    19     7     9    1
    20     9    10   ar
    21    10    11   ar
    22    11    12   ar
    23    12    15    1
    24    15    16    1
    25    16    17    1
    26    17    18    1
    27    18    19    1
    28    19    22    1
    29    22    23    1
    30    22    24    2
    31    22    25    2
    32    19    20    1
    33    20    21    1
    34    12    13   ar
    35    13    14   ar
    36     5     6   ar
    37    34    28   ar
    38     6     1   ar
    39    14     9   ar
    40    21    16    1
    41     7     8    1
@<TRIPOS>MOLECULE
*****
 38 41 0 0 0
SMALL
GASTEIGER

@<TRIPOS>ATOM
      1 C           6.4793   -4.1437   22.2345 C.ar    1  UNL1        0.2335
      2 C           7.3310   -3.1260   21.5353 C.ar    1  UNL1        0.0788
      3 C           8.7879   -3.0082   21.8725 C.ar    1  UNL1        0.1067
      4 N           9.3930   -3.9082   22.9088 N.ar    1  UNL1       -0.2118
      5 C           8.5413   -4.9259   23.6080 C.ar    1  UNL1        0.2232
      6 N           7.0844   -5.0436   23.2708 N.ar    1  UNL1       -0.1783
      7 N           9.1464   -5.8259   24.6443 N.pl3   1  UNL1       -0.2825
      8 H           9.7530   -6.5519   24.3721 H       1  UNL1        0.1551
      9 C           8.8271   -5.6197   26.0954 C.ar    1  UNL1        0.0504
     10 C           7.8008   -6.4828   26.7675 C.ar    1  UNL1        0.0144
     11 C           7.4816   -6.2765   28.2186 C.ar    1  UNL1       -0.0016
     12 C           8.1886   -5.2072   28.9975 C.ar    1  UNL1       -0.0061
     13 C           9.2149   -4.3441   28.3253 C.ar    1  UNL1       -0.0016
     14 C           9.5342   -4.5504   26.8742 C.ar    1  UNL1        0.0144
     15 C           7.8694   -5.0009   30.4485 C.3     1  UNL1        0.0992
     16 N           6.9458   -3.8941   30.8633 N.3     1  UNL1       -0.2664
     17 C           6.5082   -2.8673   29.8612 C.3     1  UNL1        0.0917
     18 C           5.5846   -1.7604   30.2760 C.3     1  UNL1        0.1128
     19 N           5.0988   -1.6804   31.6929 N.3     1  UNL1       -0.1565
     20 C           5.5365   -2.7073   32.6950 C.3     1  UNL1        0.1128
     21 C           6.4600   -3.8141   32.2802 C.3     1  UNL1        0.0917
     22 S           4.1753   -0.5736   32.1077 S.O2    1  UNL1        0.0457
     23 C           3.2517    0.5331   32.5225 C.3     1  UNL1        0.1960
     24 O           3.6711   -1.4186   33.2399 O.2     1  UNL1       -0.1572
     25 O           4.6794    0.2713   30.9756 O.2     1  UNL1       -0.1572
     26 O           5.0224   -4.2615   21.8974 O.3     1  UNL1       -0.4366
     27 C           3.9783   -1.8146   23.2840 C.3     1  UNL1        0.0342
     28 C           3.8242   -1.9583   21.7989 C.ar    1  UNL1        0.0124
     29 C           3.1480   -0.8786   21.0071 C.ar    1  UNL1       -0.0012
     30 C           2.9938   -1.0223   19.5220 C.ar    1  UNL1        0.0003
     31 C           3.5159   -2.2457   18.8286 C.ar    1  UNL1       -0.0012
     32 C           4.1920   -3.3254   19.6204 C.ar    1  UNL1        0.0124
     33 C           4.7141   -4.5489   18.9271 C.3     1  UNL1        0.0342
     34 C           4.3462   -3.1817   21.1056 C.ar    1  UNL1        0.1391
     35 C           2.3176    0.0575   18.7302 C.2     1  UNL1        0.0109
     36 C           1.2212    0.8697   19.3533 C.2     1  UNL1        0.0780
     37 C           0.5450    1.9494   18.5616 C.1     1  UNL1        0.1011
     38 N          -0.1313    3.0292   17.7698 N.1     1  UNL1       -0.1908
@<TRIPOS>BOND
     1    27    28    1
     2    28    29   ar
     3    29    30   ar
     4    30    35    1
     5    35    36    2
     6    36    37    1
     7    37    38    3
     8    30    31   ar
     9    31    32   ar
    10    32    33    1
    11    32    34   ar
    12    34    26    1
    13    26     1    1
    14     1     2   ar
    15     2     3   ar
    16     3     4   ar
    17     4     5   ar
    18     5     7    1
    19     7     9    1
    20     9    10   ar
    21    10    11   ar
    22    11    12   ar
    23    12    15    1
    24    15    16    1
    25    16    17    1
    26    17    18    1
    27    18    19    1
    28    19    22    1
    29    22    23    1
    30    22    24    2
    31    22    25    2
    32    19    20    1
    33    20    21    1
    34    12    13   ar
    35    13    14   ar
    36     5     6   ar
    37    34    28   ar
    38     6     1   ar
    39    14     9   ar
    40    21    16    1
    41     7     8    1
@<TRIPOS>MOLECULE
*****
 38 41 0 0 0
SMALL
GASTEIGER

@<TRIPOS>ATOM
      1 C           5.8473   -2.6802   20.5232 C.ar    1  UNL1        0.2335
      2 C           5.0380   -3.9412   20.4526 C.ar    1  UNL1        0.0788
      3 C           3.9205   -4.0606   19.4591 C.ar    1  UNL1        0.1067
      4 N           3.6123   -2.9189   18.5363 N.ar    1  UNL1       -0.2118
      5 C           4.4216   -1.6579   18.6069 C.ar    1  UNL1        0.2232
      6 N           5.5390   -1.5386   19.6003 N.ar    1  UNL1       -0.1783
      7 N           4.1133   -0.5162   17.6840 N.pl3   1  UNL1       -0.2825
      8 H           4.4741   -0.5125   16.7680 H       1  UNL1        0.1551
      9 C           3.2555    0.6198   18.1569 C.ar    1  UNL1        0.0504
     10 C           1.7854    0.4113   18.3701 C.ar    1  UNL1        0.0144
     11 C           0.9276    1.5473   18.8429 C.ar    1  UNL1       -0.0016
     12 C           1.5399    2.8919   19.1026 C.ar    1  UNL1       -0.0061
     13 C           3.0099    3.1003   18.8894 C.ar    1  UNL1       -0.0016
     14 C           3.8677    1.9643   18.4165 C.ar    1  UNL1        0.0144
     15 C           0.6821    4.0279   19.5755 C.3     1  UNL1        0.0992
     16 N          -0.8094    3.9504   19.4351 N.3     1  UNL1       -0.2664
     17 C          -1.6364    3.3554   20.5361 C.3     1  UNL1        0.0917
     18 C          -3.1278    3.2779   20.3958 C.3     1  UNL1        0.1128
     19 N          -3.7922    3.7954   19.1545 N.3     1  UNL1       -0.1565
     20 C          -2.9652    4.3903   18.0535 C.3     1  UNL1        0.1128
     21 C          -1.4738    4.4678   18.1938 C.3     1  UNL1        0.0917
     22 S          -5.2836    3.7179   19.0142 S.O2    1  UNL1        0.0457
     23 C          -6.7750    3.6404   18.8738 C.3     1  UNL1        0.1960
     24 O          -5.1247    3.1770   17.6241 O.2     1  UNL1       -0.1572
     25 O          -5.4425    4.2587   20.4042 O.2     1  UNL1       -0.1572
     26 O           6.9648   -2.5608   21.5166 O.3     1  UNL1       -0.4366
     27 C           9.0524   -4.5206   20.6217 C.3     1  UNL1        0.0342
     28 C           8.3645   -4.7080   21.9414 C.ar    1  UNL1        0.0124
     29 C           8.7204   -5.8752   22.8137 C.ar    1  UNL1       -0.0012
     30 C           8.0325   -6.0626   24.1334 C.ar    1  UNL1        0.0003
     31 C           6.9887   -5.0827   24.5809 C.ar    1  UNL1       -0.0012
     32 C           6.6328   -3.9155   23.7086 C.ar    1  UNL1        0.0124
     33 C           5.5890   -2.9355   24.1561 C.3     1  UNL1        0.0342
     34 C           7.3207   -3.7281   22.3889 C.ar    1  UNL1        0.1391
     35 C           8.3885   -7.2299   25.0057 C.2     1  UNL1        0.0109
     36 C           7.4512   -7.6677   26.0919 C.2     1  UNL1        0.0780
     37 C           7.8071   -8.8350   26.9641 C.1     1  UNL1        0.1011
     38 N           8.1630  -10.0023   27.8364 N.1     1  UNL1       -0.1908
@<TRIPOS>BOND
     1    27    28    1
     2    28    29   ar
     3    29    30   ar
     4    30    35    1
     5    35    36    2
     6    36    37    1
     7    37    38    3
     8    30    31   ar
     9    31    32   ar
    10    32    33    1
    11    32    34   ar
    12    34    26    1
    13    26     1    1
    14     1     2   ar
    15     2     3   ar
    16     3     4   ar
    17     4     5   ar
    18     5     7    1
    19     7     9    1
    20     9    10   ar
    21    10    11   ar
    22    11    12   ar
    23    12    15    1
    24    15    16    1
    25    16    17    1
    26    17    18    1
    27    18    19    1
    28    19    22    1
    29    22    23    1
    30    22    24    2
    31    22    25    2
    32    19    20    1
    33    20    21    1
    34    12    13   ar
    35    13    14   ar
    36     5     6   ar
    37    34    28   ar
    38     6     1   ar
    39    14     9   ar
    40    21    16    1
    41     7     8    1
@<TRIPOS>MOLECULE
*****
 38 41 0 0 0
SMALL
GASTEIGER

@<TRIPOS>ATOM
      1 C           2.1187    0.0836   30.6866 C.ar    1  UNL1        0.2335
      2 C           1.6660    1.4625   31.0659 C.ar    1  UNL1        0.0788
      3 C           2.1381    2.0806   32.3485 C.ar    1  UNL1        0.1067
      4 N           3.0631    1.3198   33.2518 N.ar    1  UNL1       -0.2118
      5 C           3.5158   -0.0590   32.8724 C.ar    1  UNL1        0.2232
      6 N           3.0436   -0.6771   31.5898 N.ar    1  UNL1       -0.1783
      7 N           4.4407   -0.8198   33.7757 N.pl3   1  UNL1       -0.2825
      8 H           4.3152   -0.7844   34.7515 H       1  UNL1        0.1551
      9 C           5.5569   -1.6344   33.1921 C.ar    1  UNL1        0.0504
     10 C           6.9222   -1.0329   33.0362 C.ar    1  UNL1        0.0144
     11 C           8.0384   -1.8475   32.4526 C.ar    1  UNL1       -0.0016
     12 C           7.7893   -3.2636   32.0250 C.ar    1  UNL1       -0.0061
     13 C           6.4240   -3.8649   32.1809 C.ar    1  UNL1       -0.0016
     14 C           5.3078   -3.0503   32.7645 C.ar    1  UNL1        0.0144
     15 C           8.9054   -4.0782   31.4414 C.3     1  UNL1        0.0992
     16 N           8.7355   -4.7329   30.1025 N.3     1  UNL1       -0.2664
     17 C           8.6860   -6.2285   29.9999 C.3     1  UNL1        0.0917
     18 C           8.5160   -6.8833   28.6611 C.3     1  UNL1        0.1128
     19 N           8.3956   -6.0423   27.4248 N.3     1  UNL1       -0.1565
     20 C           8.4452   -4.5466   27.5275 C.3     1  UNL1        0.1128
     21 C           8.6151   -3.8919   28.8663 C.3     1  UNL1        0.0917
     22 S           8.2257   -6.6970   26.0860 S.O2    1  UNL1        0.0457
     23 C           8.0557   -7.3516   24.7472 C.3     1  UNL1        0.1960
     24 O           6.9159   -7.2742   26.5345 O.2     1  UNL1       -0.1572
     25 O           9.5355   -6.1197   25.6375 O.2     1  UNL1       -0.1572
     26 O           1.6466   -0.5345   29.4040 O.3     1  UNL1       -0.4366
     27 C           3.5358    0.8615   27.5380 C.3     1  UNL1        0.0342
     28 C           2.0549    1.0327   27.3724 C.ar    1  UNL1        0.0124
     29 C           1.5185    1.9019   26.2739 C.ar    1  UNL1       -0.0012
     30 C           0.0375    2.0732   26.1084 C.ar    1  UNL1        0.0003
     31 C          -0.9071    1.3752   27.0414 C.ar    1  UNL1       -0.0012
     32 C          -0.3707    0.5060   28.1399 C.ar    1  UNL1        0.0124
     33 C          -1.3154   -0.1920   29.0729 C.3     1  UNL1        0.0342
     34 C           1.1102    0.3348   28.3054 C.ar    1  UNL1        0.1391
     35 C          -0.4988    2.9424   25.0098 C.2     1  UNL1        0.0109
     36 C          -1.9663    3.2453   24.9418 C.2     1  UNL1        0.0780
     37 C          -2.5027    4.1145   23.8433 C.1     1  UNL1        0.1011
     38 N          -3.0390    4.9837   22.7447 N.1     1  UNL1       -0.1908
@<TRIPOS>BOND
     1    27    28    1
     2    28    29   ar
     3    29    30   ar
     4    30    35    1
     5    35    36    2
     6    36    37    1
     7    37    38    3
     8    30    31   ar
     9    31    32   ar
    10    32    33    1
    11    32    34   ar
    12    34    26    1
    13    26     1    1
    14     1     2   ar
    15     2     3   ar
    16     3     4   ar
    17     4     5   ar
    18     5     7    1
    19     7     9    1
    20     9    10   ar
    21    10    11   ar
    22    11    12   ar
    23    12    15    1
    24    15    16    1
    25    16    17    1
    26    17    18    1
    27    18    19    1
    28    19    22    1
    29    22    23    1
    30    22    24    2
    31    22    25    2
    32    19    20    1
    33    20    21    1
    34    12    13   ar
    35    13    14   ar
    36     5     6   ar
    37    34    28   ar
    38     6     1   ar
    39    14     9   ar
    40    21    16    1
    41     7     8    1
@<TRIPOS>MOLECULE
*****
 38 41 0 0 0
SMALL
GASTEIGER

@<TRIPOS>ATOM
      1 C           6.9102   -3.1957   28.1202 C.ar    1  UNL1        0.2335
      2 C           7.1253   -4.5410   27.4925 C.ar    1  UNL1        0.0788
      3 C           7.0993   -5.7774   28.3413 C.ar    1  UNL1        0.1067
      4 N           6.8582   -5.6686   29.8178 N.ar    1  UNL1       -0.2118
      5 C           6.6431   -4.3234   30.4455 C.ar    1  UNL1        0.2232
      6 N           6.6691   -3.0869   29.5967 N.ar    1  UNL1       -0.1783
      7 N           6.4020   -4.2146   31.9220 N.pl3   1  UNL1       -0.2825
      8 H           6.3516   -5.0283   32.4739 H       1  UNL1        0.1551
      9 C           6.2376   -2.8659   32.5577 C.ar    1  UNL1        0.0504
     10 C           7.4409   -2.0107   32.8241 C.ar    1  UNL1        0.0144
     11 C           7.2765   -0.6620   33.4598 C.ar    1  UNL1       -0.0016
     12 C           5.9089   -0.1686   33.8291 C.ar    1  UNL1       -0.0061
     13 C           4.7058   -1.0238   33.5627 C.ar    1  UNL1       -0.0016
     14 C           4.8702   -2.3724   32.9270 C.ar    1  UNL1        0.0144
     15 C           5.7446    1.1801   34.4647 C.3     1  UNL1        0.0992
     16 N           4.7341    1.3769   35.5558 N.3     1  UNL1       -0.2664
     17 C           3.5846    2.3188   35.3524 C.3     1  UNL1        0.0917
     18 C           2.5741    2.5156   36.4434 C.3     1  UNL1        0.1128
     19 N           2.7132    1.7704   37.7378 N.3     1  UNL1       -0.1565
     20 C           3.8628    0.8284   37.9411 C.3     1  UNL1        0.1128
     21 C           4.8732    0.6317   36.8501 C.3     1  UNL1        0.0917
     22 S           1.7028    1.9671   38.8288 S.O2    1  UNL1        0.0457
     23 C           0.6924    2.1638   39.9198 C.3     1  UNL1        0.1960
     24 O           1.0882    3.0963   38.0560 O.2     1  UNL1       -0.1572
     25 O           2.3173    0.8379   39.6016 O.2     1  UNL1       -0.1572
     26 O           6.9362   -1.9592   27.2714 O.3     1  UNL1       -0.4366
     27 C           6.0813    0.1098   29.2686 C.3     1  UNL1        0.0342
     28 C           5.2489   -0.1419   28.0464 C.ar    1  UNL1        0.0124
     29 C           3.9890    0.6409   27.8228 C.ar    1  UNL1       -0.0012
     30 C           3.1566    0.3892   26.6006 C.ar    1  UNL1        0.0003
     31 C           3.5840   -0.6453   25.6021 C.ar    1  UNL1       -0.0012
     32 C           4.8438   -1.4281   25.8257 C.ar    1  UNL1        0.0124
     33 C           5.2713   -2.4626   24.8271 C.3     1  UNL1        0.0342
     34 C           5.6763   -1.1764   27.0478 C.ar    1  UNL1        0.1391
     35 C           1.8967    1.1720   26.3771 C.2     1  UNL1        0.0109
     36 C           0.7670    1.0712   27.3586 C.2     1  UNL1        0.0780
     37 C          -0.4929    1.8540   27.1351 C.1     1  UNL1        0.1011
     38 N          -1.7528    2.6368   26.9116 N.1     1  UNL1       -0.1908
@<TRIPOS>BOND
     1    27    28    1
     2    28    29   ar
     3    29    30   ar
     4    30    35    1
     5    35    36    2
     6    36    37    1
     7    37    38    3
     8    30    31   ar
     9    31    32   ar
    10    32    33    1
    11    32    34   ar
    12    34    26    1
    13    26     1    1
    14     1     2   ar
    15     2     3   ar
    16     3     4   ar
    17     4     5   ar
    18     5     7    1
    19     7     9    1
    20     9    10   ar
    21    10    11   ar
    22    11    12   ar
    23    12    15    1
    24    15    16    1
    25    16    17    1
    26    17    18    1
    27    18    19    1
    28    19    22    1
    29    22    23    1
    30    22    24    2
    31    22    25    2
    32    19    20    1
    33    20    21    1
    34    12    13   ar
    35    13    14   ar
    36     5     6   ar
    37    34    28   ar
    38     6     1   ar
    39    14     9   ar
    40    21    16    1
    41     7     8    1
@<TRIPOS>MOLECULE
*****
 38 41 0 0 0
SMALL
GASTEIGER

@<TRIPOS>ATOM
      1 C           8.6091   -4.3052   28.2531 C.ar    1  UNL1        0.2335
      2 C           8.5530   -5.8030   28.1914 C.ar    1  UNL1        0.0788
      3 C           8.3253   -6.5972   29.4433 C.ar    1  UNL1        0.1067
      4 N           8.1535   -5.8938   30.7570 N.ar    1  UNL1       -0.2118
      5 C           8.2095   -4.3961   30.8187 C.ar    1  UNL1        0.2232
      6 N           8.4373   -3.6019   29.5668 N.ar    1  UNL1       -0.1783
      7 N           8.0378   -3.6926   32.1324 N.pl3   1  UNL1       -0.2825
      8 H           8.6735   -3.8575   32.8659 H       1  UNL1        0.1551
      9 C           6.8975   -2.7380   32.3285 C.ar    1  UNL1        0.0504
     10 C           5.5709   -3.2437   32.8127 C.ar    1  UNL1        0.0144
     11 C           4.4306   -2.2891   33.0088 C.ar    1  UNL1       -0.0016
     12 C           4.6169   -0.8289   32.7207 C.ar    1  UNL1       -0.0061
     13 C           5.9435   -0.3233   32.2365 C.ar    1  UNL1       -0.0016
     14 C           7.0838   -1.2778   32.0404 C.ar    1  UNL1        0.0144
     15 C           3.4766    0.1257   32.9168 C.3     1  UNL1        0.0992
     16 N           2.5717    0.4593   31.7679 N.3     1  UNL1       -0.2664
     17 C           1.6775    1.6614   31.8419 C.3     1  UNL1        0.0917
     18 C           0.7727    1.9950   30.6930 C.3     1  UNL1        0.1128
     19 N           0.7620    1.1265   29.4700 N.3     1  UNL1       -0.1565
     20 C           1.6562   -0.0756   29.3960 C.3     1  UNL1        0.1128
     21 C           2.5610   -0.4092   30.5449 C.3     1  UNL1        0.0917
     22 S          -0.1428    1.4600   28.3211 S.O2    1  UNL1        0.0457
     23 C          -1.0477    1.7936   27.1723 C.3     1  UNL1        0.1960
     24 O          -0.7664    0.0992   28.4172 O.2     1  UNL1       -0.1572
     25 O           0.4807    2.8209   28.2251 O.2     1  UNL1       -0.1572
     26 O           8.8368   -3.5110   27.0012 O.3     1  UNL1       -0.4366
     27 C           9.1675   -5.3698   24.6698 C.3     1  UNL1        0.0342
     28 C           7.9784   -4.4582   24.7394 C.ar    1  UNL1        0.0124
     29 C           6.9546   -4.4759   23.6433 C.ar    1  UNL1       -0.0012
     30 C           5.7654   -3.5643   23.7129 C.ar    1  UNL1        0.0003
     31 C           5.6000   -2.6350   24.8786 C.ar    1  UNL1       -0.0012
     32 C           6.6238   -2.6172   25.9746 C.ar    1  UNL1        0.0124
     33 C           6.4585   -1.6878   27.1404 C.3     1  UNL1        0.0342
     34 C           7.8130   -3.5288   25.9051 C.ar    1  UNL1        0.1391
     35 C           4.7416   -3.5821   22.6167 C.2     1  UNL1        0.0109
     36 C           5.1570   -3.8839   21.2073 C.2     1  UNL1        0.0780
     37 C           4.1332   -3.9017   20.1111 C.1     1  UNL1        0.1011
     38 N           3.1095   -3.9196   19.0149 N.1     1  UNL1       -0.1908
@<TRIPOS>BOND
     1    27    28    1
     2    28    29   ar
     3    29    30   ar
     4    30    35    1
     5    35    36    2
     6    36    37    1
     7    37    38    3
     8    30    31   ar
     9    31    32   ar
    10    32    33    1
    11    32    34   ar
    12    34    26    1
    13    26     1    1
    14     1     2   ar
    15     2     3   ar
    16     3     4   ar
    17     4     5   ar
    18     5     7    1
    19     7     9    1
    20     9    10   ar
    21    10    11   ar
    22    11    12   ar
    23    12    15    1
    24    15    16    1
    25    16    17    1
    26    17    18    1
    27    18    19    1
    28    19    22    1
    29    22    23    1
    30    22    24    2
    31    22    25    2
    32    19    20    1
    33    20    21    1
    34    12    13   ar
    35    13    14   ar
    36     5     6   ar
    37    34    28   ar
    38     6     1   ar
    39    14     9   ar
    40    21    16    1
    41     7     8    1
@<TRIPOS>MOLECULE
*****
 38 41 0 0 0
SMALL
GASTEIGER

@<TRIPOS>ATOM
      1 C           1.9924    0.1440   30.8199 C.ar    1  UNL1        0.2335
      2 C           1.6594    1.5824   31.0848 C.ar    1  UNL1        0.0788
      3 C           2.2532    2.2837   32.2704 C.ar    1  UNL1        0.1067
      4 N           3.1801    1.5465   33.1910 N.ar    1  UNL1       -0.2118
      5 C           3.5131    0.1082   32.9261 C.ar    1  UNL1        0.2232
      6 N           2.9193   -0.5931   31.7405 N.ar    1  UNL1       -0.1783
      7 N           4.4400   -0.6290   33.8468 N.pl3   1  UNL1       -0.2825
      8 H           4.3138   -0.5720   34.8215 H       1  UNL1        0.1551
      9 C           5.5592   -1.4529   33.2823 C.ar    1  UNL1        0.0504
     10 C           6.9443   -0.8826   33.2031 C.ar    1  UNL1        0.0144
     11 C           8.0635   -1.7065   32.6386 C.ar    1  UNL1       -0.0016
     12 C           7.7975   -3.1007   32.1533 C.ar    1  UNL1       -0.0061
     13 C           6.4124   -3.6710   32.2325 C.ar    1  UNL1       -0.0016
     14 C           5.2933   -2.8471   32.7970 C.ar    1  UNL1        0.0144
     15 C           8.9167   -3.9246   31.5888 C.3     1  UNL1        0.0992
     16 N           8.7313   -4.6520   30.2901 N.3     1  UNL1       -0.2664
     17 C           8.6672   -3.8844   29.0030 C.3     1  UNL1        0.0917
     18 C           8.4819   -4.6118   27.7043 C.3     1  UNL1        0.1128
     19 N           8.3607   -6.1068   27.6927 N.3     1  UNL1       -0.1565
     20 C           8.4248   -6.8745   28.9799 C.3     1  UNL1        0.1128
     21 C           8.6101   -6.1471   30.2785 C.3     1  UNL1        0.0917
     22 S           8.1753   -6.8342   26.3941 S.O2    1  UNL1        0.0457
     23 C           7.9900   -7.5616   25.0955 C.3     1  UNL1        0.1960
     24 O           7.6836   -5.5691   25.7556 O.2     1  UNL1       -0.1572
     25 O           8.6670   -8.0994   27.0325 O.2     1  UNL1       -0.1572
     26 O           1.3986   -0.5573   29.6343 O.3     1  UNL1       -0.4366
     27 C          -1.4603    0.2192   29.1610 C.3     1  UNL1        0.0342
     28 C          -0.4028    0.6127   28.1727 C.ar    1  UNL1        0.0124
     29 C          -0.7747    1.3944   26.9477 C.ar    1  UNL1       -0.0012
     30 C           0.2828    1.7880   25.9594 C.ar    1  UNL1        0.0003
     31 C           1.7123    1.3998   26.1960 C.ar    1  UNL1       -0.0012
     32 C           2.0841    0.6181   27.4210 C.ar    1  UNL1        0.0124
     33 C           3.5136    0.2298   27.6577 C.3     1  UNL1        0.0342
     34 C           1.0266    0.2245   28.4093 C.ar    1  UNL1        0.1391
     35 C          -0.0891    2.5697   24.7344 C.2     1  UNL1        0.0109
     36 C           0.2413    2.0331   23.3732 C.2     1  UNL1        0.0780
     37 C          -0.1306    2.8148   22.1482 C.1     1  UNL1        0.1011
     38 N          -0.5026    3.5965   20.9232 N.1     1  UNL1       -0.1908
@<TRIPOS>BOND
     1    27    28    1
     2    28    29   ar
     3    29    30   ar
     4    30    35    1
     5    35    36    2
     6    36    37    1
     7    37    38    3
     8    30    31   ar
     9    31    32   ar
    10    32    33    1
    11    32    34   ar
    12    34    26    1
    13    26     1    1
    14     1     2   ar
    15     2     3   ar
    16     3     4   ar
    17     4     5   ar
    18     5     7    1
    19     7     9    1
    20     9    10   ar
    21    10    11   ar
    22    11    12   ar
    23    12    15    1
    24    15    16    1
    25    16    17    1
    26    17    18    1
    27    18    19    1
    28    19    22    1
    29    22    23    1
    30    22    24    2
    31    22    25    2
    32    19    20    1
    33    20    21    1
    34    12    13   ar
    35    13    14   ar
    36     5     6   ar
    37    34    28   ar
    38     6     1   ar
    39    14     9   ar
    40    21    16    1
    41     7     8    1
