@<TRIPOS>MOLECULE
*****
 30 32 0 0 0
SMALL
GASTEIGER

@<TRIPOS>ATOM
      1 C          -7.9704  -17.7652   21.9520 C.2     1  UNL1        0.2461
      2 O          -7.5975  -16.3703   21.5460 O.2     1  UNL1       -0.2730
      3 N          -8.7410  -17.9973   23.2179 N.am    1  UNL1       -0.2729
      4 C          -9.1140  -19.3922   23.6239 C.3     1  UNL1        0.1152
      5 C          -7.5728  -18.9283   21.0922 C.3     1  UNL1        0.1773
      6 C          -6.5431  -21.0919   22.0963 C.3     1  UNL1        0.1126
      7 N          -6.3696  -19.7492   21.4506 N.pl3   1  UNL1       -0.2980
      8 C          -4.9930  -19.2274   21.1634 C.ar    1  UNL1        0.0483
      9 C          -4.1283  -18.7347   22.2858 C.ar    1  UNL1        0.0152
     10 C          -2.7517  -18.2128   21.9985 C.ar    1  UNL1        0.0115
     11 C          -2.2397  -18.1837   20.5889 C.ar    1  UNL1        0.0685
     12 C          -3.1043  -18.6763   19.4666 C.ar    1  UNL1        0.0115
     13 C          -4.4810  -19.1982   19.7538 C.ar    1  UNL1        0.0152
     14 C          -0.8630  -17.6618   20.3017 C.1     1  UNL1        0.1004
     15 N           0.5137  -17.1400   20.0145 N.1     1  UNL1       -0.1908
     16 C          -9.1387  -16.8342   24.0777 C.3     1  UNL1        0.1139
     17 C          -8.1910  -16.3103   25.1157 C.ar    1  UNL1       -0.0029
     18 C          -8.5385  -16.4177   26.5709 C.ar    1  UNL1       -0.0026
     19 C          -7.5908  -15.8937   27.6088 C.ar    1  UNL1       -0.0003
     20 C          -6.2957  -15.2624   27.1916 C.ar    1  UNL1       -0.0000
     21 C          -5.9482  -15.1550   25.7363 C.ar    1  UNL1       -0.0003
     22 C          -6.8959  -15.6790   24.6984 C.ar    1  UNL1       -0.0026
     23 C         -10.4840  -16.1952   23.8995 C.3     1  UNL1        0.0968
     24 N         -11.2916  -16.4784   22.6675 N.3     1  UNL1       -0.2689
     25 C         -12.3321  -17.5491   22.5223 C.3     1  UNL1        0.0748
     26 C         -12.8841  -17.4731   21.1296 C.3     1  UNL1        0.0480
     27 C         -12.1848  -16.3554   20.4142 C.3     1  UNL1        0.1278
     28 O         -12.4271  -15.9276   18.9971 O.3     1  UNL1       -0.3830
     29 C         -11.2006  -15.7407   21.3647 C.3     1  UNL1        0.1017
     30 H         -13.1137  -16.4882   18.6031 H       1  UNL1        0.2104
@<TRIPOS>BOND
     1     6     7    1
     2     7     5    1
     3     5     1    1
     4     1     2    2
     5     1     3   am
     6     3     4    1
     7     3    16    1
     8    16    23    1
     9    23    24    1
    10    24    25    1
    11    25    26    1
    12    26    27    1
    13    27    28    1
    14    27    29    1
    15    16    17    1
    16    17    18   ar
    17    18    19   ar
    18    19    20   ar
    19    20    21   ar
    20    21    22   ar
    21     7     8    1
    22     8     9   ar
    23     9    10   ar
    24    10    11   ar
    25    11    14    1
    26    14    15    3
    27    11    12   ar
    28    12    13   ar
    29    29    24    1
    30    22    17   ar
    31    13     8   ar
    32    28    30    1
@<TRIPOS>MOLECULE
*****
 30 32 0 0 0
SMALL
GASTEIGER

@<TRIPOS>ATOM
      1 C           6.1975   -3.6092   21.6222 C.2     1  UNL1        0.2461
      2 O           4.9627   -4.1552   22.2757 O.2     1  UNL1       -0.2730
      3 N           7.4113   -3.3042   22.4490 N.am    1  UNL1       -0.2729
      4 C           8.6461   -2.7582   21.7955 C.3     1  UNL1        0.1152
      5 C           6.2185   -3.3681   20.1418 C.3     1  UNL1        0.1773
      6 C           4.5995   -4.8549   18.7568 C.3     1  UNL1        0.1126
      7 N           4.9605   -3.5206   19.3392 N.pl3   1  UNL1       -0.2980
      8 C           4.0636   -2.3387   19.1189 C.ar    1  UNL1        0.0483
      9 C           4.2000   -1.5155   17.8724 C.ar    1  UNL1        0.0152
     10 C           3.3031   -0.3336   17.6521 C.ar    1  UNL1        0.0115
     11 C           2.2696    0.0252   18.6784 C.ar    1  UNL1        0.0685
     12 C           2.1332   -0.7979   19.9250 C.ar    1  UNL1        0.0115
     13 C           3.0302   -1.9798   20.1452 C.ar    1  UNL1        0.0152
     14 C           1.3727    1.2072   18.4581 C.1     1  UNL1        0.1004
     15 N           0.4757    2.3890   18.2378 N.1     1  UNL1       -0.1908
     16 C           7.3903   -3.5453   23.9294 C.3     1  UNL1        0.1139
     17 C           7.5346   -4.9393   24.4644 C.ar    1  UNL1       -0.0029
     18 C           8.2113   -5.9931   23.6389 C.ar    1  UNL1       -0.0026
     19 C           8.3555   -7.3870   24.1739 C.ar    1  UNL1       -0.0003
     20 C           7.8232   -7.7270   25.5344 C.ar    1  UNL1       -0.0000
     21 C           7.1465   -6.6731   26.3599 C.ar    1  UNL1       -0.0003
     22 C           7.0023   -5.2793   25.8249 C.ar    1  UNL1       -0.0026
     23 C           7.2250   -2.3925   24.8747 C.3     1  UNL1        0.0968
     24 N           5.8512   -1.9247   25.2540 N.3     1  UNL1       -0.2689
     25 C           4.8605   -1.2663   24.3401 C.3     1  UNL1        0.0748
     26 C           3.6239   -0.9678   25.1350 C.3     1  UNL1        0.0480
     27 C           3.8504   -1.4416   26.5401 C.3     1  UNL1        0.1278
     28 O           2.8722   -1.3416   27.6728 O.3     1  UNL1       -0.3830
     29 C           5.2270   -2.0330   26.6136 C.3     1  UNL1        0.1017
     30 H           2.0573   -0.9187   27.3598 H       1  UNL1        0.2104
@<TRIPOS>BOND
     1     6     7    1
     2     7     5    1
     3     5     1    1
     4     1     2    2
     5     1     3   am
     6     3     4    1
     7     3    16    1
     8    16    23    1
     9    23    24    1
    10    24    25    1
    11    25    26    1
    12    26    27    1
    13    27    28    1
    14    27    29    1
    15    16    17    1
    16    17    18   ar
    17    18    19   ar
    18    19    20   ar
    19    20    21   ar
    20    21    22   ar
    21     7     8    1
    22     8     9   ar
    23     9    10   ar
    24    10    11   ar
    25    11    14    1
    26    14    15    3
    27    11    12   ar
    28    12    13   ar
    29    29    24    1
    30    22    17   ar
    31    13     8   ar
    32    28    30    1
@<TRIPOS>MOLECULE
*****
 30 32 0 0 0
SMALL
GASTEIGER

@<TRIPOS>ATOM
      1 C          -6.8212  -19.9644   21.3151 C.2     1  UNL1        0.2461
      2 O          -7.2213  -20.4245   22.6855 O.2     1  UNL1       -0.2730
      3 N          -5.8612  -18.8226   21.1578 N.am    1  UNL1       -0.2729
      4 C          -5.4611  -18.3624   19.7873 C.3     1  UNL1        0.1152
      5 C          -7.3812  -20.6460   20.1019 C.3     1  UNL1        0.1773
      6 C          -8.9869  -20.3505   18.0809 C.3     1  UNL1        0.1126
      7 N          -8.7097  -20.2219   19.5495 N.pl3   1  UNL1       -0.2980
      8 C          -9.7609  -19.6692   20.4656 C.ar    1  UNL1        0.0483
      9 C         -10.4391  -18.3731   20.1334 C.ar    1  UNL1        0.0152
     10 C         -11.4904  -17.8204   21.0496 C.ar    1  UNL1        0.0115
     11 C         -11.8634  -18.5637   22.2979 C.ar    1  UNL1        0.0685
     12 C         -11.1853  -19.8597   22.6301 C.ar    1  UNL1        0.0115
     13 C         -10.1340  -20.4125   21.7139 C.ar    1  UNL1        0.0152
     14 C         -12.9147  -18.0109   23.2141 C.1     1  UNL1        0.1004
     15 N         -13.9660  -17.4582   24.1301 N.1     1  UNL1       -0.1908
     16 C          -5.3012  -18.1410   22.3710 C.3     1  UNL1        0.1139
     17 C          -6.1403  -17.1591   23.1339 C.ar    1  UNL1       -0.0029
     18 C          -5.4934  -16.2100   24.0986 C.ar    1  UNL1       -0.0026
     19 C          -6.3325  -15.2283   24.8615 C.ar    1  UNL1       -0.0003
     20 C          -7.8185  -15.1956   24.6597 C.ar    1  UNL1       -0.0000
     21 C          -8.4654  -16.1447   23.6950 C.ar    1  UNL1       -0.0003
     22 C          -7.6263  -17.1265   22.9322 C.ar    1  UNL1       -0.0026
     23 C          -3.9023  -18.4412   22.8213 C.3     1  UNL1        0.0968
     24 N          -2.7374  -18.0533   21.9594 N.3     1  UNL1       -0.2689
     25 C          -2.2323  -16.6588   21.7352 C.3     1  UNL1        0.0748
     26 C          -1.0559  -16.7355   20.8076 C.3     1  UNL1        0.0480
     27 C          -0.8341  -18.1774   20.4586 C.3     1  UNL1        0.1278
     28 O           0.2386  -18.7111   19.5562 O.3     1  UNL1       -0.3830
     29 C          -1.8733  -18.9918   21.1704 C.3     1  UNL1        0.1017
     30 H           0.7778  -17.9759   19.2250 H       1  UNL1        0.2104
@<TRIPOS>BOND
     1     6     7    1
     2     7     5    1
     3     5     1    1
     4     1     2    2
     5     1     3   am
     6     3     4    1
     7     3    16    1
     8    16    23    1
     9    23    24    1
    10    24    25    1
    11    25    26    1
    12    26    27    1
    13    27    28    1
    14    27    29    1
    15    16    17    1
    16    17    18   ar
    17    18    19   ar
    18    19    20   ar
    19    20    21   ar
    20    21    22   ar
    21     7     8    1
    22     8     9   ar
    23     9    10   ar
    24    10    11   ar
    25    11    14    1
    26    14    15    3
    27    11    12   ar
    28    12    13   ar
    29    29    24    1
    30    22    17   ar
    31    13     8   ar
    32    28    30    1
@<TRIPOS>MOLECULE
*****
 30 32 0 0 0
SMALL
GASTEIGER

@<TRIPOS>ATOM
      1 C           0.6719    2.0770   24.1915 C.2     1  UNL1        0.2461
      2 O           0.1532    0.8071   24.7982 O.2     1  UNL1       -0.2730
      3 N           0.2559    3.4028   24.7565 N.am    1  UNL1       -0.2729
      4 C           0.7745    4.6727   24.1498 C.3     1  UNL1        0.1152
      5 C           1.6067    2.0212   23.0197 C.3     1  UNL1        0.1773
      6 C           0.0739    1.4990   20.9880 C.3     1  UNL1        0.1126
      7 N           1.2698    1.1700   21.8314 N.pl3   1  UNL1       -0.2980
      8 C           2.1290   -0.0102   21.4867 C.ar    1  UNL1        0.0483
      9 C           3.0056   -0.6312   22.5337 C.ar    1  UNL1        0.0152
     10 C           3.8647   -1.8114   22.1889 C.ar    1  UNL1        0.0115
     11 C           3.8473   -2.3708   20.7973 C.ar    1  UNL1        0.0685
     12 C           2.9708   -1.7499   19.7503 C.ar    1  UNL1        0.0115
     13 C           2.1116   -0.5696   20.0950 C.ar    1  UNL1        0.0152
     14 C           4.7065   -3.5511   20.4525 C.1     1  UNL1        0.1004
     15 N           5.5656   -4.7313   20.1079 N.1     1  UNL1       -0.1908
     16 C          -0.6789    3.4586   25.9283 C.3     1  UNL1        0.1139
     17 C          -2.1541    3.6128   25.7043 C.ar    1  UNL1       -0.0029
     18 C          -3.0377    4.0799   26.8227 C.ar    1  UNL1       -0.0026
     19 C          -4.5128    4.2341   26.5986 C.ar    1  UNL1       -0.0003
     20 C          -5.1043    3.9212   25.2561 C.ar    1  UNL1       -0.0000
     21 C          -4.2206    3.4541   24.1377 C.ar    1  UNL1       -0.0003
     22 C          -2.7455    3.2999   24.3618 C.ar    1  UNL1       -0.0026
     23 C          -0.1385    3.3601   27.3241 C.3     1  UNL1        0.0968
     24 N          -0.0651    2.0269   28.0077 N.3     1  UNL1       -0.2689
     25 C          -1.1557    0.9980   28.0525 C.3     1  UNL1        0.0748
     26 C          -0.6529   -0.1763   28.8390 C.3     1  UNL1        0.0480
     27 C           0.7484    0.1270   29.2801 C.3     1  UNL1        0.1278
     28 O           1.6313   -0.7732   30.0924 O.3     1  UNL1       -0.3830
     29 C           1.1116    1.4887   28.7664 C.3     1  UNL1        0.1017
     30 H           1.1568   -1.5947   30.2948 H       1  UNL1        0.2104
@<TRIPOS>BOND
     1     6     7    1
     2     7     5    1
     3     5     1    1
     4     1     2    2
     5     1     3   am
     6     3     4    1
     7     3    16    1
     8    16    23    1
     9    23    24    1
    10    24    25    1
    11    25    26    1
    12    26    27    1
    13    27    28    1
    14    27    29    1
    15    16    17    1
    16    17    18   ar
    17    18    19   ar
    18    19    20   ar
    19    20    21   ar
    20    21    22   ar
    21     7     8    1
    22     8     9   ar
    23     9    10   ar
    24    10    11   ar
    25    11    14    1
    26    14    15    3
    27    11    12   ar
    28    12    13   ar
    29    29    24    1
    30    22    17   ar
    31    13     8   ar
    32    28    30    1
@<TRIPOS>MOLECULE
*****
 30 32 0 0 0
SMALL
GASTEIGER

@<TRIPOS>ATOM
      1 C          -8.0083  -19.2971   21.7524 C.2     1  UNL1        0.2461
      2 O          -8.1999  -19.3150   23.2400 O.2     1  UNL1       -0.2730
      3 N          -6.6790  -18.9152   21.1718 N.am    1  UNL1       -0.2729
      4 C          -6.4875  -18.8974   19.6842 C.3     1  UNL1        0.1152
      5 C          -9.1462  -19.6612   20.8453 C.3     1  UNL1        0.1773
      6 C         -10.7085  -18.0211   19.5728 C.3     1  UNL1        0.1126
      7 N         -10.3782  -18.8065   20.8074 N.pl3   1  UNL1       -0.2980
      8 C         -11.2799  -18.7371   22.0040 C.ar    1  UNL1        0.0483
      9 C         -10.9705  -19.5524   23.2246 C.ar    1  UNL1        0.0152
     10 C         -11.8722  -19.4830   24.4213 C.ar    1  UNL1        0.0115
     11 C         -13.0834  -18.5984   24.3975 C.ar    1  UNL1        0.0685
     12 C         -13.3928  -17.7832   23.1770 C.ar    1  UNL1        0.0115
     13 C         -12.4911  -17.8525   21.9802 C.ar    1  UNL1        0.0152
     14 C         -13.9851  -18.5291   25.5942 C.1     1  UNL1        0.1004
     15 N         -14.8868  -18.4598   26.7909 N.1     1  UNL1       -0.1908
     16 C          -5.5412  -18.5511   22.0789 C.3     1  UNL1        0.1139
     17 C          -5.6811  -17.4027   23.0338 C.ar    1  UNL1       -0.0029
     18 C          -6.9032  -16.5342   22.9883 C.ar    1  UNL1       -0.0026
     19 C          -7.0432  -15.3859   23.9431 C.ar    1  UNL1       -0.0003
     20 C          -5.9609  -15.1060   24.9434 C.ar    1  UNL1       -0.0000
     21 C          -4.7388  -15.9745   24.9888 C.ar    1  UNL1       -0.0003
     22 C          -4.5989  -17.1229   24.0340 C.ar    1  UNL1       -0.0026
     23 C          -4.2634  -19.3354   22.0312 C.3     1  UNL1        0.0968
     24 N          -3.1056  -18.8343   21.2197 N.3     1  UNL1       -0.2689
     25 C          -1.7863  -18.3682   21.7602 C.3     1  UNL1        0.0748
     26 C          -0.9292  -17.9571   20.5998 C.3     1  UNL1        0.0480
     27 C          -1.7188  -18.1692   19.3422 C.3     1  UNL1        0.1278
     28 O          -1.2464  -17.8885   17.9466 O.3     1  UNL1       -0.3830
     29 C          -3.0639  -18.7113   19.7254 C.3     1  UNL1        0.1017
     30 H          -0.3401  -17.5438   17.9753 H       1  UNL1        0.2104
@<TRIPOS>BOND
     1     6     7    1
     2     7     5    1
     3     5     1    1
     4     1     2    2
     5     1     3   am
     6     3     4    1
     7     3    16    1
     8    16    23    1
     9    23    24    1
    10    24    25    1
    11    25    26    1
    12    26    27    1
    13    27    28    1
    14    27    29    1
    15    16    17    1
    16    17    18   ar
    17    18    19   ar
    18    19    20   ar
    19    20    21   ar
    20    21    22   ar
    21     7     8    1
    22     8     9   ar
    23     9    10   ar
    24    10    11   ar
    25    11    14    1
    26    14    15    3
    27    11    12   ar
    28    12    13   ar
    29    29    24    1
    30    22    17   ar
    31    13     8   ar
    32    28    30    1
@<TRIPOS>MOLECULE
*****
 30 32 0 0 0
SMALL
GASTEIGER

@<TRIPOS>ATOM
      1 C          -8.9383  -19.6994   22.4821 C.2     1  UNL1        0.2461
      2 O          -8.1259  -20.6669   23.2907 O.2     1  UNL1       -0.2730
      3 N          -8.2589  -18.7693   21.5212 N.am    1  UNL1       -0.2729
      4 C          -9.0712  -17.8017   20.7126 C.3     1  UNL1        0.1152
      5 C         -10.4301  -19.6619   22.6344 C.3     1  UNL1        0.1773
      6 C         -12.5530  -18.3703   23.3926 C.3     1  UNL1        0.1126
      7 N         -11.0720  -18.5951   23.4709 N.pl3   1  UNL1       -0.2980
      8 C         -10.2330  -17.7531   24.3857 C.ar    1  UNL1        0.0483
      9 C          -9.7686  -18.3075   25.6999 C.ar    1  UNL1        0.0152
     10 C          -8.9295  -17.4655   26.6147 C.ar    1  UNL1        0.0115
     11 C          -8.5548  -16.0690   26.2154 C.ar    1  UNL1        0.0685
     12 C          -9.0191  -15.5145   24.9013 C.ar    1  UNL1        0.0115
     13 C          -9.8582  -16.3566   23.9864 C.ar    1  UNL1        0.0152
     14 C          -7.7157  -15.2270   27.1304 C.1     1  UNL1        0.1004
     15 N          -6.8767  -14.3849   28.0452 N.1     1  UNL1       -0.1908
     16 C          -6.7671  -18.8067   21.3689 C.3     1  UNL1        0.1139
     17 C          -5.8930  -18.1163   22.3737 C.ar    1  UNL1       -0.0029
     18 C          -6.3343  -16.8205   22.9868 C.ar    1  UNL1       -0.0026
     19 C          -5.4603  -16.1301   23.9915 C.ar    1  UNL1       -0.0003
     20 C          -4.1450  -16.7357   24.3831 C.ar    1  UNL1       -0.0000
     21 C          -3.7037  -18.0315   23.7700 C.ar    1  UNL1       -0.0003
     22 C          -4.5778  -18.7219   22.7653 C.ar    1  UNL1       -0.0026
     23 C          -6.1493  -19.5346   20.2120 C.3     1  UNL1        0.0968
     24 N          -4.6748  -19.4259   19.9585 N.3     1  UNL1       -0.2689
     25 C          -3.6233  -20.3752   20.4516 C.3     1  UNL1        0.0748
     26 C          -2.2916  -19.8850   19.9653 C.3     1  UNL1        0.0480
     27 C          -2.5202  -18.6327   19.1718 C.3     1  UNL1        0.1278
     28 O          -1.4618  -17.8088   18.5004 O.3     1  UNL1       -0.3830
     29 C          -3.9932  -18.3490   19.1676 C.3     1  UNL1        0.1017
     30 H          -0.5925  -18.2100   18.6562 H       1  UNL1        0.2104
@<TRIPOS>BOND
     1     6     7    1
     2     7     5    1
     3     5     1    1
     4     1     2    2
     5     1     3   am
     6     3     4    1
     7     3    16    1
     8    16    23    1
     9    23    24    1
    10    24    25    1
    11    25    26    1
    12    26    27    1
    13    27    28    1
    14    27    29    1
    15    16    17    1
    16    17    18   ar
    17    18    19   ar
    18    19    20   ar
    19    20    21   ar
    20    21    22   ar
    21     7     8    1
    22     8     9   ar
    23     9    10   ar
    24    10    11   ar
    25    11    14    1
    26    14    15    3
    27    11    12   ar
    28    12    13   ar
    29    29    24    1
    30    22    17   ar
    31    13     8   ar
    32    28    30    1
@<TRIPOS>MOLECULE
*****
 30 32 0 0 0
SMALL
GASTEIGER

@<TRIPOS>ATOM
      1 C           0.1127    2.0808   19.7403 C.2     1  UNL1        0.2461
      2 O          -0.4157    0.9178   20.5265 O.2     1  UNL1       -0.2730
      3 N          -0.2003    3.4827   20.1726 N.am    1  UNL1       -0.2729
      4 C           0.3281    4.6457   19.3865 C.3     1  UNL1        0.1152
      5 C           0.9543    1.8420   18.5218 C.3     1  UNL1        0.1773
      6 C           3.4020    2.6861   18.7368 C.3     1  UNL1        0.1126
      7 N           2.4194    1.5550   18.6667 N.pl3   1  UNL1       -0.2980
      8 C           2.9019    0.1367   18.7414 C.ar    1  UNL1        0.0483
      9 C           3.7181   -0.4379   17.6216 C.ar    1  UNL1        0.0152
     10 C           4.2006   -1.8562   17.6963 C.ar    1  UNL1        0.0115
     11 C           3.8669   -2.7000   18.8907 C.ar    1  UNL1        0.0685
     12 C           3.0508   -2.1255   20.0105 C.ar    1  UNL1        0.0115
     13 C           2.5683   -0.7071   19.9358 C.ar    1  UNL1        0.0152
     14 C           4.3495   -4.1183   18.9654 C.1     1  UNL1        0.1004
     15 N           4.8320   -5.5366   19.0401 N.1     1  UNL1       -0.1908
     16 C          -1.0419    3.7214   21.3912 C.3     1  UNL1        0.1139
     17 C          -2.5378    3.6712   21.2911 C.ar    1  UNL1       -0.0029
     18 C          -3.3738    3.6935   22.5363 C.ar    1  UNL1       -0.0026
     19 C          -4.8696    3.6433   22.4362 C.ar    1  UNL1       -0.0003
     20 C          -5.5293    3.5707   21.0910 C.ar    1  UNL1       -0.0000
     21 C          -4.6932    3.5483   19.8459 C.ar    1  UNL1       -0.0003
     22 C          -3.1975    3.5986   19.9460 C.ar    1  UNL1       -0.0026
     23 C          -0.3877    4.0105   22.7096 C.3     1  UNL1        0.0968
     24 N          -0.0049    2.8817   23.6204 N.3     1  UNL1       -0.2689
     25 C          -0.6985    2.5039   24.8956 C.3     1  UNL1        0.0748
     26 C           0.0164    1.3213   25.4792 C.3     1  UNL1        0.0480
     27 C           1.1518    0.9683   24.5646 C.3     1  UNL1        0.1278
     28 O           2.1287   -0.1523   24.7639 O.3     1  UNL1       -0.3830
     29 C           1.1386    1.9327   23.4159 C.3     1  UNL1        0.1017
     30 H           1.9165   -0.6242   25.5843 H       1  UNL1        0.2104
@<TRIPOS>BOND
     1     6     7    1
     2     7     5    1
     3     5     1    1
     4     1     2    2
     5     1     3   am
     6     3     4    1
     7     3    16    1
     8    16    23    1
     9    23    24    1
    10    24    25    1
    11    25    26    1
    12    26    27    1
    13    27    28    1
    14    27    29    1
    15    16    17    1
    16    17    18   ar
    17    18    19   ar
    18    19    20   ar
    19    20    21   ar
    20    21    22   ar
    21     7     8    1
    22     8     9   ar
    23     9    10   ar
    24    10    11   ar
    25    11    14    1
    26    14    15    3
    27    11    12   ar
    28    12    13   ar
    29    29    24    1
    30    22    17   ar
    31    13     8   ar
    32    28    30    1
@<TRIPOS>MOLECULE
*****
 30 32 0 0 0
SMALL
GASTEIGER

@<TRIPOS>ATOM
      1 C           7.1227   -3.6732   22.1800 C.2     1  UNL1        0.2461
      2 O           6.0362   -4.6543   22.5068 O.2     1  UNL1       -0.2730
      3 N           7.6725   -2.7785   23.2512 N.am    1  UNL1       -0.2729
      4 C           8.7590   -1.7974   22.9244 C.3     1  UNL1        0.1152
      5 C           7.6596   -3.5867   20.7821 C.3     1  UNL1        0.1773
      6 C           7.9926   -2.0289   18.7297 C.3     1  UNL1        0.1126
      7 N           7.1255   -2.5524   19.8362 N.pl3   1  UNL1       -0.2980
      8 C           5.7244   -2.0415   19.9967 C.ar    1  UNL1        0.0483
      9 C           5.4857   -0.6680   20.5504 C.ar    1  UNL1        0.0152
     10 C           4.0845   -0.1572   20.7109 C.ar    1  UNL1        0.0115
     11 C           2.9221   -1.0198   20.3177 C.ar    1  UNL1        0.0685
     12 C           3.1607   -2.3932   19.7640 C.ar    1  UNL1        0.0115
     13 C           4.5619   -2.9041   19.6035 C.ar    1  UNL1        0.0152
     14 C           1.5209   -0.5089   20.4783 C.1     1  UNL1        0.1004
     15 N           0.1198    0.0020   20.6389 N.1     1  UNL1       -0.1908
     16 C           7.1356   -2.8649   24.6492 C.3     1  UNL1        0.1139
     17 C           5.8908   -2.1156   25.0222 C.ar    1  UNL1       -0.0029
     18 C           4.8570   -1.8119   23.9786 C.ar    1  UNL1       -0.0026
     19 C           3.6123   -1.0626   24.3517 C.ar    1  UNL1       -0.0003
     20 C           3.4014   -0.6169   25.7683 C.ar    1  UNL1       -0.0000
     21 C           4.4351   -0.9206   26.8119 C.ar    1  UNL1       -0.0003
     22 C           5.6798   -1.6699   26.4388 C.ar    1  UNL1       -0.0026
     23 C           7.8434   -3.7007   25.6741 C.3     1  UNL1        0.0968
     24 N           7.7924   -5.1973   25.5865 N.3     1  UNL1       -0.2689
     25 C           8.5491   -6.0496   24.6113 C.3     1  UNL1        0.0748
     26 C           8.2002   -7.4835   24.8808 C.3     1  UNL1        0.0480
     27 C           7.2280   -7.5172   26.0227 C.3     1  UNL1        0.1278
     28 O           6.6154   -8.7477   26.6230 O.3     1  UNL1       -0.3830
     29 C           6.9760   -6.1043   26.4588 C.3     1  UNL1        0.1017
     30 H           6.9446   -9.5326   26.1578 H       1  UNL1        0.2104
@<TRIPOS>BOND
     1     6     7    1
     2     7     5    1
     3     5     1    1
     4     1     2    2
     5     1     3   am
     6     3     4    1
     7     3    16    1
     8    16    23    1
     9    23    24    1
    10    24    25    1
    11    25    26    1
    12    26    27    1
    13    27    28    1
    14    27    29    1
    15    16    17    1
    16    17    18   ar
    17    18    19   ar
    18    19    20   ar
    19    20    21   ar
    20    21    22   ar
    21     7     8    1
    22     8     9   ar
    23     9    10   ar
    24    10    11   ar
    25    11    14    1
    26    14    15    3
    27    11    12   ar
    28    12    13   ar
    29    29    24    1
    30    22    17   ar
    31    13     8   ar
    32    28    30    1
@<TRIPOS>MOLECULE
*****
 30 32 0 0 0
SMALL
GASTEIGER

@<TRIPOS>ATOM
      1 C           5.1297   -2.0115   22.9742 C.2     1  UNL1        0.2461
      2 O           4.1606   -3.1399   23.1676 O.2     1  UNL1       -0.2730
      3 N           4.6795   -0.7406   22.3165 N.am    1  UNL1       -0.2729
      4 C           5.6486    0.3878   22.1231 C.3     1  UNL1        0.1152
      5 C           6.5489   -2.1538   23.4384 C.3     1  UNL1        0.1773
      6 C           8.0794   -3.2955   21.6765 C.3     1  UNL1        0.1126
      7 N           7.3681   -3.3301   22.9967 N.pl3   1  UNL1       -0.2980
      8 C           7.4759   -4.5412   23.8752 C.ar    1  UNL1        0.0483
      9 C           8.2097   -5.7564   23.3905 C.ar    1  UNL1        0.0152
     10 C           8.3175   -6.9674   24.2689 C.ar    1  UNL1        0.0115
     11 C           7.6916   -6.9633   25.6321 C.ar    1  UNL1        0.0685
     12 C           6.9579   -5.7481   26.1168 C.ar    1  UNL1        0.0115
     13 C           6.8500   -4.5370   25.2383 C.ar    1  UNL1        0.0152
     14 C           7.7995   -8.1744   26.5106 C.1     1  UNL1        0.1004
     15 N           7.9073   -9.3855   27.3890 N.1     1  UNL1       -0.1908
     16 C           3.2603   -0.5983   21.8523 C.3     1  UNL1        0.1139
     17 C           2.2876    0.2164   22.6525 C.ar    1  UNL1       -0.0029
     18 C           2.3190    0.1627   24.1512 C.ar    1  UNL1       -0.0026
     19 C           1.3463    0.9773   24.9513 C.ar    1  UNL1       -0.0003
     20 C           0.3423    1.8456   24.2528 C.ar    1  UNL1       -0.0000
     21 C           0.3109    1.8993   22.7541 C.ar    1  UNL1       -0.0003
     22 C           1.2835    1.0846   21.9540 C.ar    1  UNL1       -0.0026
     23 C           2.8137   -1.2706   20.5880 C.3     1  UNL1        0.0968
     24 N           3.8132   -1.9772   19.7208 N.3     1  UNL1       -0.2689
     25 C           3.9405   -3.4623   19.5527 C.3     1  UNL1        0.0748
     26 C           5.0668   -3.7257   18.5976 C.3     1  UNL1        0.0480
     27 C           5.6355   -2.4033   18.1755 C.3     1  UNL1        0.1278
     28 O           6.7783   -2.1978   17.2260 O.3     1  UNL1       -0.3830
     29 C           4.8607   -1.3227   18.8697 C.3     1  UNL1        0.1017
     30 H           7.1023   -3.0589   16.9187 H       1  UNL1        0.2104
@<TRIPOS>BOND
     1     6     7    1
     2     7     5    1
     3     5     1    1
     4     1     2    2
     5     1     3   am
     6     3     4    1
     7     3    16    1
     8    16    23    1
     9    23    24    1
    10    24    25    1
    11    25    26    1
    12    26    27    1
    13    27    28    1
    14    27    29    1
    15    16    17    1
    16    17    18   ar
    17    18    19   ar
    18    19    20   ar
    19    20    21   ar
    20    21    22   ar
    21     7     8    1
    22     8     9   ar
    23     9    10   ar
    24    10    11   ar
    25    11    14    1
    26    14    15    3
    27    11    12   ar
    28    12    13   ar
    29    29    24    1
    30    22    17   ar
    31    13     8   ar
    32    28    30    1
