@<TRIPOS>MOLECULE
*****
 17 18 0 0 0
SMALL
GASTEIGER

@<TRIPOS>ATOM
      1 C         -11.6938  -17.3432   22.6527 C.ar    1  UNL1        0.0030
      2 C         -12.3870  -17.0284   21.3603 C.ar    1  UNL1        0.0795
      3 C         -11.7044  -16.1769   20.3311 C.ar    1  UNL1        0.3456
      4 O         -12.3976  -15.8621   19.0386 O.2     1  UNL1       -0.2445
      5 O         -10.3287  -15.6403   20.5944 O.2     1  UNL1       -0.4209
      6 C          -9.6354  -15.9552   21.8868 C.ar    1  UNL1        0.1514
      7 C          -8.2597  -15.4186   22.1501 C.ar    1  UNL1        0.0744
      8 C          -7.5665  -15.7334   23.4425 C.ar    1  UNL1        0.1418
      9 C          -8.2491  -16.5848   24.4717 C.ar    1  UNL1        0.0371
     10 C          -9.6248  -17.1214   24.2084 C.ar    1  UNL1        0.0059
     11 C         -10.3180  -16.8066   22.9160 C.ar    1  UNL1        0.0324
     12 O          -6.1907  -15.1968   23.7058 O.3     1  UNL1       -0.4713
     13 C          -5.4984  -15.5099   24.9991 C.3     1  UNL1        0.2525
     14 C         -12.3764  -18.1946   23.6819 C.3     1  UNL1        0.0960
     15 C         -14.3922  -18.4370   25.3029 C.3     1  UNL1        0.0861
     16 N         -13.8283  -17.9786   23.9907 N.3     1  UNL1       -0.2926
     17 H         -13.9953  -16.9740   23.9333 H       1  UNL1        0.1236
@<TRIPOS>BOND
     1    15    16    1
     2    16    14    1
     3    14     1    1
     4     1     2   ar
     5     2     3   ar
     6     3     4    2
     7     3     5   ar
     8     5     6   ar
     9     6     7   ar
    10     7     8   ar
    11     8    12    1
    12    12    13    1
    13     8     9   ar
    14     9    10   ar
    15    10    11   ar
    16    11     1   ar
    17    11     6   ar
    18    16    17    1
@<TRIPOS>MOLECULE
*****
 17 18 0 0 0
SMALL
GASTEIGER

@<TRIPOS>ATOM
      1 C         -10.2172  -19.4932   22.8179 C.ar    1  UNL1        0.0030
      2 C         -11.3582  -18.7429   22.1974 C.ar    1  UNL1        0.0795
      3 C         -11.1772  -18.0647   20.8717 C.ar    1  UNL1        0.3456
      4 O         -12.3183  -17.3144   20.2512 O.2     1  UNL1       -0.2445
      5 O          -9.8553  -18.1370   20.1666 O.2     1  UNL1       -0.4209
      6 C          -8.7143  -18.8873   20.7871 C.ar    1  UNL1        0.1514
      7 C          -7.3924  -18.9596   20.0819 C.ar    1  UNL1        0.0744
      8 C          -6.2514  -19.7099   20.7024 C.ar    1  UNL1        0.1418
      9 C          -6.4323  -20.3880   22.0281 C.ar    1  UNL1        0.0371
     10 C          -7.7542  -20.3158   22.7332 C.ar    1  UNL1        0.0059
     11 C          -8.8952  -19.5655   22.1127 C.ar    1  UNL1        0.0324
     12 O          -4.9294  -19.7822   19.9972 O.3     1  UNL1       -0.4713
     13 C          -3.6609  -19.8885   20.7908 C.3     1  UNL1        0.2525
     14 C         -10.3981  -20.1714   24.1436 C.3     1  UNL1        0.0960
     15 C          -9.6121  -18.0166   25.3639 C.3     1  UNL1        0.0861
     16 N         -10.0160  -19.4606   25.4080 N.3     1  UNL1       -0.2926
     17 H         -10.8183  -19.5229   26.0347 H       1  UNL1        0.1236
@<TRIPOS>BOND
     1    15    16    1
     2    16    14    1
     3    14     1    1
     4     1     2   ar
     5     2     3   ar
     6     3     4    2
     7     3     5   ar
     8     5     6   ar
     9     6     7   ar
    10     7     8   ar
    11     8    12    1
    12    12    13    1
    13     8     9   ar
    14     9    10   ar
    15    10    11   ar
    16    11     1   ar
    17    11     6   ar
    18    16    17    1
@<TRIPOS>MOLECULE
*****
 17 18 0 0 0
SMALL
GASTEIGER

@<TRIPOS>ATOM
      1 C         -10.4360  -18.5842   22.7219 C.ar    1  UNL1        0.0030
      2 C         -10.2422  -19.2714   21.4028 C.ar    1  UNL1        0.0795
      3 C          -9.0024  -19.0146   20.5983 C.ar    1  UNL1        0.3456
      4 O          -8.8087  -19.7018   19.2791 O.2     1  UNL1       -0.2445
      5 O          -7.9565  -18.0706   21.1130 O.2     1  UNL1       -0.4209
      6 C          -8.1503  -17.3834   22.4322 C.ar    1  UNL1        0.1514
      7 C          -7.1044  -16.4394   22.9468 C.ar    1  UNL1        0.0744
      8 C          -7.2982  -15.7522   24.2660 C.ar    1  UNL1        0.1418
      9 C          -8.5379  -16.0090   25.0704 C.ar    1  UNL1        0.0371
     10 C          -9.5838  -16.9529   24.5558 C.ar    1  UNL1        0.0059
     11 C          -9.3900  -17.6401   23.2366 C.ar    1  UNL1        0.0324
     12 O          -6.2522  -14.8082   24.7807 O.3     1  UNL1       -0.4713
     13 C          -5.4064  -15.1953   25.9574 C.3     1  UNL1        0.2525
     14 C         -11.6757  -18.8409   23.5264 C.3     1  UNL1        0.0960
     15 C         -14.0679  -18.1220   24.2409 C.3     1  UNL1        0.0861
     16 N         -12.8976  -17.9981   23.3108 N.3     1  UNL1       -0.2926
     17 H         -12.5942  -17.0249   23.3473 H       1  UNL1        0.1236
@<TRIPOS>BOND
     1    15    16    1
     2    16    14    1
     3    14     1    1
     4     1     2   ar
     5     2     3   ar
     6     3     4    2
     7     3     5   ar
     8     5     6   ar
     9     6     7   ar
    10     7     8   ar
    11     8    12    1
    12    12    13    1
    13     8     9   ar
    14     9    10   ar
    15    10    11   ar
    16    11     1   ar
    17    11     6   ar
    18    16    17    1
@<TRIPOS>MOLECULE
*****
 17 18 0 0 0
SMALL
GASTEIGER

@<TRIPOS>ATOM
      1 C         -12.0450  -17.1363   22.6338 C.ar    1  UNL1        0.0030
      2 C         -13.1103  -17.4336   23.6470 C.ar    1  UNL1        0.0795
      3 C         -12.9234  -18.5557   24.6247 C.ar    1  UNL1        0.3456
      4 O         -13.9888  -18.8529   25.6380 O.2     1  UNL1       -0.2445
      5 O         -11.6711  -19.3806   24.5892 O.2     1  UNL1       -0.4209
      6 C         -10.6057  -19.0834   23.5759 C.ar    1  UNL1        0.1514
      7 C          -9.3534  -19.9083   23.5404 C.ar    1  UNL1        0.0744
      8 C          -8.2881  -19.6110   22.5272 C.ar    1  UNL1        0.1418
      9 C          -8.4750  -18.4889   21.5495 C.ar    1  UNL1        0.0371
     10 C          -9.7273  -17.6640   21.5850 C.ar    1  UNL1        0.0059
     11 C         -10.7926  -17.9612   22.5982 C.ar    1  UNL1        0.0324
     12 O          -7.0357  -20.4359   22.4916 O.3     1  UNL1       -0.4713
     13 C          -5.7518  -19.8297   22.0079 C.3     1  UNL1        0.2525
     14 C         -12.2319  -16.0142   21.6561 C.3     1  UNL1        0.0960
     15 C         -11.7583  -15.6897   19.1223 C.3     1  UNL1        0.0861
     16 N         -12.5620  -16.3144   20.2240 N.3     1  UNL1       -0.2926
     17 H         -12.4834  -17.3248   20.1093 H       1  UNL1        0.1236
@<TRIPOS>BOND
     1    15    16    1
     2    16    14    1
     3    14     1    1
     4     1     2   ar
     5     2     3   ar
     6     3     4    2
     7     3     5   ar
     8     5     6   ar
     9     6     7   ar
    10     7     8   ar
    11     8    12    1
    12    12    13    1
    13     8     9   ar
    14     9    10   ar
    15    10    11   ar
    16    11     1   ar
    17    11     6   ar
    18    16    17    1
@<TRIPOS>MOLECULE
*****
 17 18 0 0 0
SMALL
GASTEIGER

@<TRIPOS>ATOM
      1 C         -10.8072  -18.1239   20.8069 C.ar    1  UNL1        0.0030
      2 C         -10.5549  -19.1071   19.7025 C.ar    1  UNL1        0.0795
      3 C          -9.1655  -19.6143   19.4528 C.ar    1  UNL1        0.3456
      4 O          -8.9132  -20.5975   18.3484 O.2     1  UNL1       -0.2445
      5 O          -8.0284  -19.1382   20.3074 O.2     1  UNL1       -0.4209
      6 C          -8.2807  -18.1550   21.4118 C.ar    1  UNL1        0.1514
      7 C          -7.1436  -17.6789   22.2664 C.ar    1  UNL1        0.0744
      8 C          -7.3960  -16.6957   23.3707 C.ar    1  UNL1        0.1418
      9 C          -8.7854  -16.1886   23.6205 C.ar    1  UNL1        0.0371
     10 C          -9.9224  -16.6646   22.7659 C.ar    1  UNL1        0.0059
     11 C          -9.6701  -17.6478   21.6615 C.ar    1  UNL1        0.0324
     12 O          -6.2589  -16.2196   24.2254 O.3     1  UNL1       -0.4713
     13 C          -6.5207  -15.2863   25.3701 C.3     1  UNL1        0.2525
     14 C         -12.1966  -17.6168   21.0566 C.3     1  UNL1        0.0960
     15 C         -11.8049  -15.6994   19.3478 C.3     1  UNL1        0.0861
     16 N         -12.7038  -16.4196   20.3087 N.3     1  UNL1       -0.2926
     17 H         -13.5173  -16.7279   19.7762 H       1  UNL1        0.1236
@<TRIPOS>BOND
     1    15    16    1
     2    16    14    1
     3    14     1    1
     4     1     2   ar
     5     2     3   ar
     6     3     4    2
     7     3     5   ar
     8     5     6   ar
     9     6     7   ar
    10     7     8   ar
    11     8    12    1
    12    12    13    1
    13     8     9   ar
    14     9    10   ar
    15    10    11   ar
    16    11     1   ar
    17    11     6   ar
    18    16    17    1
@<TRIPOS>MOLECULE
*****
 17 18 0 0 0
SMALL
GASTEIGER

@<TRIPOS>ATOM
      1 C          -9.6651  -16.8288   22.6405 C.ar    1  UNL1        0.0030
      2 C         -10.9079  -16.3745   21.9341 C.ar    1  UNL1        0.0795
      3 C         -11.2500  -16.9324   20.5844 C.ar    1  UNL1        0.3456
      4 O         -12.4928  -16.4780   19.8780 O.2     1  UNL1       -0.2445
      5 O         -10.3493  -17.9447   19.9411 O.2     1  UNL1       -0.4209
      6 C          -9.1064  -18.3991   20.6474 C.ar    1  UNL1        0.1514
      7 C          -8.2057  -19.4114   20.0041 C.ar    1  UNL1        0.0744
      8 C          -6.9629  -19.8658   20.7105 C.ar    1  UNL1        0.1418
      9 C          -6.6208  -19.3078   22.0602 C.ar    1  UNL1        0.0371
     10 C          -7.5215  -18.2955   22.7035 C.ar    1  UNL1        0.0059
     11 C          -8.7643  -17.8412   21.9971 C.ar    1  UNL1        0.0324
     12 O          -6.0621  -20.8781   20.0672 O.3     1  UNL1       -0.4713
     13 C          -4.5739  -20.6973   20.1177 C.3     1  UNL1        0.2525
     14 C          -9.3230  -16.2709   23.9902 C.3     1  UNL1        0.0960
     15 C          -7.0971  -15.0724   24.5891 C.3     1  UNL1        0.0861
     16 N          -8.5133  -15.0129   24.0984 N.3     1  UNL1       -0.2926
     17 H          -8.4848  -14.5999   23.1662 H       1  UNL1        0.1236
@<TRIPOS>BOND
     1    15    16    1
     2    16    14    1
     3    14     1    1
     4     1     2   ar
     5     2     3   ar
     6     3     4    2
     7     3     5   ar
     8     5     6   ar
     9     6     7   ar
    10     7     8   ar
    11     8    12    1
    12    12    13    1
    13     8     9   ar
    14     9    10   ar
    15    10    11   ar
    16    11     1   ar
    17    11     6   ar
    18    16    17    1
@<TRIPOS>MOLECULE
*****
 17 18 0 0 0
SMALL
GASTEIGER

@<TRIPOS>ATOM
      1 C          -7.6223  -16.1302   23.6117 C.ar    1  UNL1        0.0030
      2 C          -9.0136  -16.4167   23.1298 C.ar    1  UNL1        0.0795
      3 C          -9.2737  -17.6058   22.2533 C.ar    1  UNL1        0.3456
      4 O         -10.6651  -17.8923   21.7714 O.2     1  UNL1       -0.2445
      5 O          -8.1426  -18.5085   21.8587 O.2     1  UNL1       -0.4209
      6 C          -6.7513  -18.2221   22.3406 C.ar    1  UNL1        0.1514
      7 C          -5.6202  -19.1248   21.9460 C.ar    1  UNL1        0.0744
      8 C          -4.2289  -18.8383   22.4279 C.ar    1  UNL1        0.1418
      9 C          -3.9688  -17.6491   23.3044 C.ar    1  UNL1        0.0371
     10 C          -5.0999  -16.7465   23.6990 C.ar    1  UNL1        0.0059
     11 C          -6.4911  -17.0329   23.2171 C.ar    1  UNL1        0.0324
     12 O          -3.0977  -19.7410   22.0333 O.3     1  UNL1       -0.4713
     13 C          -2.2125  -19.3736   20.8795 C.3     1  UNL1        0.2525
     14 C          -7.3621  -14.9411   24.4882 C.3     1  UNL1        0.0960
     15 C          -6.5453  -15.4700   26.8971 C.3     1  UNL1        0.0861
     16 N          -7.6294  -15.0227   25.9619 N.3     1  UNL1       -0.2926
     17 H          -7.9110  -14.0895   26.2622 H       1  UNL1        0.1236
@<TRIPOS>BOND
     1    15    16    1
     2    16    14    1
     3    14     1    1
     4     1     2   ar
     5     2     3   ar
     6     3     4    2
     7     3     5   ar
     8     5     6   ar
     9     6     7   ar
    10     7     8   ar
    11     8    12    1
    12    12    13    1
    13     8     9   ar
    14     9    10   ar
    15    10    11   ar
    16    11     1   ar
    17    11     6   ar
    18    16    17    1
@<TRIPOS>MOLECULE
*****
 17 18 0 0 0
SMALL
GASTEIGER

@<TRIPOS>ATOM
      1 C          -4.5234  -18.1554   22.8397 C.ar    1  UNL1        0.0030
      2 C          -3.1710  -18.7314   22.5409 C.ar    1  UNL1        0.0795
      3 C          -3.0106  -19.7358   21.4385 C.ar    1  UNL1        0.3456
      4 O          -1.6581  -20.3118   21.1397 O.2     1  UNL1       -0.2445
      5 O          -4.2024  -20.1643   20.6349 O.2     1  UNL1       -0.4209
      6 C          -5.5549  -19.5884   20.9337 C.ar    1  UNL1        0.1514
      7 C          -6.7468  -20.0169   20.1302 C.ar    1  UNL1        0.0744
      8 C          -8.0991  -19.4409   20.4290 C.ar    1  UNL1        0.1418
      9 C          -8.2596  -18.4364   21.5314 C.ar    1  UNL1        0.0371
     10 C          -7.0677  -18.0079   22.3350 C.ar    1  UNL1        0.0059
     11 C          -5.7154  -18.5839   22.0361 C.ar    1  UNL1        0.0324
     12 O          -9.2911  -19.8694   19.6254 O.3     1  UNL1       -0.4713
     13 C         -10.5457  -19.0475   19.6481 C.3     1  UNL1        0.2525
     14 C          -4.6839  -17.1509   23.9421 C.3     1  UNL1        0.0960
     15 C          -6.2025  -15.0672   24.2616 C.3     1  UNL1        0.0861
     16 N          -5.0200  -15.7260   23.6154 N.3     1  UNL1       -0.2926
     17 H          -4.2021  -15.1673   23.8589 H       1  UNL1        0.1236
@<TRIPOS>BOND
     1    15    16    1
     2    16    14    1
     3    14     1    1
     4     1     2   ar
     5     2     3   ar
     6     3     4    2
     7     3     5   ar
     8     5     6   ar
     9     6     7   ar
    10     7     8   ar
    11     8    12    1
    12    12    13    1
    13     8     9   ar
    14     9    10   ar
    15    10    11   ar
    16    11     1   ar
    17    11     6   ar
    18    16    17    1
@<TRIPOS>MOLECULE
*****
 17 18 0 0 0
SMALL
GASTEIGER

@<TRIPOS>ATOM
      1 C         -10.2233  -19.0151   20.9777 C.ar    1  UNL1        0.0030
      2 C         -10.9926  -19.1573   22.2575 C.ar    1  UNL1        0.0795
      3 C         -10.2874  -19.5736   23.5143 C.ar    1  UNL1        0.3456
      4 O         -11.0568  -19.7157   24.7941 O.2     1  UNL1       -0.2445
      5 O          -8.8129  -19.8476   23.4912 O.2     1  UNL1       -0.4209
      6 C          -8.0435  -19.7055   22.2114 C.ar    1  UNL1        0.1514
      7 C          -6.5690  -19.9795   22.1883 C.ar    1  UNL1        0.0744
      8 C          -5.7996  -19.8374   20.9085 C.ar    1  UNL1        0.1418
      9 C          -6.5049  -19.4211   19.6518 C.ar    1  UNL1        0.0371
     10 C          -7.9794  -19.1470   19.6748 C.ar    1  UNL1        0.0059
     11 C          -8.7487  -19.2892   20.9546 C.ar    1  UNL1        0.0324
     12 O          -4.3250  -20.1114   20.8854 O.3     1  UNL1       -0.4713
     13 C          -3.4348  -19.5152   21.9352 C.3     1  UNL1        0.2525
     14 C         -10.9286  -18.5989   19.7210 C.3     1  UNL1        0.0960
     15 C         -11.2261  -16.0793   20.2807 C.3     1  UNL1        0.0861
     16 N         -11.7678  -17.3557   19.7085 N.3     1  UNL1       -0.2926
     17 H         -11.9992  -17.1664   18.7333 H       1  UNL1        0.1236
@<TRIPOS>BOND
     1    15    16    1
     2    16    14    1
     3    14     1    1
     4     1     2   ar
     5     2     3   ar
     6     3     4    2
     7     3     5   ar
     8     5     6   ar
     9     6     7   ar
    10     7     8   ar
    11     8    12    1
    12    12    13    1
    13     8     9   ar
    14     9    10   ar
    15    10    11   ar
    16    11     1   ar
    17    11     6   ar
    18    16    17    1
