@<TRIPOS>MOLECULE
*****
 30 33 0 0 0
SMALL
GASTEIGER

@<TRIPOS>ATOM
      1 C          -3.9171  -19.0619   19.3549 C.3     1  UNL1        0.0897
      2 O          -5.6923  -21.2248   20.4368 O.2     1  UNL1       -0.2701
      3 C          -6.2091  -19.8221   20.3134 C.2     1  UNL1        0.2458
      4 N          -5.3215  -18.7407   19.7725 N.am    1  UNL1       -0.3009
      5 H          -5.6607  -17.8200   19.6915 H       1  UNL1        0.1497
      6 C          -7.6136  -19.5008   20.7311 C.ar    1  UNL1        0.0535
      7 C          -8.6814  -19.3186   19.6936 C.ar    1  UNL1        0.0061
      8 C         -10.0858  -18.9973   20.1111 C.ar    1  UNL1        0.0192
      9 C         -10.4224  -18.8582   21.5663 C.ar    1  UNL1        0.0813
     10 N         -11.8268  -18.5369   21.9838 N.ar    1  UNL1       -0.2438
     11 C         -12.1633  -18.3977   23.4389 C.ar    1  UNL1        0.0988
     12 C         -11.0954  -18.5799   24.4765 C.ar    1  UNL1        0.0207
     13 C          -9.6910  -18.9012   24.0589 C.ar    1  UNL1        0.0031
     14 C          -9.3545  -19.0403   22.6038 C.ar    1  UNL1        0.0178
     15 C          -7.9501  -19.3617   22.1862 C.ar    1  UNL1        0.0060
     16 C          -2.9716  -17.9561   18.9899 C.3     1  UNL1        0.0227
     17 C          -1.5584  -17.9815   19.4919 C.3     1  UNL1        0.0191
     18 C          -1.2753  -17.7558   20.9475 C.3     1  UNL1        0.0723
     19 N          -2.3825  -17.3432   21.8717 N.3     1  UNL1       -0.2698
     20 C          -3.0999  -18.3753   22.6902 C.3     1  UNL1        0.0938
     21 C          -4.2071  -17.9629   23.6144 C.3     1  UNL1        0.1081
     22 N          -4.5968  -16.5183   23.7200 N.pl3   1  UNL1       -0.3046
     23 C          -3.8793  -15.4861   22.9014 C.3     1  UNL1        0.1081
     24 C          -2.7722  -15.8986   21.9773 C.3     1  UNL1        0.0938
     25 C          -5.7040  -16.1057   24.6442 C.ar    1  UNL1        0.0479
     26 C          -7.1000  -15.9482   24.1186 C.ar    1  UNL1        0.0145
     27 C          -8.2072  -15.5357   25.0427 C.ar    1  UNL1        0.0013
     28 C          -7.9183  -15.2807   26.4924 C.ar    1  UNL1        0.0001
     29 C          -6.5222  -15.4382   27.0180 C.ar    1  UNL1        0.0013
     30 C          -5.4151  -15.8508   26.0938 C.ar    1  UNL1        0.0145
@<TRIPOS>BOND
     1     2     3    2
     2     3     4   am
     3     4     1    1
     4     1    16    1
     5    16    17    1
     6    17    18    1
     7    18    19    1
     8    19    20    1
     9    20    21    1
    10    21    22    1
    11    22    25    1
    12    25    26   ar
    13    26    27   ar
    14    27    28   ar
    15    28    29   ar
    16    29    30   ar
    17    22    23    1
    18    23    24    1
    19     3     6    1
    20     6     7   ar
    21     7     8   ar
    22     8     9   ar
    23     9    10   ar
    24    10    11   ar
    25    11    12   ar
    26    12    13   ar
    27    13    14   ar
    28    14    15   ar
    29    24    19    1
    30    15     6   ar
    31    30    25   ar
    32    14     9   ar
    33     4     5    1
@<TRIPOS>MOLECULE
*****
 30 33 0 0 0
SMALL
GASTEIGER

@<TRIPOS>ATOM
      1 C          -9.2140  -20.2092   19.2022 C.3     1  UNL1        0.0897
      2 O          -8.1092  -19.6845   21.9415 O.2     1  UNL1       -0.2701
      3 C          -7.1996  -19.6622   20.7491 C.2     1  UNL1        0.2458
      4 N          -7.7520  -19.9245   19.3794 N.am    1  UNL1       -0.3009
      5 H          -7.1549  -19.9099   18.5967 H       1  UNL1        0.1497
      6 C          -5.7375  -19.3776   20.9262 C.ar    1  UNL1        0.0535
      7 C          -5.0930  -19.5701   22.2669 C.ar    1  UNL1        0.0061
      8 C          -3.6310  -19.2855   22.4441 C.ar    1  UNL1        0.0192
      9 C          -2.8133  -18.8083   21.2806 C.ar    1  UNL1        0.0813
     10 N          -1.3513  -18.5237   21.4577 N.ar    1  UNL1       -0.2438
     11 C          -0.5338  -18.0465   20.2942 C.ar    1  UNL1        0.0988
     12 C          -1.1782  -17.8540   18.9535 C.ar    1  UNL1        0.0207
     13 C          -2.6403  -18.1386   18.7763 C.ar    1  UNL1        0.0031
     14 C          -3.4578  -18.6158   19.9398 C.ar    1  UNL1        0.0178
     15 C          -4.9199  -18.9004   19.7627 C.ar    1  UNL1        0.0060
     16 C         -10.2149  -19.0991   19.3286 C.3     1  UNL1        0.0227
     17 C         -11.4446  -19.2899   20.1660 C.3     1  UNL1        0.0191
     18 C         -11.8620  -18.2269   21.1386 C.3     1  UNL1        0.0723
     19 N         -10.8732  -17.6860   22.1285 N.3     1  UNL1       -0.2698
     20 C          -9.9191  -16.6029   21.7201 C.3     1  UNL1        0.0938
     21 C          -8.9304  -16.0620   22.7098 C.3     1  UNL1        0.1081
     22 N          -8.8957  -16.6041   24.1080 N.pl3   1  UNL1       -0.3046
     23 C          -9.8498  -17.6872   24.5164 C.3     1  UNL1        0.1081
     24 C         -10.8385  -18.2281   23.5266 C.3     1  UNL1        0.0938
     25 C          -7.9069  -16.0632   25.0979 C.ar    1  UNL1        0.0479
     26 C          -8.3015  -15.8917   26.5348 C.ar    1  UNL1        0.0145
     27 C          -7.3128  -15.3508   27.5247 C.ar    1  UNL1        0.0013
     28 C          -5.9294  -14.9814   27.0776 C.ar    1  UNL1        0.0001
     29 C          -5.5348  -15.1528   25.6406 C.ar    1  UNL1        0.0013
     30 C          -6.5236  -15.6938   24.6507 C.ar    1  UNL1        0.0145
@<TRIPOS>BOND
     1     2     3    2
     2     3     4   am
     3     4     1    1
     4     1    16    1
     5    16    17    1
     6    17    18    1
     7    18    19    1
     8    19    20    1
     9    20    21    1
    10    21    22    1
    11    22    25    1
    12    25    26   ar
    13    26    27   ar
    14    27    28   ar
    15    28    29   ar
    16    29    30   ar
    17    22    23    1
    18    23    24    1
    19     3     6    1
    20     6     7   ar
    21     7     8   ar
    22     8     9   ar
    23     9    10   ar
    24    10    11   ar
    25    11    12   ar
    26    12    13   ar
    27    13    14   ar
    28    14    15   ar
    29    24    19    1
    30    15     6   ar
    31    30    25   ar
    32    14     9   ar
    33     4     5    1
@<TRIPOS>MOLECULE
*****
 30 33 0 0 0
SMALL
GASTEIGER

@<TRIPOS>ATOM
      1 C         -12.7053  -16.7665   21.8066 C.3     1  UNL1        0.0897
      2 O         -10.0221  -16.1979   20.5913 O.2     1  UNL1       -0.2701
      3 C         -10.1932  -16.1634   22.0811 C.2     1  UNL1        0.2458
      4 N         -11.5348  -16.4478   22.6887 N.am    1  UNL1       -0.3009
      5 H         -11.6471  -16.4251   23.6666 H       1  UNL1        0.1497
      6 C          -9.0226  -15.8447   22.9633 C.ar    1  UNL1        0.0535
      7 C          -7.7087  -15.4542   22.3540 C.ar    1  UNL1        0.0061
      8 C          -6.5382  -15.1354   23.2361 C.ar    1  UNL1        0.0192
      9 C          -6.6815  -15.2071   24.7276 C.ar    1  UNL1        0.0813
     10 N          -5.5110  -14.8883   25.6097 N.ar    1  UNL1       -0.2438
     11 C          -5.6544  -14.9599   27.1011 C.ar    1  UNL1        0.0988
     12 C          -6.9683  -15.3504   27.7104 C.ar    1  UNL1        0.0207
     13 C          -8.1388  -15.6692   26.8282 C.ar    1  UNL1        0.0031
     14 C          -7.9954  -15.5975   25.3369 C.ar    1  UNL1        0.0178
     15 C          -9.1660  -15.9163   24.4547 C.ar    1  UNL1        0.0060
     16 C         -12.8561  -18.1425   21.2286 C.3     1  UNL1        0.0227
     17 C         -11.8564  -19.2098   21.5622 C.3     1  UNL1        0.0191
     18 C         -10.8722  -19.6658   20.5262 C.3     1  UNL1        0.0723
     19 N          -9.4002  -19.5120   20.7710 N.3     1  UNL1       -0.2698
     20 C          -8.4445  -19.5038   19.6150 C.3     1  UNL1        0.0938
     21 C          -6.9727  -19.3501   19.8597 C.3     1  UNL1        0.1081
     22 N          -6.4565  -19.2044   21.2606 N.pl3   1  UNL1       -0.3046
     23 C          -7.4123  -19.2126   22.4166 C.3     1  UNL1        0.1081
     24 C          -8.8841  -19.3663   22.1719 C.3     1  UNL1        0.0938
     25 C          -4.9846  -19.0506   21.5054 C.ar    1  UNL1        0.0479
     26 C          -4.4991  -18.2858   22.7009 C.ar    1  UNL1        0.0145
     27 C          -3.0272  -18.1320   22.9458 C.ar    1  UNL1        0.0013
     28 C          -2.0409  -18.7430   21.9951 C.ar    1  UNL1        0.0001
     29 C          -2.5264  -19.5079   20.7995 C.ar    1  UNL1        0.0013
     30 C          -3.9983  -19.6617   20.5547 C.ar    1  UNL1        0.0145
@<TRIPOS>BOND
     1     2     3    2
     2     3     4   am
     3     4     1    1
     4     1    16    1
     5    16    17    1
     6    17    18    1
     7    18    19    1
     8    19    20    1
     9    20    21    1
    10    21    22    1
    11    22    25    1
    12    25    26   ar
    13    26    27   ar
    14    27    28   ar
    15    28    29   ar
    16    29    30   ar
    17    22    23    1
    18    23    24    1
    19     3     6    1
    20     6     7   ar
    21     7     8   ar
    22     8     9   ar
    23     9    10   ar
    24    10    11   ar
    25    11    12   ar
    26    12    13   ar
    27    13    14   ar
    28    14    15   ar
    29    24    19    1
    30    15     6   ar
    31    30    25   ar
    32    14     9   ar
    33     4     5    1
@<TRIPOS>MOLECULE
*****
 30 33 0 0 0
SMALL
GASTEIGER

@<TRIPOS>ATOM
      1 C         -18.1181   -6.4710   19.4739 C.3     1  UNL1        0.0897
      2 O         -17.4474   -4.3509   17.4601 O.2     1  UNL1       -0.2701
      3 C         -16.4874   -4.6616   18.5700 C.2     1  UNL1        0.2458
      4 N         -16.8228   -5.7217   19.5769 N.am    1  UNL1       -0.3009
      5 H         -16.1927   -5.9256   20.3053 H       1  UNL1        0.1497
      6 C         -15.1920   -3.9123   18.6730 C.ar    1  UNL1        0.0535
      7 C         -14.4894   -3.8073   19.9941 C.ar    1  UNL1        0.0061
      8 C         -13.1941   -3.0580   20.0972 C.ar    1  UNL1        0.0192
      9 C         -12.6013   -2.4136   18.8792 C.ar    1  UNL1        0.0813
     10 N         -11.3060   -1.6643   18.9823 N.ar    1  UNL1       -0.2438
     11 C         -10.7134   -1.0200   17.7643 C.ar    1  UNL1        0.0988
     12 C         -11.4160   -1.1250   16.4432 C.ar    1  UNL1        0.0207
     13 C         -12.7113   -1.8743   16.3401 C.ar    1  UNL1        0.0031
     14 C         -13.3040   -2.5186   17.5581 C.ar    1  UNL1        0.0178
     15 C         -14.5994   -3.2680   17.4550 C.ar    1  UNL1        0.0060
     16 C         -18.1311   -7.9662   19.5926 C.3     1  UNL1        0.0227
     17 C         -18.3848   -8.8127   18.3806 C.3     1  UNL1        0.0191
     18 C         -17.2372   -9.2602   17.5246 C.3     1  UNL1        0.0723
     19 N         -15.9598   -8.4739   17.5119 N.3     1  UNL1       -0.2698
     20 C         -14.9630   -8.6446   18.6197 C.3     1  UNL1        0.0938
     21 C         -13.6856   -7.8584   18.6070 C.3     1  UNL1        0.1081
     22 N         -13.4051   -6.9014   17.4865 N.pl3   1  UNL1       -0.3046
     23 C         -14.4020   -6.7307   16.3787 C.3     1  UNL1        0.1081
     24 C         -15.6793   -7.5169   16.3914 C.3     1  UNL1        0.0938
     25 C         -12.1277   -6.1151   17.4738 C.ar    1  UNL1        0.0479
     26 C         -11.3542   -5.9205   18.7441 C.ar    1  UNL1        0.0145
     27 C         -10.0769   -5.1342   18.7315 C.ar    1  UNL1        0.0013
     28 C          -9.5730   -4.5426   17.4484 C.ar    1  UNL1        0.0001
     29 C         -10.3465   -4.7373   16.1781 C.ar    1  UNL1        0.0013
     30 C         -11.6239   -5.5236   16.1908 C.ar    1  UNL1        0.0145
@<TRIPOS>BOND
     1     2     3    2
     2     3     4   am
     3     4     1    1
     4     1    16    1
     5    16    17    1
     6    17    18    1
     7    18    19    1
     8    19    20    1
     9    20    21    1
    10    21    22    1
    11    22    25    1
    12    25    26   ar
    13    26    27   ar
    14    27    28   ar
    15    28    29   ar
    16    29    30   ar
    17    22    23    1
    18    23    24    1
    19     3     6    1
    20     6     7   ar
    21     7     8   ar
    22     8     9   ar
    23     9    10   ar
    24    10    11   ar
    25    11    12   ar
    26    12    13   ar
    27    13    14   ar
    28    14    15   ar
    29    24    19    1
    30    15     6   ar
    31    30    25   ar
    32    14     9   ar
    33     4     5    1
@<TRIPOS>MOLECULE
*****
 30 33 0 0 0
SMALL
GASTEIGER

@<TRIPOS>ATOM
      1 C         -13.5838    0.2867   17.3940 C.3     1  UNL1        0.0897
      2 O         -11.5056   -1.1440   19.0170 O.2     1  UNL1       -0.2701
      3 C         -12.2658   -1.8809   17.9545 C.2     1  UNL1        0.2458
      4 N         -13.3048   -1.1655   17.1430 N.am    1  UNL1       -0.3009
      5 H         -13.8038   -1.6492   16.4456 H       1  UNL1        0.1497
      6 C         -11.9869   -3.3332   17.7034 C.ar    1  UNL1        0.0535
      7 C         -12.7392   -4.0673   16.6333 C.ar    1  UNL1        0.0061
      8 C         -12.4603   -5.5196   16.3822 C.ar    1  UNL1        0.0192
      9 C         -11.4291   -6.2379   17.2012 C.ar    1  UNL1        0.0813
     10 N         -11.1502   -7.6901   16.9501 N.ar    1  UNL1       -0.2438
     11 C         -10.1190   -8.4083   17.7691 C.ar    1  UNL1        0.0988
     12 C          -9.3667   -7.6742   18.8392 C.ar    1  UNL1        0.0207
     13 C          -9.6455   -6.2219   19.0903 C.ar    1  UNL1        0.0031
     14 C         -10.6767   -5.5038   18.2713 C.ar    1  UNL1        0.0178
     15 C         -10.9557   -4.0514   18.5224 C.ar    1  UNL1        0.0060
     16 C         -14.5684    0.6895   18.4515 C.3     1  UNL1        0.0227
     17 C         -15.6573   -0.2570   18.8619 C.3     1  UNL1        0.0191
     18 C         -15.4220   -1.2330   19.9764 C.3     1  UNL1        0.0723
     19 N         -15.5348   -2.7065   19.7192 N.3     1  UNL1       -0.2698
     20 C         -14.4894   -3.6425   20.2492 C.3     1  UNL1        0.0938
     21 C         -14.6021   -5.1159   19.9920 C.3     1  UNL1        0.1081
     22 N         -15.7602   -5.6534   19.2048 N.pl3   1  UNL1       -0.3046
     23 C         -16.8056   -4.7174   18.6747 C.3     1  UNL1        0.1081
     24 C         -16.6929   -3.2440   18.9319 C.3     1  UNL1        0.0938
     25 C         -15.8730   -7.1269   18.9476 C.ar    1  UNL1        0.0479
     26 C         -16.9861   -7.9144   19.5728 C.ar    1  UNL1        0.0145
     27 C         -17.0989   -9.3878   19.3156 C.ar    1  UNL1        0.0013
     28 C         -16.0985  -10.0739   18.4332 C.ar    1  UNL1        0.0001
     29 C         -14.9854   -9.2865   17.8080 C.ar    1  UNL1        0.0013
     30 C         -14.8726   -7.8129   18.0652 C.ar    1  UNL1        0.0145
@<TRIPOS>BOND
     1     2     3    2
     2     3     4   am
     3     4     1    1
     4     1    16    1
     5    16    17    1
     6    17    18    1
     7    18    19    1
     8    19    20    1
     9    20    21    1
    10    21    22    1
    11    22    25    1
    12    25    26   ar
    13    26    27   ar
    14    27    28   ar
    15    28    29   ar
    16    29    30   ar
    17    22    23    1
    18    23    24    1
    19     3     6    1
    20     6     7   ar
    21     7     8   ar
    22     8     9   ar
    23     9    10   ar
    24    10    11   ar
    25    11    12   ar
    26    12    13   ar
    27    13    14   ar
    28    14    15   ar
    29    24    19    1
    30    15     6   ar
    31    30    25   ar
    32    14     9   ar
    33     4     5    1
@<TRIPOS>MOLECULE
*****
 30 33 0 0 0
SMALL
GASTEIGER

@<TRIPOS>ATOM
      1 C          -4.8115  -15.7716   24.9515 C.3     1  UNL1        0.0897
      2 O          -3.6576  -18.3137   23.8533 O.2     1  UNL1       -0.2701
      3 C          -4.9418  -17.7721   23.2990 C.2     1  UNL1        0.2458
      4 N          -5.5188  -16.5010   23.8481 N.am    1  UNL1       -0.3009
      5 H          -6.3617  -16.1456   23.4843 H       1  UNL1        0.1497
      6 C          -5.6492  -18.5016   22.1955 C.ar    1  UNL1        0.0535
      7 C          -4.8815  -19.4184   21.2900 C.ar    1  UNL1        0.0061
      8 C          -5.5888  -20.1479   20.1866 C.ar    1  UNL1        0.0192
      9 C          -7.0639  -19.9605   19.9887 C.ar    1  UNL1        0.0813
     10 N          -7.7712  -20.6900   18.8853 N.ar    1  UNL1       -0.2438
     11 C          -9.2462  -20.5026   18.6874 C.ar    1  UNL1        0.0988
     12 C         -10.0139  -19.5857   19.5929 C.ar    1  UNL1        0.0207
     13 C          -9.3066  -18.8563   20.6963 C.ar    1  UNL1        0.0031
     14 C          -7.8316  -19.0437   20.8942 C.ar    1  UNL1        0.0178
     15 C          -7.1242  -18.3142   21.9977 C.ar    1  UNL1        0.0060
     16 C          -5.6023  -15.0217   25.9822 C.3     1  UNL1        0.0227
     17 C          -6.0090  -15.7013   27.2560 C.3     1  UNL1        0.0191
     18 C          -7.3939  -16.2596   27.3992 C.3     1  UNL1        0.0723
     19 N          -8.2894  -16.3608   26.2000 N.3     1  UNL1       -0.2698
     20 C          -8.4902  -15.1692   25.3112 C.3     1  UNL1        0.0938
     21 C          -9.3856  -15.2704   24.1121 C.3     1  UNL1        0.1081
     22 N         -10.0802  -16.5631   23.8018 N.pl3   1  UNL1       -0.3046
     23 C          -9.8794  -17.7547   24.6905 C.3     1  UNL1        0.1081
     24 C          -8.9839  -17.6535   25.8896 C.3     1  UNL1        0.0938
     25 C         -10.9757  -16.6643   22.6026 C.ar    1  UNL1        0.0479
     26 C         -10.6738  -15.8626   21.3713 C.ar    1  UNL1        0.0145
     27 C         -11.5692  -15.9638   20.1722 C.ar    1  UNL1        0.0013
     28 C         -12.7666  -16.8668   20.2043 C.ar    1  UNL1        0.0001
     29 C         -13.0685  -17.6685   21.4355 C.ar    1  UNL1        0.0013
     30 C         -12.1730  -17.5673   22.6347 C.ar    1  UNL1        0.0145
@<TRIPOS>BOND
     1     2     3    2
     2     3     4   am
     3     4     1    1
     4     1    16    1
     5    16    17    1
     6    17    18    1
     7    18    19    1
     8    19    20    1
     9    20    21    1
    10    21    22    1
    11    22    25    1
    12    25    26   ar
    13    26    27   ar
    14    27    28   ar
    15    28    29   ar
    16    29    30   ar
    17    22    23    1
    18    23    24    1
    19     3     6    1
    20     6     7   ar
    21     7     8   ar
    22     8     9   ar
    23     9    10   ar
    24    10    11   ar
    25    11    12   ar
    26    12    13   ar
    27    13    14   ar
    28    14    15   ar
    29    24    19    1
    30    15     6   ar
    31    30    25   ar
    32    14     9   ar
    33     4     5    1
@<TRIPOS>MOLECULE
*****
 30 33 0 0 0
SMALL
GASTEIGER

@<TRIPOS>ATOM
      1 C           5.8470   -2.8195   18.2148 C.3     1  UNL1        0.0897
      2 O           4.1380   -0.9429   16.6156 O.2     1  UNL1       -0.2701
      3 C           3.8469   -1.1678   18.0698 C.2     1  UNL1        0.2458
      4 N           4.7014   -2.1061   18.8694 N.am    1  UNL1       -0.3009
      5 H           4.5104   -2.2536   19.8238 H       1  UNL1        0.1497
      6 C           2.7013   -0.4543   18.7244 C.ar    1  UNL1        0.0535
      7 C           1.9287   -1.1247   19.8215 C.ar    1  UNL1        0.0061
      8 C           0.7831   -0.4113   20.4761 C.ar    1  UNL1        0.0192
      9 C           0.4100    0.9726   20.0337 C.ar    1  UNL1        0.0813
     10 N          -0.7356    1.6860   20.6883 N.ar    1  UNL1       -0.2438
     11 C          -1.1086    3.0699   20.2459 C.ar    1  UNL1        0.0988
     12 C          -0.3360    3.7403   19.1488 C.ar    1  UNL1        0.0207
     13 C           0.8096    3.0269   18.4941 C.ar    1  UNL1        0.0031
     14 C           1.1826    1.6430   18.9366 C.ar    1  UNL1        0.0178
     15 C           2.3283    0.9296   18.2820 C.ar    1  UNL1        0.0060
     16 C           7.2225   -2.2222   18.2523 C.3     1  UNL1        0.0227
     17 C           8.1436   -2.5317   19.3949 C.3     1  UNL1        0.0191
     18 C           8.2347   -1.5920   20.5606 C.3     1  UNL1        0.0723
     19 N           6.9975   -0.9248   21.0845 N.3     1  UNL1       -0.2698
     20 C           6.1206   -1.6385   22.0701 C.3     1  UNL1        0.0938
     21 C           4.8835   -0.9714   22.5940 C.3     1  UNL1        0.1081
     22 N           4.5233    0.4095   22.1322 N.pl3   1  UNL1       -0.3046
     23 C           5.4003    1.1233   21.1465 C.3     1  UNL1        0.1081
     24 C           6.6373    0.4561   20.6226 C.3     1  UNL1        0.0938
     25 C           3.2862    1.0767   22.6561 C.ar    1  UNL1        0.0479
     26 C           2.3879    0.3476   23.6108 C.ar    1  UNL1        0.0145
     27 C           1.1508    1.0148   24.1346 C.ar    1  UNL1        0.0013
     28 C           0.8120    2.4111   23.7038 C.ar    1  UNL1        0.0001
     29 C           1.7103    3.1402   22.7491 C.ar    1  UNL1        0.0013
     30 C           2.9474    2.4730   22.2252 C.ar    1  UNL1        0.0145
@<TRIPOS>BOND
     1     2     3    2
     2     3     4   am
     3     4     1    1
     4     1    16    1
     5    16    17    1
     6    17    18    1
     7    18    19    1
     8    19    20    1
     9    20    21    1
    10    21    22    1
    11    22    25    1
    12    25    26   ar
    13    26    27   ar
    14    27    28   ar
    15    28    29   ar
    16    29    30   ar
    17    22    23    1
    18    23    24    1
    19     3     6    1
    20     6     7   ar
    21     7     8   ar
    22     8     9   ar
    23     9    10   ar
    24    10    11   ar
    25    11    12   ar
    26    12    13   ar
    27    13    14   ar
    28    14    15   ar
    29    24    19    1
    30    15     6   ar
    31    30    25   ar
    32    14     9   ar
    33     4     5    1
@<TRIPOS>MOLECULE
*****
 30 33 0 0 0
SMALL
GASTEIGER

@<TRIPOS>ATOM
      1 C          -0.6614    3.1900   19.9804 C.3     1  UNL1        0.0897
      2 O          -0.4315    0.2648   20.6052 O.2     1  UNL1       -0.2701
      3 C           0.6212    0.9398   19.7768 C.2     1  UNL1        0.2458
      4 N           0.5062    2.4024   19.4644 N.am    1  UNL1       -0.3009
      5 H           1.1971    2.8454   18.9206 H       1  UNL1        0.1497
      6 C           1.7889    0.1521   19.2607 C.ar    1  UNL1        0.0535
      7 C           2.6758    0.7338   18.2001 C.ar    1  UNL1        0.0061
      8 C           3.8435   -0.0538   17.6840 C.ar    1  UNL1        0.0192
      9 C           4.1242   -1.4230   18.2286 C.ar    1  UNL1        0.0813
     10 N           5.2918   -2.2105   17.7125 N.ar    1  UNL1       -0.2438
     11 C           5.5725   -3.5797   18.2571 C.ar    1  UNL1        0.0988
     12 C           4.6855   -4.1613   19.3177 C.ar    1  UNL1        0.0207
     13 C           3.5178   -3.3738   19.8338 C.ar    1  UNL1        0.0031
     14 C           3.2372   -2.0046   19.2892 C.ar    1  UNL1        0.0178
     15 C           2.0695   -1.2170   19.8053 C.ar    1  UNL1        0.0060
     16 C          -0.9658    3.2049   21.4491 C.3     1  UNL1        0.0227
     17 C          -0.1039    3.9985   22.3857 C.3     1  UNL1        0.0191
     18 C           1.3764    4.0783   22.1569 C.3     1  UNL1        0.0723
     19 N           2.2127    2.8345   22.2171 N.3     1  UNL1       -0.2698
     20 C           3.4895    2.7506   21.4343 C.3     1  UNL1        0.0938
     21 C           4.3258    1.5069   21.4944 C.3     1  UNL1        0.1081
     22 N           3.8853    0.3470   22.3373 N.pl3   1  UNL1       -0.3046
     23 C           2.6085    0.4308   23.1200 C.3     1  UNL1        0.1081
     24 C           1.7722    1.6746   23.0599 C.3     1  UNL1        0.0938
     25 C           4.7216   -0.8969   22.3974 C.ar    1  UNL1        0.0479
     26 C           6.0021   -0.9779   21.6204 C.ar    1  UNL1        0.0145
     27 C           6.8384   -2.2217   21.6805 C.ar    1  UNL1        0.0013
     28 C           6.3942   -3.3844   22.5176 C.ar    1  UNL1        0.0001
     29 C           5.1137   -3.3034   23.2946 C.ar    1  UNL1        0.0013
     30 C           4.2774   -2.0595   23.2345 C.ar    1  UNL1        0.0145
@<TRIPOS>BOND
     1     2     3    2
     2     3     4   am
     3     4     1    1
     4     1    16    1
     5    16    17    1
     6    17    18    1
     7    18    19    1
     8    19    20    1
     9    20    21    1
    10    21    22    1
    11    22    25    1
    12    25    26   ar
    13    26    27   ar
    14    27    28   ar
    15    28    29   ar
    16    29    30   ar
    17    22    23    1
    18    23    24    1
    19     3     6    1
    20     6     7   ar
    21     7     8   ar
    22     8     9   ar
    23     9    10   ar
    24    10    11   ar
    25    11    12   ar
    26    12    13   ar
    27    13    14   ar
    28    14    15   ar
    29    24    19    1
    30    15     6   ar
    31    30    25   ar
    32    14     9   ar
    33     4     5    1
@<TRIPOS>MOLECULE
*****
 30 33 0 0 0
SMALL
GASTEIGER

@<TRIPOS>ATOM
      1 C         -16.7605   -0.2832   20.2385 C.3     1  UNL1        0.0897
      2 O         -14.1152   -0.4351   18.8318 O.2     1  UNL1       -0.2701
      3 C         -14.6929   -1.6597   19.4770 C.2     1  UNL1        0.2458
      4 N         -16.0156   -1.5838   20.1804 N.am    1  UNL1       -0.3009
      5 H         -16.3947   -2.3876   20.6039 H       1  UNL1        0.1497
      6 C         -13.9479   -2.9604   19.4190 C.ar    1  UNL1        0.0535
      7 C         -14.6567   -4.2452   19.7302 C.ar    1  UNL1        0.0061
      8 C         -13.9118   -5.5458   19.6721 C.ar    1  UNL1        0.0192
      9 C         -12.4580   -5.5617   19.3028 C.ar    1  UNL1        0.0813
     10 N         -11.7131   -6.8623   19.2448 N.ar    1  UNL1       -0.2438
     11 C         -10.2593   -6.8781   18.8755 C.ar    1  UNL1        0.0988
     12 C          -9.5505   -5.5933   18.5643 C.ar    1  UNL1        0.0207
     13 C         -10.2954   -4.2927   18.6223 C.ar    1  UNL1        0.0031
     14 C         -11.7492   -4.2769   18.9916 C.ar    1  UNL1        0.0178
     15 C         -12.4942   -2.9762   19.0497 C.ar    1  UNL1        0.0060
     16 C         -17.4563    0.2379   19.0161 C.3     1  UNL1        0.0227
     17 C         -18.5035   -0.5942   18.3371 C.3     1  UNL1        0.0191
     18 C         -18.1115   -1.5576   17.2562 C.3     1  UNL1        0.0723
     19 N         -17.9563   -3.0159   17.5714 N.3     1  UNL1       -0.2698
     20 C         -16.9618   -3.8452   16.8143 C.3     1  UNL1        0.0938
     21 C         -16.8066   -5.3034   17.1294 C.3     1  UNL1        0.1081
     22 N         -17.6460   -5.9324   18.2017 N.pl3   1  UNL1       -0.3046
     23 C         -18.6405   -5.1031   18.9589 C.3     1  UNL1        0.1081
     24 C         -18.7957   -3.6449   18.6437 C.3     1  UNL1        0.0938
     25 C         -17.4908   -7.3907   18.5169 C.ar    1  UNL1        0.0479
     26 C         -18.0885   -8.4225   17.6069 C.ar    1  UNL1        0.0145
     27 C         -17.9334   -9.8807   17.9220 C.ar    1  UNL1        0.0013
     28 C         -17.1805  -10.3073   19.1473 C.ar    1  UNL1        0.0001
     29 C         -16.5828   -9.2756   20.0574 C.ar    1  UNL1        0.0013
     30 C         -16.7380   -7.8173   19.7422 C.ar    1  UNL1        0.0145
@<TRIPOS>BOND
     1     2     3    2
     2     3     4   am
     3     4     1    1
     4     1    16    1
     5    16    17    1
     6    17    18    1
     7    18    19    1
     8    19    20    1
     9    20    21    1
    10    21    22    1
    11    22    25    1
    12    25    26   ar
    13    26    27   ar
    14    27    28   ar
    15    28    29   ar
    16    29    30   ar
    17    22    23    1
    18    23    24    1
    19     3     6    1
    20     6     7   ar
    21     7     8   ar
    22     8     9   ar
    23     9    10   ar
    24    10    11   ar
    25    11    12   ar
    26    12    13   ar
    27    13    14   ar
    28    14    15   ar
    29    24    19    1
    30    15     6   ar
    31    30    25   ar
    32    14     9   ar
    33     4     5    1
