@<TRIPOS>MOLECULE
*****
 17 18 0 0 0
SMALL
GASTEIGER

@<TRIPOS>ATOM
      1 C         -10.3111  -19.0249   20.7628 C.ar    1  UNL1        0.1386
      2 C          -9.7928  -19.5597   19.4607 C.ar    1  UNL1        0.0370
      3 C          -8.3156  -19.7023   19.2432 C.ar    1  UNL1        0.0061
      4 C          -7.3565  -19.3101   20.3278 C.ar    1  UNL1        0.0341
      5 C          -7.8747  -18.7753   21.6299 C.ar    1  UNL1        0.0061
      6 C          -9.3520  -18.6327   21.8474 C.ar    1  UNL1        0.0370
      7 C          -5.8792  -19.4527   20.1104 C.ar    1  UNL1        0.1406
      8 N          -5.0563  -20.6688   20.4166 N.ar    1  UNL1       -0.2254
      9 C          -3.6339  -20.3720   20.0440 C.ar    1  UNL1        0.1189
     10 C          -3.5778  -18.9723   19.5074 C.ar    1  UNL1        0.0945
     11 N          -4.9655  -18.4042   19.5485 N.ar    1  UNL1       -0.3361
     12 H          -5.2300  -17.5016   19.2577 H       1  UNL1        0.1674
     13 O         -11.7884  -18.8823   20.9802 O.3     1  UNL1       -0.4755
     14 C         -12.3770  -17.5335   21.2704 C.3     1  UNL1        0.2054
     15 C         -12.6666  -17.1303   22.6859 C.3     1  UNL1        0.0473
     16 C         -14.2046  -18.1760   24.5000 C.3     1  UNL1        0.0001
     17 C         -12.9185  -18.1795   23.7279 C.3     1  UNL1        0.0038
@<TRIPOS>BOND
     1    16    17    1
     2    17    15    1
     3    15    14    1
     4    14    13    1
     5    13     1    1
     6     1     2   ar
     7     2     3   ar
     8     3     4   ar
     9     4     7    1
    10     7     8   ar
    11     8     9   ar
    12     9    10   ar
    13    10    11   ar
    14     4     5   ar
    15     5     6   ar
    16     6     1   ar
    17    11     7   ar
    18    11    12    1
@<TRIPOS>MOLECULE
*****
 17 18 0 0 0
SMALL
GASTEIGER

@<TRIPOS>ATOM
      1 C          -9.7923  -18.4878   23.7867 C.ar    1  UNL1        0.1386
      2 C          -8.9544  -17.2891   23.4539 C.ar    1  UNL1        0.0370
      3 C          -7.6816  -17.4557   22.6777 C.ar    1  UNL1        0.0061
      4 C          -7.2469  -18.8211   22.2344 C.ar    1  UNL1        0.0341
      5 C          -8.0849  -20.0199   22.5671 C.ar    1  UNL1        0.0061
      6 C          -9.3576  -19.8532   23.3433 C.ar    1  UNL1        0.0370
      7 C          -5.9742  -18.9878   21.4582 C.ar    1  UNL1        0.1406
      8 N          -4.6780  -19.5196   21.9939 N.ar    1  UNL1       -0.2254
      9 C          -3.6769  -19.5124   20.8768 C.ar    1  UNL1        0.1189
     10 C          -4.3544  -18.9761   19.6507 C.ar    1  UNL1        0.0945
     11 N          -5.7742  -18.6519   20.0100 N.ar    1  UNL1       -0.3361
     12 H          -6.4553  -18.2833   19.4021 H       1  UNL1        0.1674
     13 O         -11.0650  -18.3211   24.5628 O.3     1  UNL1       -0.4755
     14 C         -12.3826  -18.2961   23.8464 C.3     1  UNL1        0.2054
     15 C         -12.5993  -17.3437   22.7080 C.3     1  UNL1        0.0473
     16 C         -11.2875  -17.6859   20.4917 C.3     1  UNL1        0.0001
     17 C         -12.5455  -17.8408   21.2937 C.3     1  UNL1        0.0038
@<TRIPOS>BOND
     1    16    17    1
     2    17    15    1
     3    15    14    1
     4    14    13    1
     5    13     1    1
     6     1     2   ar
     7     2     3   ar
     8     3     4   ar
     9     4     7    1
    10     7     8   ar
    11     8     9   ar
    12     9    10   ar
    13    10    11   ar
    14     4     5   ar
    15     5     6   ar
    16     6     1   ar
    17    11     7   ar
    18    11    12    1
@<TRIPOS>MOLECULE
*****
 17 18 0 0 0
SMALL
GASTEIGER

@<TRIPOS>ATOM
      1 C          -9.9644  -19.3081   21.3007 C.ar    1  UNL1        0.1386
      2 C          -9.4844  -19.4425   19.8860 C.ar    1  UNL1        0.0370
      3 C          -8.0141  -19.4368   19.5891 C.ar    1  UNL1        0.0061
      4 C          -7.0238  -19.2968   20.7069 C.ar    1  UNL1        0.0341
      5 C          -7.5038  -19.1624   22.1216 C.ar    1  UNL1        0.0061
      6 C          -8.9741  -19.1681   22.4185 C.ar    1  UNL1        0.0370
      7 C          -5.5535  -19.2911   20.4100 C.ar    1  UNL1        0.1406
      8 N          -4.5146  -20.1373   21.0842 N.ar    1  UNL1       -0.2254
      9 C          -3.1829  -19.8075   20.4776 C.ar    1  UNL1        0.1189
     10 C          -3.3988  -18.7574   19.4285 C.ar    1  UNL1        0.0945
     11 N          -4.8639  -18.4383   19.3867 N.ar    1  UNL1       -0.3361
     12 H          -5.2969  -17.7840   18.7920 H       1  UNL1        0.1674
     13 O         -11.4347  -19.3138   21.5977 O.3     1  UNL1       -0.4755
     14 C         -12.0006  -18.3547   22.6026 C.3     1  UNL1        0.2054
     15 C         -12.0584  -16.8887   22.2904 C.3     1  UNL1        0.0473
     16 C         -11.3993  -16.0904   19.9074 C.3     1  UNL1        0.0001
     17 C         -12.4543  -16.4291   20.9185 C.3     1  UNL1        0.0038
@<TRIPOS>BOND
     1    16    17    1
     2    17    15    1
     3    15    14    1
     4    14    13    1
     5    13     1    1
     6     1     2   ar
     7     2     3   ar
     8     3     4   ar
     9     4     7    1
    10     7     8   ar
    11     8     9   ar
    12     9    10   ar
    13    10    11   ar
    14     4     5   ar
    15     5     6   ar
    16     6     1   ar
    17    11     7   ar
    18    11    12    1
@<TRIPOS>MOLECULE
*****
 17 18 0 0 0
SMALL
GASTEIGER

@<TRIPOS>ATOM
      1 C          -7.4377  -18.2689   22.1329 C.ar    1  UNL1        0.1386
      2 C          -8.1514  -16.9729   22.3795 C.ar    1  UNL1        0.0370
      3 C          -9.5553  -16.9785   22.9077 C.ar    1  UNL1        0.0061
      4 C         -10.2455  -18.2802   23.1893 C.ar    1  UNL1        0.0341
      5 C          -9.5318  -19.5762   22.9427 C.ar    1  UNL1        0.0061
      6 C          -8.1279  -19.5706   22.4145 C.ar    1  UNL1        0.0370
      7 C         -11.6494  -18.2858   23.7175 C.ar    1  UNL1        0.1406
      8 N         -12.8591  -17.7482   23.0120 N.ar    1  UNL1       -0.2254
      9 C         -14.0474  -17.9601   23.9025 C.ar    1  UNL1        0.1189
     10 C         -13.5723  -18.6287   25.1583 C.ar    1  UNL1        0.0945
     11 N         -12.0902  -18.8300   25.0440 N.ar    1  UNL1       -0.3361
     12 H         -11.5089  -19.2462   25.7208 H       1  UNL1        0.1674
     13 O          -6.0338  -18.2633   21.6047 O.3     1  UNL1       -0.4755
     14 C          -5.0780  -19.3484   22.0036 C.3     1  UNL1        0.2054
     15 C          -4.0164  -19.8021   21.0460 C.3     1  UNL1        0.0473
     16 C          -1.8982  -18.4800   21.7641 C.3     1  UNL1        0.0001
     17 C          -2.5749  -19.7838   21.4607 C.3     1  UNL1        0.0038
@<TRIPOS>BOND
     1    16    17    1
     2    17    15    1
     3    15    14    1
     4    14    13    1
     5    13     1    1
     6     1     2   ar
     7     2     3   ar
     8     3     4   ar
     9     4     7    1
    10     7     8   ar
    11     8     9   ar
    12     9    10   ar
    13    10    11   ar
    14     4     5   ar
    15     5     6   ar
    16     6     1   ar
    17    11     7   ar
    18    11    12    1
@<TRIPOS>MOLECULE
*****
 17 18 0 0 0
SMALL
GASTEIGER

@<TRIPOS>ATOM
      1 C          -8.7748  -16.2928   25.9937 C.ar    1  UNL1        0.1386
      2 C          -8.7271  -15.4982   24.7223 C.ar    1  UNL1        0.0370
      3 C          -9.1623  -16.1236   23.4302 C.ar    1  UNL1        0.0061
      4 C          -9.6451  -17.5436   23.4094 C.ar    1  UNL1        0.0341
      5 C          -9.6927  -18.3382   24.6808 C.ar    1  UNL1        0.0061
      6 C          -9.2576  -17.7128   25.9729 C.ar    1  UNL1        0.0370
      7 C         -10.0802  -18.1690   22.1173 C.ar    1  UNL1        0.1406
      8 N         -10.4924  -19.5982   21.9244 N.ar    1  UNL1       -0.2254
      9 C         -10.8465  -19.7875   20.4791 C.ar    1  UNL1        0.1189
     10 C         -10.6531  -18.4752   19.7788 C.ar    1  UNL1        0.0945
     11 N         -10.1795  -17.4749   20.7913 N.ar    1  UNL1       -0.3361
     12 H          -9.9706  -16.5289   20.6162 H       1  UNL1        0.1674
     13 O          -8.3396  -15.6674   27.2858 O.3     1  UNL1       -0.4755
     14 C          -6.9076  -15.2654   27.4796 C.3     1  UNL1        0.2054
     15 C          -5.8287  -15.9190   26.6679 C.3     1  UNL1        0.0473
     16 C          -5.1860  -15.7577   24.1557 C.3     1  UNL1        0.0001
     17 C          -5.1848  -15.1729   25.5370 C.3     1  UNL1        0.0038
@<TRIPOS>BOND
     1    16    17    1
     2    17    15    1
     3    15    14    1
     4    14    13    1
     5    13     1    1
     6     1     2   ar
     7     2     3   ar
     8     3     4   ar
     9     4     7    1
    10     7     8   ar
    11     8     9   ar
    12     9    10   ar
    13    10    11   ar
    14     4     5   ar
    15     5     6   ar
    16     6     1   ar
    17    11     7   ar
    18    11    12    1
@<TRIPOS>MOLECULE
*****
 17 18 0 0 0
SMALL
GASTEIGER

@<TRIPOS>ATOM
      1 C          -5.8478  -19.3222   21.5489 C.ar    1  UNL1        0.1386
      2 C          -6.3435  -18.2458   22.4684 C.ar    1  UNL1        0.0370
      3 C          -7.7563  -17.7547   22.3555 C.ar    1  UNL1        0.0061
      4 C          -8.6735  -18.3401   21.3230 C.ar    1  UNL1        0.0341
      5 C          -8.1778  -19.4166   20.4035 C.ar    1  UNL1        0.0061
      6 C          -6.7650  -19.9076   20.5164 C.ar    1  UNL1        0.0370
      7 C         -10.0863  -17.8491   21.2100 C.ar    1  UNL1        0.1406
      8 N         -10.5276  -16.5779   20.5472 N.ar    1  UNL1       -0.2254
      9 C         -12.0199  -16.4861   20.6675 C.ar    1  UNL1        0.1189
     10 C         -12.5010  -17.7006   21.4048 C.ar    1  UNL1        0.0945
     11 N         -11.3060  -18.5429   21.7400 N.ar    1  UNL1       -0.3361
     12 H         -11.3197  -19.4007   22.2231 H       1  UNL1        0.1674
     13 O          -4.4350  -19.8133   21.6619 O.3     1  UNL1       -0.4755
     14 C          -3.6740  -20.1986   20.4281 C.3     1  UNL1        0.2054
     15 C          -3.3768  -19.1694   19.3781 C.3     1  UNL1        0.0473
     16 C          -1.2683  -18.1671   20.5184 C.3     1  UNL1        0.0001
     17 C          -2.5192  -17.9844   19.7110 C.3     1  UNL1        0.0038
@<TRIPOS>BOND
     1    16    17    1
     2    17    15    1
     3    15    14    1
     4    14    13    1
     5    13     1    1
     6     1     2   ar
     7     2     3   ar
     8     3     4   ar
     9     4     7    1
    10     7     8   ar
    11     8     9   ar
    12     9    10   ar
    13    10    11   ar
    14     4     5   ar
    15     5     6   ar
    16     6     1   ar
    17    11     7   ar
    18    11    12    1
@<TRIPOS>MOLECULE
*****
 17 18 0 0 0
SMALL
GASTEIGER

@<TRIPOS>ATOM
      1 C         -10.7002  -17.2122   21.9282 C.ar    1  UNL1        0.1386
      2 C         -10.7784  -17.7569   23.3236 C.ar    1  UNL1        0.0370
      3 C          -9.7710  -17.3339   24.3513 C.ar    1  UNL1        0.0061
      4 C          -8.6854  -16.3663   23.9837 C.ar    1  UNL1        0.0341
      5 C          -8.6072  -15.8217   22.5883 C.ar    1  UNL1        0.0061
      6 C          -9.6146  -16.2446   21.5605 C.ar    1  UNL1        0.0370
      7 C          -7.6780  -15.9434   25.0114 C.ar    1  UNL1        0.1406
      8 N          -7.9142  -15.8453   26.4894 N.ar    1  UNL1       -0.2254
      9 C          -6.6397  -15.3856   27.1331 C.ar    1  UNL1        0.1189
     10 C          -5.6157  -15.1996   26.0529 C.ar    1  UNL1        0.0945
     11 N          -6.2574  -15.5444   24.7416 N.ar    1  UNL1       -0.3361
     12 H          -5.8225  -15.5141   23.8589 H       1  UNL1        0.1674
     13 O         -11.7076  -17.6351   20.9004 O.3     1  UNL1       -0.4755
     14 C         -11.3030  -18.5572   19.7887 C.3     1  UNL1        0.2054
     15 C         -10.2755  -19.6221   20.0339 C.3     1  UNL1        0.0473
     16 C          -7.6897  -19.4356   20.2050 C.3     1  UNL1        0.0001
     17 C          -8.9326  -19.5355   19.3711 C.3     1  UNL1        0.0038
@<TRIPOS>BOND
     1    16    17    1
     2    17    15    1
     3    15    14    1
     4    14    13    1
     5    13     1    1
     6     1     2   ar
     7     2     3   ar
     8     3     4   ar
     9     4     7    1
    10     7     8   ar
    11     8     9   ar
    12     9    10   ar
    13    10    11   ar
    14     4     5   ar
    15     5     6   ar
    16     6     1   ar
    17    11     7   ar
    18    11    12    1
@<TRIPOS>MOLECULE
*****
 17 18 0 0 0
SMALL
GASTEIGER

@<TRIPOS>ATOM
      1 C          -6.4047  -15.8232   23.8774 C.ar    1  UNL1        0.1386
      2 C          -7.8045  -15.3486   23.6220 C.ar    1  UNL1        0.0370
      3 C          -8.7467  -16.1916   22.8147 C.ar    1  UNL1        0.0061
      4 C          -8.2891  -17.5092   22.2629 C.ar    1  UNL1        0.0341
      5 C          -6.8894  -17.9838   22.5183 C.ar    1  UNL1        0.0061
      6 C          -5.9471  -17.1408   23.3256 C.ar    1  UNL1        0.0370
      7 C          -9.2313  -18.3522   21.4557 C.ar    1  UNL1        0.1406
      8 N          -9.2327  -18.4892   19.9619 N.ar    1  UNL1       -0.2254
      9 C         -10.3398  -19.4279   19.5835 C.ar    1  UNL1        0.1189
     10 C         -11.0228  -19.8709   20.8434 C.ar    1  UNL1        0.0945
     11 N         -10.3377  -19.2061   22.0004 N.ar    1  UNL1       -0.3361
     12 H         -10.5729  -19.3117   22.9505 H       1  UNL1        0.1674
     13 O          -5.4625  -14.9803   24.6846 O.3     1  UNL1       -0.4755
     14 C          -5.6353  -14.8758   26.1709 C.3     1  UNL1        0.2054
     15 C          -6.1692  -16.0427   26.9478 C.3     1  UNL1        0.0473
     16 C          -8.4422  -14.9636   27.5952 C.3     1  UNL1        0.0001
     17 C          -7.6435  -16.1683   27.1941 C.3     1  UNL1        0.0038
@<TRIPOS>BOND
     1    16    17    1
     2    17    15    1
     3    15    14    1
     4    14    13    1
     5    13     1    1
     6     1     2   ar
     7     2     3   ar
     8     3     4   ar
     9     4     7    1
    10     7     8   ar
    11     8     9   ar
    12     9    10   ar
    13    10    11   ar
    14     4     5   ar
    15     5     6   ar
    16     6     1   ar
    17    11     7   ar
    18    11    12    1
@<TRIPOS>MOLECULE
*****
 17 18 0 0 0
SMALL
GASTEIGER

@<TRIPOS>ATOM
      1 C         -12.5049   -4.4124   18.1316 C.ar    1  UNL1        0.1386
      2 C         -13.1088   -5.3314   17.1115 C.ar    1  UNL1        0.0370
      3 C         -14.1500   -6.3292   17.5240 C.ar    1  UNL1        0.0061
      4 C         -14.5873   -6.4081   18.9567 C.ar    1  UNL1        0.0341
      5 C         -13.9834   -5.4890   19.9768 C.ar    1  UNL1        0.0061
      6 C         -12.9422   -4.4912   19.5642 C.ar    1  UNL1        0.0370
      7 C         -15.6285   -7.4059   19.3692 C.ar    1  UNL1        0.1406
      8 N         -17.0718   -7.1092   19.6503 N.ar    1  UNL1       -0.2254
      9 C         -17.7445   -8.3956   20.0279 C.ar    1  UNL1        0.1189
     10 C         -16.7171   -9.4874   19.9802 C.ar    1  UNL1        0.0945
     11 N         -15.4093   -8.8757   19.5731 N.ar    1  UNL1       -0.3361
     12 H         -14.5568   -9.3549   19.4597 H       1  UNL1        0.1674
     13 O         -11.4637   -3.4145   17.7190 O.3     1  UNL1       -0.4755
     14 C         -10.0081   -3.7439   17.8692 C.3     1  UNL1        0.2054
     15 C          -9.5486   -5.1690   17.7812 C.3     1  UNL1        0.0473
     16 C          -9.5733   -7.5267   18.8725 C.3     1  UNL1        0.0001
     17 C          -9.5450   -6.0330   19.0074 C.3     1  UNL1        0.0038
@<TRIPOS>BOND
     1    16    17    1
     2    17    15    1
     3    15    14    1
     4    14    13    1
     5    13     1    1
     6     1     2   ar
     7     2     3   ar
     8     3     4   ar
     9     4     7    1
    10     7     8   ar
    11     8     9   ar
    12     9    10   ar
    13    10    11   ar
    14     4     5   ar
    15     5     6   ar
    16     6     1   ar
    17    11     7   ar
    18    11    12    1
