@<TRIPOS>MOLECULE
*****
 22 24 0 0 0
SMALL
GASTEIGER

@<TRIPOS>ATOM
      1 C          -5.6005  -16.2228   24.1287 C.3     1  UNL1        0.0207
      2 C          -4.6182  -17.1425   23.4661 C.3     1  UNL1        0.0274
      3 C          -5.1010  -18.1919   22.5090 C.ar    1  UNL1       -0.0258
      4 C          -4.1187  -19.1116   21.8464 C.ar    1  UNL1       -0.0046
      5 C          -4.6016  -20.1609   20.8894 C.ar    1  UNL1       -0.0003
      6 C          -6.0667  -20.2905   20.5951 C.ar    1  UNL1       -0.0003
      7 C          -7.0490  -19.3708   21.2578 C.ar    1  UNL1       -0.0043
      8 C          -6.5662  -18.3215   22.2147 C.ar    1  UNL1       -0.0224
      9 C          -7.5485  -17.4017   22.8775 C.3     1  UNL1        0.0443
     10 C          -7.0657  -16.3524   23.8344 C.3     1  UNL1        0.0104
     11 C          -9.0136  -17.5313   22.5832 C.ar    1  UNL1       -0.0175
     12 C          -9.8595  -18.4740   23.3869 C.ar    1  UNL1       -0.0030
     13 C         -11.3246  -18.6036   23.0926 C.ar    1  UNL1        0.0119
     14 C         -11.9439  -17.7905   21.9946 C.ar    1  UNL1        0.0682
     15 CL        -13.4090  -17.9201   21.7003 Cl      1  UNL1       -0.0814
     16 C         -11.0980  -16.8478   21.1910 C.ar    1  UNL1        0.0679
     17 CL        -11.7172  -16.0347   20.0930 Cl      1  UNL1       -0.0814
     18 C          -9.6329  -16.7182   21.4853 C.ar    1  UNL1        0.0083
     19 C          -5.1177  -15.1734   25.0857 C.3     1  UNL1        0.0689
     20 C          -6.6237  -15.3932   27.1913 C.3     1  UNL1        0.0859
     21 N          -6.0689  -14.5631   26.0719 N.3     1  UNL1       -0.2963
     22 H          -5.5827  -13.7763   26.5019 H       1  UNL1        0.1233
@<TRIPOS>BOND
     1    20    21    1
     2    21    19    1
     3     1    19    1
     4     1     2    1
     5     2     3    1
     6     3     4   ar
     7     4     5   ar
     8     5     6   ar
     9     6     7   ar
    10     7     8   ar
    11     8     9    1
    12     9    11    1
    13    11    12   ar
    14    12    13   ar
    15    13    14   ar
    16    14    15    1
    17    14    16   ar
    18    16    17    1
    19    16    18   ar
    20     9    10    1
    21    10     1    1
    22     8     3   ar
    23    18    11   ar
    24    21    22    1
@<TRIPOS>MOLECULE
*****
 22 24 0 0 0
SMALL
GASTEIGER

@<TRIPOS>ATOM
      1 C          -5.9556  -19.3833   21.6420 C.3     1  UNL1        0.0207
      2 C          -5.0481  -18.3851   22.2977 C.3     1  UNL1        0.0274
      3 C          -5.6203  -17.3244   23.1907 C.ar    1  UNL1       -0.0258
      4 C          -4.7128  -16.3262   23.8464 C.ar    1  UNL1       -0.0046
      5 C          -5.2851  -15.2655   24.7394 C.ar    1  UNL1       -0.0003
      6 C          -6.7649  -15.2030   24.9766 C.ar    1  UNL1       -0.0003
      7 C          -7.6724  -16.2012   24.3209 C.ar    1  UNL1       -0.0043
      8 C          -7.1001  -17.2619   23.4279 C.ar    1  UNL1       -0.0224
      9 C          -8.0077  -18.2601   22.7721 C.3     1  UNL1        0.0443
     10 C          -7.4354  -19.3208   21.8792 C.3     1  UNL1        0.0104
     11 C          -9.4875  -18.1976   23.0094 C.ar    1  UNL1       -0.0175
     12 C         -10.0811  -18.8529   24.2212 C.ar    1  UNL1       -0.0030
     13 C         -11.5609  -18.7904   24.4584 C.ar    1  UNL1        0.0119
     14 C         -12.4471  -18.0726   23.4839 C.ar    1  UNL1        0.0682
     15 CL        -13.9269  -18.0101   23.7211 Cl      1  UNL1       -0.0814
     16 C         -11.8534  -17.4174   22.2722 C.ar    1  UNL1        0.0679
     17 CL        -12.7396  -16.6996   21.2976 Cl      1  UNL1       -0.0814
     18 C         -10.3736  -17.4799   22.0349 C.ar    1  UNL1        0.0083
     19 C          -5.3833  -20.4440   20.7489 C.3     1  UNL1        0.0689
     20 C          -3.4661  -19.3643   19.3677 C.3     1  UNL1        0.0859
     21 N          -3.9373  -20.3918   20.3536 N.3     1  UNL1       -0.2963
     22 H          -3.4031  -20.2449   21.2100 H       1  UNL1        0.1233
@<TRIPOS>BOND
     1    20    21    1
     2    21    19    1
     3     1    19    1
     4     1     2    1
     5     2     3    1
     6     3     4   ar
     7     4     5   ar
     8     5     6   ar
     9     6     7   ar
    10     7     8   ar
    11     8     9    1
    12     9    11    1
    13    11    12   ar
    14    12    13   ar
    15    13    14   ar
    16    14    15    1
    17    14    16   ar
    18    16    17    1
    19    16    18   ar
    20     9    10    1
    21    10     1    1
    22     8     3   ar
    23    18    11   ar
    24    21    22    1
@<TRIPOS>MOLECULE
*****
 22 24 0 0 0
SMALL
GASTEIGER

@<TRIPOS>ATOM
      1 C         -10.8470  -17.8208   21.1540 C.3     1  UNL1        0.0207
      2 C         -10.0403  -18.7770   20.3264 C.3     1  UNL1        0.0274
      3 C          -8.6095  -19.0539   20.6815 C.ar    1  UNL1       -0.0258
      4 C          -7.8028  -20.0101   19.8539 C.ar    1  UNL1       -0.0046
      5 C          -6.3721  -20.2869   20.2091 C.ar    1  UNL1       -0.0003
      6 C          -5.7480  -19.6076   21.3920 C.ar    1  UNL1       -0.0003
      7 C          -6.5546  -18.6515   22.2196 C.ar    1  UNL1       -0.0043
      8 C          -7.9854  -18.3746   21.8644 C.ar    1  UNL1       -0.0224
      9 C          -8.7921  -17.4184   22.6920 C.3     1  UNL1        0.0443
     10 C         -10.2229  -17.1415   22.3368 C.3     1  UNL1        0.0104
     11 C          -8.1680  -16.7391   23.8748 C.ar    1  UNL1       -0.0175
     12 C          -6.9719  -15.8537   23.6863 C.ar    1  UNL1       -0.0030
     13 C          -6.3478  -15.1744   24.8692 C.ar    1  UNL1        0.0119
     14 C          -6.9198  -15.3805   26.2405 C.ar    1  UNL1        0.0682
     15 CL         -6.2957  -14.7012   27.4233 Cl      1  UNL1       -0.0814
     16 C          -8.1159  -16.2659   26.4289 C.ar    1  UNL1        0.0679
     17 CL         -8.6879  -16.4720   27.8002 Cl      1  UNL1       -0.0814
     18 C          -8.7400  -16.9452   25.2461 C.ar    1  UNL1        0.0083
     19 C         -12.2778  -17.5439   20.7988 C.3     1  UNL1        0.0689
     20 C         -11.5865  -15.5868   19.2362 C.3     1  UNL1        0.0859
     21 N         -12.6345  -16.3028   20.0356 N.3     1  UNL1       -0.2963
     22 H         -13.3765  -16.5603   19.3848 H       1  UNL1        0.1233
@<TRIPOS>BOND
     1    20    21    1
     2    21    19    1
     3     1    19    1
     4     1     2    1
     5     2     3    1
     6     3     4   ar
     7     4     5   ar
     8     5     6   ar
     9     6     7   ar
    10     7     8   ar
    11     8     9    1
    12     9    11    1
    13    11    12   ar
    14    12    13   ar
    15    13    14   ar
    16    14    15    1
    17    14    16   ar
    18    16    17    1
    19    16    18   ar
    20     9    10    1
    21    10     1    1
    22     8     3   ar
    23    18    11   ar
    24    21    22    1
@<TRIPOS>MOLECULE
*****
 22 24 0 0 0
SMALL
GASTEIGER

@<TRIPOS>ATOM
      1 C         -12.1012  -18.0275   22.4173 C.3     1  UNL1        0.0207
      2 C         -11.6970  -18.8132   21.2052 C.3     1  UNL1        0.0274
      3 C         -10.2473  -18.9363   20.8402 C.ar    1  UNL1       -0.0258
      4 C          -9.8431  -19.7220   19.6280 C.ar    1  UNL1       -0.0046
      5 C          -8.3935  -19.8450   19.2631 C.ar    1  UNL1       -0.0003
      6 C          -7.3479  -19.1824   20.1103 C.ar    1  UNL1       -0.0003
      7 C          -7.7521  -18.3967   21.3224 C.ar    1  UNL1       -0.0043
      8 C          -9.2017  -18.2737   21.6874 C.ar    1  UNL1       -0.0224
      9 C          -9.6059  -17.4880   22.8996 C.3     1  UNL1        0.0443
     10 C         -11.0556  -17.3649   23.2645 C.3     1  UNL1        0.0104
     11 C          -8.5604  -16.8253   23.7468 C.ar    1  UNL1       -0.0175
     12 C          -7.2398  -16.4436   23.1464 C.ar    1  UNL1       -0.0030
     13 C          -6.1943  -15.7810   23.9936 C.ar    1  UNL1        0.0119
     14 C          -6.4693  -15.5001   25.4412 C.ar    1  UNL1        0.0682
     15 CL         -5.4238  -14.8375   26.2884 Cl      1  UNL1       -0.0814
     16 C          -7.7898  -15.8819   26.0415 C.ar    1  UNL1        0.0679
     17 CL         -8.0648  -15.6010   27.4892 Cl      1  UNL1       -0.0814
     18 C          -8.8354  -16.5445   25.1943 C.ar    1  UNL1        0.0083
     19 C         -13.5509  -17.9044   22.7823 C.3     1  UNL1        0.0689
     20 C         -13.9661  -18.5762   25.2574 C.3     1  UNL1        0.0859
     21 N         -13.9431  -17.5315   24.1812 N.3     1  UNL1       -0.2963
     22 H         -13.2918  -16.8084   24.4867 H       1  UNL1        0.1233
@<TRIPOS>BOND
     1    20    21    1
     2    21    19    1
     3     1    19    1
     4     1     2    1
     5     2     3    1
     6     3     4   ar
     7     4     5   ar
     8     5     6   ar
     9     6     7   ar
    10     7     8   ar
    11     8     9    1
    12     9    11    1
    13    11    12   ar
    14    12    13   ar
    15    13    14   ar
    16    14    15    1
    17    14    16   ar
    18    16    17    1
    19    16    18   ar
    20     9    10    1
    21    10     1    1
    22     8     3   ar
    23    18    11   ar
    24    21    22    1
@<TRIPOS>MOLECULE
*****
 22 24 0 0 0
SMALL
GASTEIGER

@<TRIPOS>ATOM
      1 C          -8.5188  -16.1105   24.2209 C.3     1  UNL1        0.0207
      2 C          -9.9679  -16.3121   23.8903 C.3     1  UNL1        0.0274
      3 C         -10.3680  -17.3253   22.8590 C.ar    1  UNL1       -0.0258
      4 C         -11.8171  -17.5269   22.5283 C.ar    1  UNL1       -0.0046
      5 C         -12.2171  -18.5401   21.4971 C.ar    1  UNL1       -0.0003
      6 C         -11.1680  -19.3516   20.7965 C.ar    1  UNL1       -0.0003
      7 C          -9.7189  -19.1500   21.1272 C.ar    1  UNL1       -0.0043
      8 C          -9.3189  -18.1369   22.1584 C.ar    1  UNL1       -0.0224
      9 C          -7.8697  -17.9352   22.4891 C.3     1  UNL1        0.0443
     10 C          -7.4697  -16.9221   23.5204 C.3     1  UNL1        0.0104
     11 C          -6.8206  -18.7467   21.7886 C.ar    1  UNL1       -0.0175
     12 C          -7.2031  -19.6432   20.6483 C.ar    1  UNL1       -0.0030
     13 C          -6.1540  -20.4547   19.9478 C.ar    1  UNL1        0.0119
     14 C          -4.7224  -20.3698   20.3875 C.ar    1  UNL1        0.0682
     15 CL         -3.6733  -21.1814   19.6869 Cl      1  UNL1       -0.0814
     16 C          -4.3399  -19.4734   21.5277 C.ar    1  UNL1        0.0679
     17 CL         -2.9082  -19.3885   21.9673 Cl      1  UNL1       -0.0814
     18 C          -5.3890  -18.6619   22.2282 C.ar    1  UNL1        0.0083
     19 C          -8.1187  -15.0974   25.2522 C.3     1  UNL1        0.0689
     20 C          -5.7028  -15.2459   26.1962 C.3     1  UNL1        0.0859
     21 N          -6.7080  -14.5895   25.2970 N.3     1  UNL1       -0.2963
     22 H          -6.3411  -14.6554   24.3475 H       1  UNL1        0.1233
@<TRIPOS>BOND
     1    20    21    1
     2    21    19    1
     3     1    19    1
     4     1     2    1
     5     2     3    1
     6     3     4   ar
     7     4     5   ar
     8     5     6   ar
     9     6     7   ar
    10     7     8   ar
    11     8     9    1
    12     9    11    1
    13    11    12   ar
    14    12    13   ar
    15    13    14   ar
    16    14    15    1
    17    14    16   ar
    18    16    17    1
    19    16    18   ar
    20     9    10    1
    21    10     1    1
    22     8     3   ar
    23    18    11   ar
    24    21    22    1
@<TRIPOS>MOLECULE
*****
 22 24 0 0 0
SMALL
GASTEIGER

@<TRIPOS>ATOM
      1 C          -8.9208  -16.3842   23.8825 C.3     1  UNL1        0.0207
      2 C         -10.0667  -16.8081   23.0124 C.3     1  UNL1        0.0274
      3 C          -9.8302  -17.7431   21.8635 C.ar    1  UNL1       -0.0258
      4 C         -10.9761  -18.1670   20.9934 C.ar    1  UNL1       -0.0046
      5 C         -10.7396  -19.1020   19.8446 C.ar    1  UNL1       -0.0003
      6 C          -9.3572  -19.6132   19.5660 C.ar    1  UNL1       -0.0003
      7 C          -8.2113  -19.1893   20.4361 C.ar    1  UNL1       -0.0043
      8 C          -8.4478  -18.2543   21.5849 C.ar    1  UNL1       -0.0224
      9 C          -7.3019  -17.8304   22.4552 C.3     1  UNL1        0.0443
     10 C          -7.5384  -16.8954   23.6039 C.3     1  UNL1        0.0104
     11 C          -5.9195  -18.3416   22.1765 C.ar    1  UNL1       -0.0175
     12 C          -4.7556  -17.8278   22.9713 C.ar    1  UNL1       -0.0030
     13 C          -3.3731  -18.3390   22.6926 C.ar    1  UNL1        0.0119
     14 C          -3.1546  -19.3639   21.6193 C.ar    1  UNL1        0.0682
     15 CL         -1.7722  -19.8751   21.3407 Cl      1  UNL1       -0.0814
     16 C          -4.3185  -19.8775   20.8247 C.ar    1  UNL1        0.0679
     17 CL         -4.1000  -20.9024   19.7513 Cl      1  UNL1       -0.0814
     18 C          -5.7009  -19.3664   21.1033 C.ar    1  UNL1        0.0083
     19 C          -9.1573  -15.4491   25.0314 C.3     1  UNL1        0.0689
     20 C          -7.9983  -15.9987   27.2907 C.3     1  UNL1        0.0859
     21 N          -8.0651  -15.1932   26.0271 N.3     1  UNL1       -0.2963
     22 H          -7.1815  -15.3378   25.5386 H       1  UNL1        0.1233
@<TRIPOS>BOND
     1    20    21    1
     2    21    19    1
     3     1    19    1
     4     1     2    1
     5     2     3    1
     6     3     4   ar
     7     4     5   ar
     8     5     6   ar
     9     6     7   ar
    10     7     8   ar
    11     8     9    1
    12     9    11    1
    13    11    12   ar
    14    12    13   ar
    15    13    14   ar
    16    14    15    1
    17    14    16   ar
    18    16    17    1
    19    16    18   ar
    20     9    10    1
    21    10     1    1
    22     8     3   ar
    23    18    11   ar
    24    21    22    1
@<TRIPOS>MOLECULE
*****
 22 24 0 0 0
SMALL
GASTEIGER

@<TRIPOS>ATOM
      1 C         -13.7229   -3.1216   19.1765 C.3     1  UNL1        0.0207
      2 C         -12.2243   -3.1869   19.1750 C.3     1  UNL1        0.0274
      3 C         -11.5314   -4.5117   19.0530 C.ar    1  UNL1       -0.0258
      4 C         -10.0329   -4.5770   19.0514 C.ar    1  UNL1       -0.0046
      5 C          -9.3401   -5.9018   18.9294 C.ar    1  UNL1       -0.0003
      6 C         -10.1458   -7.1613   18.8090 C.ar    1  UNL1       -0.0003
      7 C         -11.6444   -7.0960   18.8106 C.ar    1  UNL1       -0.0043
      8 C         -12.3372   -5.7712   18.9326 C.ar    1  UNL1       -0.0224
      9 C         -13.8358   -5.7059   18.9342 C.3     1  UNL1        0.0443
     10 C         -14.5286   -4.3811   19.0562 C.3     1  UNL1        0.0104
     11 C         -14.6415   -6.9653   18.8138 C.ar    1  UNL1       -0.0175
     12 C         -14.1923   -8.0576   17.8889 C.ar    1  UNL1       -0.0030
     13 C         -14.9980   -9.3170   17.7685 C.ar    1  UNL1        0.0119
     14 C         -16.2530   -9.4843   18.5730 C.ar    1  UNL1        0.0682
     15 CL        -17.0587  -10.7438   18.4526 Cl      1  UNL1       -0.0814
     16 C         -16.7022   -8.3921   19.4978 C.ar    1  UNL1        0.0679
     17 CL        -17.9572   -8.5594   20.3023 Cl      1  UNL1       -0.0814
     18 C         -15.8964   -7.1327   19.6182 C.ar    1  UNL1        0.0083
     19 C         -14.4158   -1.7968   19.2985 C.3     1  UNL1        0.0689
     20 C         -16.3720   -0.3652   20.2330 C.3     1  UNL1        0.0859
     21 N         -15.5980   -1.6498   20.2099 N.3     1  UNL1       -0.2963
     22 H         -16.2573   -2.3863   19.9581 H       1  UNL1        0.1233
@<TRIPOS>BOND
     1    20    21    1
     2    21    19    1
     3     1    19    1
     4     1     2    1
     5     2     3    1
     6     3     4   ar
     7     4     5   ar
     8     5     6   ar
     9     6     7   ar
    10     7     8   ar
    11     8     9    1
    12     9    11    1
    13    11    12   ar
    14    12    13   ar
    15    13    14   ar
    16    14    15    1
    17    14    16   ar
    18    16    17    1
    19    16    18   ar
    20     9    10    1
    21    10     1    1
    22     8     3   ar
    23    18    11   ar
    24    21    22    1
@<TRIPOS>MOLECULE
*****
 22 24 0 0 0
SMALL
GASTEIGER

@<TRIPOS>ATOM
      1 C          -4.9855  -16.3175   23.9867 C.3     1  UNL1        0.0207
      2 C          -3.7143  -16.9285   23.4761 C.3     1  UNL1        0.0274
      3 C          -3.7682  -18.0882   22.5262 C.ar    1  UNL1       -0.0258
      4 C          -2.4970  -18.6992   22.0157 C.ar    1  UNL1       -0.0046
      5 C          -2.5510  -19.8588   21.0658 C.ar    1  UNL1       -0.0003
      6 C          -3.8761  -20.4075   20.6264 C.ar    1  UNL1       -0.0003
      7 C          -5.1473  -19.7964   21.1370 C.ar    1  UNL1       -0.0043
      8 C          -5.0934  -18.6368   22.0868 C.ar    1  UNL1       -0.0224
      9 C          -6.3646  -18.0257   22.5974 C.3     1  UNL1        0.0443
     10 C          -6.3107  -16.8661   23.5473 C.3     1  UNL1        0.0104
     11 C          -7.6898  -18.5743   22.1581 C.ar    1  UNL1       -0.0175
     12 C          -8.0540  -18.5799   20.7029 C.ar    1  UNL1       -0.0030
     13 C          -9.3791  -19.1285   20.2635 C.ar    1  UNL1        0.0119
     14 C         -10.3400  -19.6716   21.2793 C.ar    1  UNL1        0.0682
     15 CL        -11.6652  -20.2202   20.8400 Cl      1  UNL1       -0.0814
     16 C          -9.9758  -19.6660   22.7344 C.ar    1  UNL1        0.0679
     17 CL        -10.9368  -20.2090   23.7502 Cl      1  UNL1       -0.0814
     18 C          -8.6507  -19.1174   23.1738 C.ar    1  UNL1        0.0083
     19 C          -4.9316  -15.1578   24.9366 C.3     1  UNL1        0.0689
     20 C          -6.5352  -15.4292   26.9626 C.3     1  UNL1        0.0859
     21 N          -6.1646  -14.7412   25.6822 N.3     1  UNL1       -0.2963
     22 H          -6.0560  -13.7508   25.9009 H       1  UNL1        0.1233
@<TRIPOS>BOND
     1    20    21    1
     2    21    19    1
     3     1    19    1
     4     1     2    1
     5     2     3    1
     6     3     4   ar
     7     4     5   ar
     8     5     6   ar
     9     6     7   ar
    10     7     8   ar
    11     8     9    1
    12     9    11    1
    13    11    12   ar
    14    12    13   ar
    15    13    14   ar
    16    14    15    1
    17    14    16   ar
    18    16    17    1
    19    16    18   ar
    20     9    10    1
    21    10     1    1
    22     8     3   ar
    23    18    11   ar
    24    21    22    1
@<TRIPOS>MOLECULE
*****
 22 24 0 0 0
SMALL
GASTEIGER

@<TRIPOS>ATOM
      1 C          -9.5557  -19.1072   22.5826 C.3     1  UNL1        0.0207
      2 C          -9.8154  -17.9701   23.5257 C.3     1  UNL1        0.0274
      3 C          -8.7036  -17.0336   23.8957 C.ar    1  UNL1       -0.0258
      4 C          -8.9633  -15.8965   24.8388 C.ar    1  UNL1       -0.0046
      5 C          -7.8515  -14.9601   25.2087 C.ar    1  UNL1       -0.0003
      6 C          -6.4799  -15.1607   24.6355 C.ar    1  UNL1       -0.0003
      7 C          -6.2202  -16.2978   23.6923 C.ar    1  UNL1       -0.0043
      8 C          -7.3320  -17.2343   23.3225 C.ar    1  UNL1       -0.0224
      9 C          -7.0723  -18.3714   22.3793 C.3     1  UNL1        0.0443
     10 C          -8.1841  -19.3079   22.0094 C.3     1  UNL1        0.0104
     11 C          -5.7008  -18.5721   21.8061 C.ar    1  UNL1       -0.0175
     12 C          -5.5410  -19.0627   20.3976 C.ar    1  UNL1       -0.0030
     13 C          -4.1694  -19.2634   19.8244 C.ar    1  UNL1        0.0119
     14 C          -2.9576  -18.9734   20.6597 C.ar    1  UNL1        0.0682
     15 CL         -1.5861  -19.1740   20.0864 Cl      1  UNL1       -0.0814
     16 C          -3.1175  -18.4828   22.0681 C.ar    1  UNL1        0.0679
     17 CL         -1.9057  -18.1928   22.9034 Cl      1  UNL1       -0.0814
     18 C          -4.4890  -18.2821   22.6413 C.ar    1  UNL1        0.0083
     19 C         -10.6675  -20.0438   22.2127 C.3     1  UNL1        0.0689
     20 C         -11.1018  -18.8002   19.9734 C.3     1  UNL1        0.0859
     21 N         -11.2267  -20.0315   20.8209 N.3     1  UNL1       -0.2963
     22 H         -10.7672  -20.7869   20.3123 H       1  UNL1        0.1233
@<TRIPOS>BOND
     1    20    21    1
     2    21    19    1
     3     1    19    1
     4     1     2    1
     5     2     3    1
     6     3     4   ar
     7     4     5   ar
     8     5     6   ar
     9     6     7   ar
    10     7     8   ar
    11     8     9    1
    12     9    11    1
    13    11    12   ar
    14    12    13   ar
    15    13    14   ar
    16    14    15    1
    17    14    16   ar
    18    16    17    1
    19    16    18   ar
    20     9    10    1
    21    10     1    1
    22     8     3   ar
    23    18    11   ar
    24    21    22    1
