@<TRIPOS>MOLECULE
*****
 38 41 0 0 0
SMALL
GASTEIGER

@<TRIPOS>ATOM
      1 C           8.8680   -2.3201   23.2921 C.3     1  UNL1        0.0265
      2 C           7.4225   -2.2143   23.6784 C.3     1  UNL1        0.1011
      3 N           6.3635   -2.1739   22.6169 N.am    1  UNL1       -0.2438
      4 C           5.6766   -0.8807   22.2917 C.3     1  UNL1        0.1009
      5 C           4.6175   -0.8403   21.2302 C.3     1  UNL1        0.0662
      6 C           4.2454   -2.0930   20.4939 C.3     1  UNL1        0.1600
      7 O           4.9323   -3.3862   20.8191 O.3     1  UNL1       -0.4374
      8 C           5.9914   -3.4267   21.8806 C.2     1  UNL1        0.4051
      9 O           6.6783   -4.7199   22.2058 O.2     1  UNL1       -0.2262
     10 C           3.3173   -1.1171   19.8333 C.ar    1  UNL1        0.0138
     11 C           3.8229   -0.2239   18.7395 C.ar    1  UNL1       -0.0010
     12 C           2.8947    0.7520   18.0789 C.ar    1  UNL1       -0.0002
     13 C           1.4611    0.8345   18.5122 C.ar    1  UNL1       -0.0000
     14 C           0.9554   -0.0588   19.6060 C.ar    1  UNL1       -0.0002
     15 C           1.8836   -1.0346   20.2666 C.ar    1  UNL1       -0.0010
     16 C           3.5509   -3.0068   19.5282 C.3     1  UNL1        0.0714
     17 C           4.2566   -4.2235   19.0071 C.3     1  UNL1        0.0922
     18 C           5.2174   -3.3465   18.2602 C.3     1  UNL1        0.0294
     19 C           3.2960   -5.1006   19.7540 C.3     1  UNL1        0.0294
     20 O           4.9624   -5.4402   18.4860 O.3     1  UNL1       -0.3866
     21 H           5.7002   -5.1677   17.9184 H       1  UNL1        0.2102
     22 C           7.0360   -2.1490   25.1264 C.ar    1  UNL1       -0.0042
     23 C           6.6876   -3.4060   25.8670 C.ar    1  UNL1       -0.0026
     24 C           6.3011   -3.3406   27.3149 C.ar    1  UNL1        0.0012
     25 C           6.2630   -2.0183   28.0221 C.ar    1  UNL1        0.0176
     26 C           6.6115   -0.7614   27.2814 C.ar    1  UNL1        0.0012
     27 C           6.9980   -0.8267   25.8336 C.ar    1  UNL1       -0.0026
     28 C           5.8765   -1.9530   29.4700 C.ar    1  UNL1        0.0813
     29 C           6.5365   -2.8619   30.4642 C.ar    1  UNL1        0.0193
     30 C           6.1499   -2.7966   31.9121 C.ar    1  UNL1        0.0076
     31 C           5.1035   -1.8224   32.3658 C.ar    1  UNL1        0.0723
     32 C           4.4435   -0.9135   31.3715 C.ar    1  UNL1        0.1033
     33 N           4.8301   -0.9788   29.9237 N.ar    1  UNL1       -0.2437
     34 C           4.7169   -1.7570   33.8136 C.2     1  UNL1        0.2443
     35 N           5.4558   -0.8441   34.7466 N.am    1  UNL1       -0.3253
     36 O           3.5915   -2.6046   34.3284 O.2     1  UNL1       -0.2703
     37 H           6.1945   -0.2878   34.4087 H       1  UNL1        0.1453
     38 H           5.2021   -0.8012   35.6969 H       1  UNL1        0.1453
@<TRIPOS>BOND
     1     2     1    1
     2     2    22    1
     3    22    23   ar
     4    23    24   ar
     5    24    25   ar
     6    25    28    1
     7    28    29   ar
     8    29    30   ar
     9    30    31   ar
    10    31    34    1
    11    34    35   am
    12    34    36    2
    13    31    32   ar
    14    32    33   ar
    15    25    26   ar
    16    26    27   ar
    17     2     3    1
    18     3     4    1
    19     4     5    1
    20     5     6    1
    21     6    16    1
    22    16    17    1
    23    17    18    1
    24    17    19    1
    25    17    20    1
    26     6    10    1
    27    10    11   ar
    28    11    12   ar
    29    12    13   ar
    30    13    14   ar
    31    14    15   ar
    32     6     7    1
    33     7     8    1
    34     8     9    2
    35    27    22   ar
    36     8     3   am
    37    33    28   ar
    38    15    10   ar
    39    35    37    1
    40    35    38    1
    41    20    21    1
@<TRIPOS>MOLECULE
*****
 38 41 0 0 0
SMALL
GASTEIGER

@<TRIPOS>ATOM
      1 C           3.5579    2.0983   25.3366 C.3     1  UNL1        0.0265
      2 C           2.6639    1.7674   24.1786 C.3     1  UNL1        0.1011
      3 N           3.2082    1.0116   23.0028 N.am    1  UNL1       -0.2438
      4 C           3.0550   -0.4789   22.9331 C.3     1  UNL1        0.1009
      5 C           3.5993   -1.2346   21.7573 C.3     1  UNL1        0.0662
      6 C           4.2969   -0.4999   20.6512 C.3     1  UNL1        0.1600
      7 O           4.4502    0.9907   20.7209 O.3     1  UNL1       -0.4374
      8 C           3.9059    1.7464   21.8967 C.2     1  UNL1        0.4051
      9 O           4.0591    3.2369   21.9664 O.2     1  UNL1       -0.2262
     10 C           4.3982   -1.9047   20.1351 C.ar    1  UNL1        0.0138
     11 C           3.1659   -2.6248   19.6737 C.ar    1  UNL1       -0.0010
     12 C           3.2671   -4.0296   19.1576 C.ar    1  UNL1       -0.0002
     13 C           4.6006   -4.7142   19.1029 C.ar    1  UNL1       -0.0000
     14 C           5.8329   -3.9941   19.5643 C.ar    1  UNL1       -0.0002
     15 C           5.7317   -2.5893   20.0804 C.ar    1  UNL1       -0.0010
     16 C           5.0297   -0.2530   19.3658 C.3     1  UNL1        0.0714
     17 C           4.8790    1.0602   18.6569 C.3     1  UNL1        0.0922
     18 C           6.2959    1.4100   19.0036 C.3     1  UNL1        0.0294
     19 C           3.4622    0.7105   18.3102 C.3     1  UNL1        0.0294
     20 O           4.7284    2.3735   17.9480 O.3     1  UNL1       -0.3866
     21 H           5.5598    2.8698   18.0066 H       1  UNL1        0.2102
     22 C           1.2253    2.1923   24.1963 C.ar    1  UNL1       -0.0042
     23 C           0.6063    2.7954   22.9704 C.ar    1  UNL1       -0.0026
     24 C          -0.8321    3.2202   22.9881 C.ar    1  UNL1        0.0012
     25 C          -1.6515    3.0419   24.2318 C.ar    1  UNL1        0.0176
     26 C          -1.0325    2.4388   25.4578 C.ar    1  UNL1        0.0012
     27 C           0.4059    2.0139   25.4400 C.ar    1  UNL1       -0.0026
     28 C          -3.0901    3.4668   24.2495 C.ar    1  UNL1        0.0813
     29 C          -3.7347    3.8784   25.5399 C.ar    1  UNL1        0.0193
     30 C          -5.1732    4.3033   25.5576 C.ar    1  UNL1        0.0076
     31 C          -5.9670    4.3165   24.2849 C.ar    1  UNL1        0.0723
     32 C          -5.3223    3.9048   22.9946 C.ar    1  UNL1        0.1033
     33 N          -3.8839    3.4800   22.9769 N.ar    1  UNL1       -0.2437
     34 C          -7.4055    4.7413   24.3026 C.2     1  UNL1        0.2443
     35 N          -8.4399    3.9161   23.5962 N.am    1  UNL1       -0.3253
     36 O          -7.8095    5.9913   25.0266 O.2     1  UNL1       -0.2703
     37 H          -8.1747    3.0957   23.1210 H       1  UNL1        0.1453
     38 H          -9.3840    4.1950   23.6078 H       1  UNL1        0.1453
@<TRIPOS>BOND
     1     2     1    1
     2     2    22    1
     3    22    23   ar
     4    23    24   ar
     5    24    25   ar
     6    25    28    1
     7    28    29   ar
     8    29    30   ar
     9    30    31   ar
    10    31    34    1
    11    34    35   am
    12    34    36    2
    13    31    32   ar
    14    32    33   ar
    15    25    26   ar
    16    26    27   ar
    17     2     3    1
    18     3     4    1
    19     4     5    1
    20     5     6    1
    21     6    16    1
    22    16    17    1
    23    17    18    1
    24    17    19    1
    25    17    20    1
    26     6    10    1
    27    10    11   ar
    28    11    12   ar
    29    12    13   ar
    30    13    14   ar
    31    14    15   ar
    32     6     7    1
    33     7     8    1
    34     8     9    2
    35    27    22   ar
    36     8     3   am
    37    33    28   ar
    38    15    10   ar
    39    35    37    1
    40    35    38    1
    41    20    21    1
@<TRIPOS>MOLECULE
*****
 38 41 0 0 0
SMALL
GASTEIGER

@<TRIPOS>ATOM
      1 C          -0.2510    3.1785   17.8997 C.3     1  UNL1        0.0265
      2 C          -0.0810    2.7124   19.3153 C.3     1  UNL1        0.1011
      3 N           1.0454    1.7876   19.6702 N.am    1  UNL1       -0.2438
      4 C           0.8281    0.3035   19.6626 C.3     1  UNL1        0.1009
      5 C           1.9545   -0.6213   20.0175 C.3     1  UNL1        0.0662
      6 C           3.2983   -0.0619   20.3801 C.3     1  UNL1        0.1600
      7 O           3.5156    1.4223   20.3877 O.3     1  UNL1       -0.4374
      8 C           2.3892    2.3471   20.0328 C.2     1  UNL1        0.4051
      9 O           2.6065    3.8312   20.0404 O.2     1  UNL1       -0.2262
     10 C           3.5818   -1.5288   20.5146 C.ar    1  UNL1        0.0138
     11 C           3.3700   -2.4439   19.3451 C.ar    1  UNL1       -0.0010
     12 C           3.6535   -3.9107   19.4797 C.ar    1  UNL1       -0.0002
     13 C           4.1489   -4.4623   20.7836 C.ar    1  UNL1       -0.0000
     14 C           4.3607   -3.5472   21.9531 C.ar    1  UNL1       -0.0002
     15 C           4.0772   -2.0803   21.8186 C.ar    1  UNL1       -0.0010
     16 C           4.7405   -0.0120   20.7893 C.3     1  UNL1        0.0714
     17 C           5.6332    1.0711   20.2602 C.3     1  UNL1        0.0922
     18 C           5.7570    1.6438   21.6411 C.3     1  UNL1        0.0294
     19 C           5.5095    0.4984   18.8794 C.3     1  UNL1        0.0294
     20 O           6.5259    2.1541   19.7311 O.3     1  UNL1       -0.3866
     21 H           6.7938    2.7367   20.4590 H       1  UNL1        0.2102
     22 C          -1.0374    3.1711   20.3760 C.ar    1  UNL1       -0.0042
     23 C          -0.6181    3.1676   21.8162 C.ar    1  UNL1       -0.0026
     24 C          -1.5745    3.6263   22.8768 C.ar    1  UNL1        0.0012
     25 C          -2.9501    4.0885   22.4972 C.ar    1  UNL1        0.0176
     26 C          -3.3693    4.0920   21.0570 C.ar    1  UNL1        0.0012
     27 C          -2.4130    3.6333   19.9964 C.ar    1  UNL1       -0.0026
     28 C          -3.9065    4.5472   23.5579 C.ar    1  UNL1        0.0813
     29 C          -3.9303    3.8634   24.8927 C.ar    1  UNL1        0.0193
     30 C          -4.8867    4.3221   25.9534 C.ar    1  UNL1        0.0076
     31 C          -5.8192    5.4646   25.6792 C.ar    1  UNL1        0.0723
     32 C          -5.7953    6.1484   24.3443 C.ar    1  UNL1        0.1033
     33 N          -4.8389    5.6897   23.2837 N.ar    1  UNL1       -0.2437
     34 C          -6.7755    5.9233   26.7398 C.2     1  UNL1        0.2443
     35 N          -6.2968    6.1177   28.1480 N.am    1  UNL1       -0.3253
     36 O          -8.2105    6.1877   26.3922 O.2     1  UNL1       -0.2703
     37 H          -5.3550    5.9442   28.3761 H       1  UNL1        0.1453
     38 H          -6.9245    6.4188   28.8442 H       1  UNL1        0.1453
@<TRIPOS>BOND
     1     2     1    1
     2     2    22    1
     3    22    23   ar
     4    23    24   ar
     5    24    25   ar
     6    25    28    1
     7    28    29   ar
     8    29    30   ar
     9    30    31   ar
    10    31    34    1
    11    34    35   am
    12    34    36    2
    13    31    32   ar
    14    32    33   ar
    15    25    26   ar
    16    26    27   ar
    17     2     3    1
    18     3     4    1
    19     4     5    1
    20     5     6    1
    21     6    16    1
    22    16    17    1
    23    17    18    1
    24    17    19    1
    25    17    20    1
    26     6    10    1
    27    10    11   ar
    28    11    12   ar
    29    12    13   ar
    30    13    14   ar
    31    14    15   ar
    32     6     7    1
    33     7     8    1
    34     8     9    2
    35    27    22   ar
    36     8     3   am
    37    33    28   ar
    38    15    10   ar
    39    35    37    1
    40    35    38    1
    41    20    21    1
@<TRIPOS>MOLECULE
*****
 38 41 0 0 0
SMALL
GASTEIGER

@<TRIPOS>ATOM
      1 C           3.3253    3.4937   18.7057 C.3     1  UNL1        0.0265
      2 C           2.5675    2.5364   19.5771 C.3     1  UNL1        0.1011
      3 N           3.2190    1.2672   20.0403 N.am    1  UNL1       -0.2438
      4 C           3.9856    1.2448   21.3294 C.3     1  UNL1        0.1009
      5 C           4.6371   -0.0245   21.7927 C.3     1  UNL1        0.0662
      6 C           4.5220   -1.2713   20.9668 C.3     1  UNL1        0.1600
      7 O           3.7554   -1.2490   19.6777 O.3     1  UNL1       -0.4374
      8 C           3.1039    0.0203   19.2144 C.2     1  UNL1        0.4051
      9 O           2.3373    0.0426   17.9253 O.2     1  UNL1       -0.2262
     10 C           5.3483   -1.7892   22.1066 C.ar    1  UNL1        0.0138
     11 C           4.9311   -3.0353   22.8299 C.ar    1  UNL1       -0.0010
     12 C           5.7574   -3.5532   23.9697 C.ar    1  UNL1       -0.0002
     13 C           7.0008   -2.8249   24.3861 C.ar    1  UNL1       -0.0000
     14 C           7.4180   -1.5788   23.6629 C.ar    1  UNL1       -0.0002
     15 C           6.5917   -1.0609   22.5231 C.ar    1  UNL1       -0.0010
     16 C           4.6939   -2.6981   20.5368 C.3     1  UNL1        0.0714
     17 C           4.9037   -3.0246   19.0879 C.3     1  UNL1        0.0922
     18 C           6.1587   -2.2030   19.0845 C.3     1  UNL1        0.0294
     19 C           3.6487   -3.8461   19.0913 C.3     1  UNL1        0.0294
     20 O           5.1135   -3.3511   17.6390 O.3     1  UNL1       -0.3866
     21 H           5.9239   -2.9206   17.3247 H       1  UNL1        0.2102
     22 C           1.1582    2.8483   19.9853 C.ar    1  UNL1       -0.0042
     23 C           0.1641    3.3060   18.9595 C.ar    1  UNL1       -0.0026
     24 C          -1.2451    3.6179   19.3676 C.ar    1  UNL1        0.0012
     25 C          -1.6603    3.4721   20.8016 C.ar    1  UNL1        0.0176
     26 C          -0.6663    3.0144   21.8274 C.ar    1  UNL1        0.0012
     27 C           0.7430    2.7025   21.4193 C.ar    1  UNL1       -0.0026
     28 C          -3.0697    3.7840   21.2098 C.ar    1  UNL1        0.0813
     29 C          -4.0562    4.2689   20.1892 C.ar    1  UNL1        0.0193
     30 C          -5.4656    4.5808   20.5974 C.ar    1  UNL1        0.0076
     31 C          -5.8883    4.4078   22.0261 C.ar    1  UNL1        0.0723
     32 C          -4.9017    3.9229   23.0467 C.ar    1  UNL1        0.1033
     33 N          -3.4925    3.6110   22.6386 N.ar    1  UNL1       -0.2437
     34 C          -7.2976    4.7197   22.4343 C.2     1  UNL1        0.2443
     35 N          -8.0145    3.8233   23.4000 N.am    1  UNL1       -0.3253
     36 O          -7.9899    5.9279   21.8769 O.2     1  UNL1       -0.2703
     37 H          -7.5600    3.0303   23.7659 H       1  UNL1        0.1453
     38 H          -8.9394    4.0280   23.6679 H       1  UNL1        0.1453
@<TRIPOS>BOND
     1     2     1    1
     2     2    22    1
     3    22    23   ar
     4    23    24   ar
     5    24    25   ar
     6    25    28    1
     7    28    29   ar
     8    29    30   ar
     9    30    31   ar
    10    31    34    1
    11    34    35   am
    12    34    36    2
    13    31    32   ar
    14    32    33   ar
    15    25    26   ar
    16    26    27   ar
    17     2     3    1
    18     3     4    1
    19     4     5    1
    20     5     6    1
    21     6    16    1
    22    16    17    1
    23    17    18    1
    24    17    19    1
    25    17    20    1
    26     6    10    1
    27    10    11   ar
    28    11    12   ar
    29    12    13   ar
    30    13    14   ar
    31    14    15   ar
    32     6     7    1
    33     7     8    1
    34     8     9    2
    35    27    22   ar
    36     8     3   am
    37    33    28   ar
    38    15    10   ar
    39    35    37    1
    40    35    38    1
    41    20    21    1
@<TRIPOS>MOLECULE
*****
 38 41 0 0 0
SMALL
GASTEIGER

@<TRIPOS>ATOM
      1 C           8.8895    1.3407   35.8344 C.3     1  UNL1        0.0265
      2 C           7.6404    0.7041   35.3011 C.3     1  UNL1        0.1011
      3 N           6.2967    1.2024   35.7440 N.am    1  UNL1       -0.2438
      4 C           5.6288    0.5947   36.9417 C.3     1  UNL1        0.1009
      5 C           4.2851    1.0930   37.3846 C.3     1  UNL1        0.0662
      6 C           3.6093    2.1991   36.6297 C.3     1  UNL1        0.1600
      7 O           4.2771    2.8069   35.4319 O.3     1  UNL1       -0.4374
      8 C           5.6208    2.3085   34.9890 C.2     1  UNL1        0.4051
      9 O           6.2887    2.9162   33.7913 O.2     1  UNL1       -0.2262
     10 C           2.5828    1.9448   37.6936 C.ar    1  UNL1        0.0138
     11 C           2.4739    0.5868   38.3214 C.ar    1  UNL1       -0.0010
     12 C           1.4475    0.3326   39.3853 C.ar    1  UNL1       -0.0002
     13 C           0.5301    1.4363   39.8214 C.ar    1  UNL1       -0.0000
     14 C           0.6391    2.7943   39.1936 C.ar    1  UNL1       -0.0002
     15 C           1.6655    3.0485   38.1297 C.ar    1  UNL1       -0.0010
     16 C           2.5769    3.2169   36.2443 C.3     1  UNL1        0.0714
     17 C           2.6255    3.8585   34.8894 C.3     1  UNL1        0.0922
     18 C           2.0558    2.6124   34.2788 C.3     1  UNL1        0.0294
     19 C           3.1952    5.1045   35.4999 C.3     1  UNL1        0.0294
     20 O           2.6741    4.5000   33.5344 O.3     1  UNL1       -0.3866
     21 H           2.3373    3.8786   32.8701 H       1  UNL1        0.2102
     22 C           7.7349   -0.4309   34.3249 C.ar    1  UNL1       -0.0042
     23 C           9.0592   -1.0834   34.0593 C.ar    1  UNL1       -0.0026
     24 C           9.1537   -2.2183   33.0832 C.ar    1  UNL1        0.0012
     25 C           7.9239   -2.7008   32.3726 C.ar    1  UNL1        0.0176
     26 C           6.5997   -2.0484   32.6382 C.ar    1  UNL1        0.0012
     27 C           6.5052   -0.9135   33.6144 C.ar    1  UNL1       -0.0026
     28 C           8.0185   -3.8359   31.3964 C.ar    1  UNL1        0.0813
     29 C           6.7921   -4.3064   30.6723 C.ar    1  UNL1        0.0193
     30 C           6.8867   -5.4414   29.6961 C.ar    1  UNL1        0.0076
     31 C           8.2077   -6.1058   29.4441 C.ar    1  UNL1        0.0723
     32 C           9.4341   -5.6352   30.1683 C.ar    1  UNL1        0.1033
     33 N           9.3395   -4.5003   31.1445 N.ar    1  UNL1       -0.2437
     34 C           8.3023   -7.2408   28.4680 C.2     1  UNL1        0.2443
     35 N           7.2566   -7.4050   27.4052 N.am    1  UNL1       -0.3253
     36 O           9.4425   -8.2115   28.5547 O.2     1  UNL1       -0.2703
     37 H           6.5083   -6.7679   27.3483 H       1  UNL1        0.1453
     38 H           7.3187   -8.1499   26.7645 H       1  UNL1        0.1453
@<TRIPOS>BOND
     1     2     1    1
     2     2    22    1
     3    22    23   ar
     4    23    24   ar
     5    24    25   ar
     6    25    28    1
     7    28    29   ar
     8    29    30   ar
     9    30    31   ar
    10    31    34    1
    11    34    35   am
    12    34    36    2
    13    31    32   ar
    14    32    33   ar
    15    25    26   ar
    16    26    27   ar
    17     2     3    1
    18     3     4    1
    19     4     5    1
    20     5     6    1
    21     6    16    1
    22    16    17    1
    23    17    18    1
    24    17    19    1
    25    17    20    1
    26     6    10    1
    27    10    11   ar
    28    11    12   ar
    29    12    13   ar
    30    13    14   ar
    31    14    15   ar
    32     6     7    1
    33     7     8    1
    34     8     9    2
    35    27    22   ar
    36     8     3   am
    37    33    28   ar
    38    15    10   ar
    39    35    37    1
    40    35    38    1
    41    20    21    1
@<TRIPOS>MOLECULE
*****
 38 41 0 0 0
SMALL
GASTEIGER

@<TRIPOS>ATOM
      1 C           7.0907   -2.0188   18.4070 C.3     1  UNL1        0.0265
      2 C           6.4169   -1.8377   19.7349 C.3     1  UNL1        0.1011
      3 N           5.4654   -0.6971   19.9438 N.am    1  UNL1       -0.2438
      4 C           5.9555    0.5888   20.5405 C.3     1  UNL1        0.1009
      5 C           5.0040    1.7294   20.7493 C.3     1  UNL1        0.0662
      6 C           3.5623    1.5841   20.3615 C.3     1  UNL1        0.1600
      7 O           3.0721    0.2981   19.7648 O.3     1  UNL1       -0.4374
      8 C           4.0237   -0.8425   19.5559 C.2     1  UNL1        0.4051
      9 O           3.5335   -2.1285   18.9592 O.2     1  UNL1       -0.2262
     10 C           3.5503    2.9890   20.8869 C.ar    1  UNL1        0.0138
     11 C           3.9998    3.2687   22.2904 C.ar    1  UNL1       -0.0010
     12 C           3.9878    4.6737   22.8158 C.ar    1  UNL1       -0.0002
     13 C           3.5263    5.7988   21.9377 C.ar    1  UNL1       -0.0000
     14 C           3.0768    5.5191   20.5342 C.ar    1  UNL1       -0.0002
     15 C           3.0888    4.1141   20.0088 C.ar    1  UNL1       -0.0010
     16 C           2.1164    1.9266   20.1561 C.3     1  UNL1        0.0714
     17 C           1.0695    0.8581   20.2663 C.3     1  UNL1        0.0922
     18 C           0.8216    0.9488   18.7896 C.3     1  UNL1        0.0294
     19 C           1.3174    0.7674   21.7428 C.3     1  UNL1        0.0294
     20 O           0.0226   -0.2105   20.3763 O.3     1  UNL1       -0.3866
     21 H          -0.3542   -0.3854   19.4997 H       1  UNL1        0.2102
     22 C           6.6947   -2.7973   20.8539 C.ar    1  UNL1       -0.0042
     23 C           7.9257   -3.6535   20.8195 C.ar    1  UNL1       -0.0026
     24 C           8.2035   -4.6130   21.9385 C.ar    1  UNL1        0.0012
     25 C           7.2501   -4.7162   23.0920 C.ar    1  UNL1        0.0176
     26 C           6.0190   -3.8599   23.1264 C.ar    1  UNL1        0.0012
     27 C           5.7413   -2.9005   22.0074 C.ar    1  UNL1       -0.0026
     28 C           7.5279   -5.6757   24.2110 C.ar    1  UNL1        0.0813
     29 C           8.3682   -6.8934   23.9637 C.ar    1  UNL1        0.0193
     30 C           8.6460   -7.8529   25.0828 C.ar    1  UNL1        0.0076
     31 C           8.0833   -7.5948   26.4491 C.ar    1  UNL1        0.0723
     32 C           7.2430   -6.3771   26.6964 C.ar    1  UNL1        0.1033
     33 N           6.9652   -5.4176   25.5773 N.ar    1  UNL1       -0.2437
     34 C           8.3611   -8.5542   27.5681 C.2     1  UNL1        0.2443
     35 N           7.6110   -9.8507   27.6479 N.am    1  UNL1       -0.3253
     36 O           9.3889   -8.2172   28.6074 O.2     1  UNL1       -0.2703
     37 H           6.9364  -10.0719   26.9658 H       1  UNL1        0.1453
     38 H           7.7932  -10.4805   28.3824 H       1  UNL1        0.1453
@<TRIPOS>BOND
     1     2     1    1
     2     2    22    1
     3    22    23   ar
     4    23    24   ar
     5    24    25   ar
     6    25    28    1
     7    28    29   ar
     8    29    30   ar
     9    30    31   ar
    10    31    34    1
    11    34    35   am
    12    34    36    2
    13    31    32   ar
    14    32    33   ar
    15    25    26   ar
    16    26    27   ar
    17     2     3    1
    18     3     4    1
    19     4     5    1
    20     5     6    1
    21     6    16    1
    22    16    17    1
    23    17    18    1
    24    17    19    1
    25    17    20    1
    26     6    10    1
    27    10    11   ar
    28    11    12   ar
    29    12    13   ar
    30    13    14   ar
    31    14    15   ar
    32     6     7    1
    33     7     8    1
    34     8     9    2
    35    27    22   ar
    36     8     3   am
    37    33    28   ar
    38    15    10   ar
    39    35    37    1
    40    35    38    1
    41    20    21    1
@<TRIPOS>MOLECULE
*****
 38 41 0 0 0
SMALL
GASTEIGER

@<TRIPOS>ATOM
      1 C           1.3753    1.7779   28.8621 C.3     1  UNL1        0.0265
      2 C           2.5856    0.9329   28.5955 C.3     1  UNL1        0.1011
      3 N           3.5703    0.6652   29.6950 N.am    1  UNL1       -0.2438
      4 C           4.8411    1.4583   29.7732 C.3     1  UNL1        0.1009
      5 C           5.8258    1.1905   30.8726 C.3     1  UNL1        0.0662
      6 C           5.5397    0.1298   31.8938 C.3     1  UNL1        0.1600
      7 O           4.2689   -0.6633   31.8156 O.3     1  UNL1       -0.4374
      8 C           3.2842   -0.3956   30.7162 C.2     1  UNL1        0.4051
      9 O           2.0134   -1.1887   30.6380 O.2     1  UNL1       -0.2262
     10 C           6.8718    0.6127   32.3860 C.ar    1  UNL1        0.0138
     11 C           6.9932    1.2109   33.7562 C.ar    1  UNL1       -0.0010
     12 C           8.3253    1.6939   34.2484 C.ar    1  UNL1       -0.0002
     13 C           9.5360    1.5785   33.3705 C.ar    1  UNL1       -0.0000
     14 C           9.4147    0.9803   32.0003 C.ar    1  UNL1       -0.0002
     15 C           8.0825    0.4974   31.5080 C.ar    1  UNL1       -0.0010
     16 C           5.7163   -0.7633   33.0860 C.3     1  UNL1        0.0714
     17 C           4.8359   -1.9652   33.2596 C.3     1  UNL1        0.0922
     18 C           5.6557   -2.7117   32.2493 C.3     1  UNL1        0.0294
     19 C           4.0161   -1.2188   34.2699 C.3     1  UNL1        0.0294
     20 O           3.9555   -3.1672   33.4332 O.3     1  UNL1       -0.3866
     21 H           4.2656   -3.8814   32.8547 H       1  UNL1        0.2102
     22 C           2.8113    0.3556   27.2296 C.ar    1  UNL1       -0.0042
     23 C           3.6896   -0.8484   27.0599 C.ar    1  UNL1       -0.0026
     24 C           3.9152   -1.4257   25.6940 C.ar    1  UNL1        0.0012
     25 C           3.2625   -0.7990   24.4977 C.ar    1  UNL1        0.0176
     26 C           2.3842    0.4050   24.6673 C.ar    1  UNL1        0.0012
     27 C           2.1586    0.9823   26.0332 C.ar    1  UNL1       -0.0026
     28 C           3.4882   -1.3763   23.1317 C.ar    1  UNL1        0.0813
     29 C           2.8300   -0.7538   21.9363 C.ar    1  UNL1        0.0193
     30 C           3.0557   -1.3311   20.5703 C.ar    1  UNL1        0.0076
     31 C           3.9396   -2.5310   20.3999 C.ar    1  UNL1        0.0723
     32 C           4.5978   -3.1535   21.5954 C.ar    1  UNL1        0.1033
     33 N           4.3721   -2.5762   22.9613 N.ar    1  UNL1       -0.2437
     34 C           4.1653   -3.1083   19.0340 C.2     1  UNL1        0.2443
     35 N           4.2266   -2.2045   17.8385 N.am    1  UNL1       -0.3253
     36 O           4.3296   -4.5895   18.8636 O.2     1  UNL1       -0.2703
     37 H           4.1187   -1.2323   17.9503 H       1  UNL1        0.1453
     38 H           4.3747   -2.5834   16.9420 H       1  UNL1        0.1453
@<TRIPOS>BOND
     1     2     1    1
     2     2    22    1
     3    22    23   ar
     4    23    24   ar
     5    24    25   ar
     6    25    28    1
     7    28    29   ar
     8    29    30   ar
     9    30    31   ar
    10    31    34    1
    11    34    35   am
    12    34    36    2
    13    31    32   ar
    14    32    33   ar
    15    25    26   ar
    16    26    27   ar
    17     2     3    1
    18     3     4    1
    19     4     5    1
    20     5     6    1
    21     6    16    1
    22    16    17    1
    23    17    18    1
    24    17    19    1
    25    17    20    1
    26     6    10    1
    27    10    11   ar
    28    11    12   ar
    29    12    13   ar
    30    13    14   ar
    31    14    15   ar
    32     6     7    1
    33     7     8    1
    34     8     9    2
    35    27    22   ar
    36     8     3   am
    37    33    28   ar
    38    15    10   ar
    39    35    37    1
    40    35    38    1
    41    20    21    1
@<TRIPOS>MOLECULE
*****
 38 41 0 0 0
SMALL
GASTEIGER

@<TRIPOS>ATOM
      1 C           3.5240   -3.5604   19.0617 C.3     1  UNL1        0.0265
      2 C           3.6488   -2.4676   20.0816 C.3     1  UNL1        0.1011
      3 N           3.0704   -1.1119   19.8028 N.am    1  UNL1       -0.2438
      4 C           1.6020   -0.8700   19.9902 C.3     1  UNL1        0.1009
      5 C           1.0236    0.4856   19.7114 C.3     1  UNL1        0.0662
      6 C           1.9136    1.5994   19.2452 C.3     1  UNL1        0.1600
      7 O           3.3821    1.3575   19.0577 O.3     1  UNL1       -0.4374
      8 C           3.9605    0.0018   19.3365 C.2     1  UNL1        0.4051
      9 O           5.4289   -0.2401   19.1491 O.2     1  UNL1       -0.2262
     10 C           0.5952    2.3143   19.2742 C.ar    1  UNL1        0.0138
     11 C           0.1235    3.0670   18.0656 C.ar    1  UNL1       -0.0010
     12 C          -1.1949    3.7819   18.0946 C.ar    1  UNL1       -0.0002
     13 C          -2.0414    3.7441   19.3323 C.ar    1  UNL1       -0.0000
     14 C          -1.5697    2.9915   20.5410 C.ar    1  UNL1       -0.0002
     15 C          -0.2513    2.2765   20.5120 C.ar    1  UNL1       -0.0010
     16 C           2.3458    2.9614   18.7890 C.3     1  UNL1        0.0714
     17 C           3.6331    3.5465   19.2894 C.3     1  UNL1        0.0922
     18 C           3.1242    3.4617   20.6979 C.3     1  UNL1        0.0294
     19 C           4.1420    3.6313   17.8810 C.3     1  UNL1        0.0294
     20 O           4.9204    4.1315   19.7899 O.3     1  UNL1       -0.3866
     21 H           4.8876    4.2059   20.7565 H       1  UNL1        0.2102
     22 C           4.3519   -2.7303   21.3803 C.ar    1  UNL1       -0.0042
     23 C           3.9130   -2.0221   22.6275 C.ar    1  UNL1       -0.0026
     24 C           4.6161   -2.2849   23.9261 C.ar    1  UNL1        0.0012
     25 C           5.7582   -3.2559   23.9775 C.ar    1  UNL1        0.0176
     26 C           6.1971   -3.9642   22.7303 C.ar    1  UNL1        0.0012
     27 C           5.4940   -3.7014   21.4317 C.ar    1  UNL1       -0.0026
     28 C           6.4614   -3.5187   25.2762 C.ar    1  UNL1        0.0813
     29 C           6.6118   -2.4178   26.2838 C.ar    1  UNL1        0.0193
     30 C           7.3150   -2.6806   27.5825 C.ar    1  UNL1        0.0076
     31 C           7.8676   -4.0443   27.8736 C.ar    1  UNL1        0.0723
     32 C           7.7171   -5.1453   26.8659 C.ar    1  UNL1        0.1033
     33 N           7.0140   -4.8825   25.5673 N.ar    1  UNL1       -0.2437
     34 C           8.5708   -4.3071   29.1722 C.2     1  UNL1        0.2443
     35 N           9.0684   -3.1603   30.0011 N.am    1  UNL1       -0.3253
     36 O           8.7763   -5.7168   29.6420 O.2     1  UNL1       -0.2703
     37 H           8.9335   -2.2351   29.6928 H       1  UNL1        0.1453
     38 H           9.5299   -3.3328   30.8535 H       1  UNL1        0.1453
@<TRIPOS>BOND
     1     2     1    1
     2     2    22    1
     3    22    23   ar
     4    23    24   ar
     5    24    25   ar
     6    25    28    1
     7    28    29   ar
     8    29    30   ar
     9    30    31   ar
    10    31    34    1
    11    34    35   am
    12    34    36    2
    13    31    32   ar
    14    32    33   ar
    15    25    26   ar
    16    26    27   ar
    17     2     3    1
    18     3     4    1
    19     4     5    1
    20     5     6    1
    21     6    16    1
    22    16    17    1
    23    17    18    1
    24    17    19    1
    25    17    20    1
    26     6    10    1
    27    10    11   ar
    28    11    12   ar
    29    12    13   ar
    30    13    14   ar
    31    14    15   ar
    32     6     7    1
    33     7     8    1
    34     8     9    2
    35    27    22   ar
    36     8     3   am
    37    33    28   ar
    38    15    10   ar
    39    35    37    1
    40    35    38    1
    41    20    21    1
@<TRIPOS>MOLECULE
*****
 38 41 0 0 0
SMALL
GASTEIGER

@<TRIPOS>ATOM
      1 C          -0.3128    2.5860   21.2657 C.3     1  UNL1        0.0265
      2 C           0.7580    1.9308   22.0867 C.3     1  UNL1        0.1011
      3 N           1.8090    1.0946   21.4188 N.am    1  UNL1       -0.2438
      4 C           1.6753   -0.3992   21.3943 C.3     1  UNL1        0.1009
      5 C           2.7263   -1.2355   20.7264 C.3     1  UNL1        0.0662
      6 C           3.9110   -0.5779   20.0830 C.3     1  UNL1        0.1600
      7 O           4.0447    0.9160   20.1074 O.3     1  UNL1       -0.4374
      8 C           2.9937    1.7522   20.7753 C.2     1  UNL1        0.4051
      9 O           3.1274    3.2460   20.7998 O.2     1  UNL1       -0.2262
     10 C           4.2268   -2.0170   19.8011 C.ar    1  UNL1        0.0138
     11 C           5.6070   -2.5459   20.0567 C.ar    1  UNL1       -0.0010
     12 C           5.9229   -3.9849   19.7748 C.ar    1  UNL1       -0.0002
     13 C           4.8585   -4.8949   19.2372 C.ar    1  UNL1       -0.0000
     14 C           3.4783   -4.3660   18.9816 C.ar    1  UNL1       -0.0002
     15 C           3.1625   -2.9270   19.2635 C.ar    1  UNL1       -0.0010
     16 C           5.2054   -0.4201   19.3416 C.3     1  UNL1        0.0714
     17 C           5.3857    0.7177   18.3811 C.3     1  UNL1        0.0922
     18 C           6.4713    1.2797   19.2504 C.3     1  UNL1        0.0294
     19 C           4.3001    0.1559   17.5118 C.3     1  UNL1        0.0294
     20 O           5.5660    1.8557   17.4206 O.3     1  UNL1       -0.3866
     21 H           6.2667    2.4435   17.7436 H       1  UNL1        0.2102
     22 C           0.7778    2.1118   23.5756 C.ar    1  UNL1       -0.0042
     23 C           1.7394    3.0784   24.2009 C.ar    1  UNL1       -0.0026
     24 C           1.7592    3.2593   25.6898 C.ar    1  UNL1        0.0012
     25 C           0.8174    2.4737   26.5534 C.ar    1  UNL1        0.0176
     26 C          -0.1442    1.5072   25.9281 C.ar    1  UNL1        0.0012
     27 C          -0.1640    1.3262   24.4392 C.ar    1  UNL1       -0.0026
     28 C           0.8372    2.6547   28.0424 C.ar    1  UNL1        0.0813
     29 C           0.4130    1.5306   28.9403 C.ar    1  UNL1        0.0193
     30 C           0.4328    1.7116   30.4292 C.ar    1  UNL1        0.0076
     31 C           0.8768    3.0168   31.0202 C.ar    1  UNL1        0.0723
     32 C           1.3011    4.1410   30.1222 C.ar    1  UNL1        0.1033
     33 N           1.2812    3.9599   28.6334 N.ar    1  UNL1       -0.2437
     34 C           0.8967    3.1978   32.5091 C.2     1  UNL1        0.2443
     35 N           1.3941    2.0923   33.3924 N.am    1  UNL1       -0.3253
     36 O           0.4190    4.4843   33.1146 O.2     1  UNL1       -0.2703
     37 H           1.7076    1.2479   32.9950 H       1  UNL1        0.1453
     38 H           1.4072    2.2111   34.3696 H       1  UNL1        0.1453
@<TRIPOS>BOND
     1     2     1    1
     2     2    22    1
     3    22    23   ar
     4    23    24   ar
     5    24    25   ar
     6    25    28    1
     7    28    29   ar
     8    29    30   ar
     9    30    31   ar
    10    31    34    1
    11    34    35   am
    12    34    36    2
    13    31    32   ar
    14    32    33   ar
    15    25    26   ar
    16    26    27   ar
    17     2     3    1
    18     3     4    1
    19     4     5    1
    20     5     6    1
    21     6    16    1
    22    16    17    1
    23    17    18    1
    24    17    19    1
    25    17    20    1
    26     6    10    1
    27    10    11   ar
    28    11    12   ar
    29    12    13   ar
    30    13    14   ar
    31    14    15   ar
    32     6     7    1
    33     7     8    1
    34     8     9    2
    35    27    22   ar
    36     8     3   am
    37    33    28   ar
    38    15    10   ar
    39    35    37    1
    40    35    38    1
    41    20    21    1
