@<TRIPOS>MOLECULE
*****
 22 24 0 0 0
SMALL
GASTEIGER

@<TRIPOS>ATOM
      1 C          -9.4715  -18.8972   21.3247 C.ar    1  UNL1        0.0261
      2 C         -10.4879  -18.2680   20.4186 C.ar    1  UNL1        0.0077
      3 C         -11.8475  -17.9170   20.9460 C.ar    1  UNL1        0.0202
      4 C         -12.1907  -18.1951   22.3795 C.ar    1  UNL1        0.0893
      5 N         -13.4399  -17.9605   23.1762 N.ar    1  UNL1       -0.2245
      6 C         -13.1954  -18.4448   24.5747 C.ar    1  UNL1        0.1567
      7 N         -14.1786  -18.4027   25.7068 N.pl3   1  UNL1       -0.3375
      8 S         -11.7952  -18.9786   24.6423 S.2     1  UNL1       -0.0520
      9 C         -11.1743  -18.8242   23.2856 C.ar    1  UNL1        0.0502
     10 C          -9.8147  -19.1753   22.7582 C.ar    1  UNL1        0.0142
     11 H         -15.0790  -18.0312   25.5634 H       1  UNL1        0.1442
     12 H         -13.9235  -18.7465   26.5934 H       1  UNL1        0.1442
     13 S          -8.1118  -19.2483   20.7974 S.3     1  UNL1       -0.1088
     14 C          -7.0110  -19.6167   21.7474 C.3     1  UNL1        0.0884
     15 C          -2.7167  -18.9338   20.5888 C.ar    1  UNL1        0.0684
     16 C          -3.0894  -19.0796   22.0344 C.ar    1  UNL1        0.0100
     17 C          -4.5208  -19.3073   22.4206 C.ar    1  UNL1       -0.0027
     18 C          -5.5795  -19.3891   21.3612 C.ar    1  UNL1       -0.0110
     19 C          -5.2068  -19.2432   19.9156 C.ar    1  UNL1       -0.0027
     20 C          -3.7754  -19.0156   19.5294 C.ar    1  UNL1        0.0100
     21 N           0.1462  -18.4786   19.8165 N.1     1  UNL1       -0.1908
     22 C          -1.2852  -18.7062   20.2027 C.1     1  UNL1        0.1004
@<TRIPOS>BOND
     1    21    22    3
     2    22    15    1
     3    15    16   ar
     4    16    17   ar
     5    17    18   ar
     6    18    14    1
     7    14    13    1
     8    13     1    1
     9     1     2   ar
    10     2     3   ar
    11     3     4   ar
    12     4     5   ar
    13     5     6   ar
    14     6     7    1
    15     6     8   ar
    16     8     9   ar
    17     9    10   ar
    18    18    19   ar
    19    19    20   ar
    20    20    15   ar
    21    10     1   ar
    22     9     4   ar
    23     7    11    1
    24     7    12    1
@<TRIPOS>MOLECULE
*****
 22 24 0 0 0
SMALL
GASTEIGER

@<TRIPOS>ATOM
      1 C          -5.3427  -19.6748   20.8128 C.ar    1  UNL1        0.0261
      2 C          -5.0602  -19.3045   22.2386 C.ar    1  UNL1        0.0077
      3 C          -3.7868  -18.5945   22.5909 C.ar    1  UNL1        0.0202
      4 C          -2.7958  -18.2548   21.5174 C.ar    1  UNL1        0.0893
      5 N          -1.4650  -17.5639   21.5620 N.ar    1  UNL1       -0.2245
      6 C          -0.9251  -17.5073   20.1637 C.ar    1  UNL1        0.1567
      7 N           0.3824  -16.9012   19.7473 N.pl3   1  UNL1       -0.3375
      8 S          -1.9221  -18.1631   19.2549 S.2     1  UNL1       -0.0520
      9 C          -3.0782  -18.6251   20.0915 C.ar    1  UNL1        0.0502
     10 C          -4.3517  -19.3351   19.7392 C.ar    1  UNL1        0.0142
     11 H           0.9720  -16.4918   20.4211 H       1  UNL1        0.1442
     12 H           0.6508  -16.9128   18.8002 H       1  UNL1        0.1442
     13 S          -6.6162  -20.3849   20.4604 S.3     1  UNL1       -0.1088
     14 C          -7.7573  -19.6224   19.8550 C.3     1  UNL1        0.0884
     15 C         -11.3684  -18.6218   22.3467 C.ar    1  UNL1        0.0684
     16 C         -10.0673  -18.9584   23.0130 C.ar    1  UNL1        0.0100
     17 C          -8.8636  -19.2919   22.1825 C.ar    1  UNL1       -0.0027
     18 C          -8.9610  -19.2888   20.6857 C.ar    1  UNL1       -0.0110
     19 C         -10.2621  -18.9523   20.0194 C.ar    1  UNL1       -0.0027
     20 C         -11.4658  -18.6188   20.8499 C.ar    1  UNL1        0.0100
     21 N         -13.7758  -17.9548   24.0079 N.1     1  UNL1       -0.1908
     22 C         -12.5722  -18.2883   23.1773 C.1     1  UNL1        0.1004
@<TRIPOS>BOND
     1    21    22    3
     2    22    15    1
     3    15    16   ar
     4    16    17   ar
     5    17    18   ar
     6    18    14    1
     7    14    13    1
     8    13     1    1
     9     1     2   ar
    10     2     3   ar
    11     3     4   ar
    12     4     5   ar
    13     5     6   ar
    14     6     7    1
    15     6     8   ar
    16     8     9   ar
    17     9    10   ar
    18    18    19   ar
    19    19    20   ar
    20    20    15   ar
    21    10     1   ar
    22     9     4   ar
    23     7    11    1
    24     7    12    1
@<TRIPOS>MOLECULE
*****
 22 24 0 0 0
SMALL
GASTEIGER

@<TRIPOS>ATOM
      1 C          -5.5037  -19.4748   21.4035 C.ar    1  UNL1        0.0261
      2 C          -5.1273  -20.4592   20.3363 C.ar    1  UNL1        0.0077
      3 C          -3.7882  -20.3643   19.6671 C.ar    1  UNL1        0.0202
      4 C          -2.8256  -19.2850   20.0652 C.ar    1  UNL1        0.0893
      5 N          -1.4454  -18.9445   19.5865 N.ar    1  UNL1       -0.2245
      6 C          -0.9689  -17.7496   20.3579 C.ar    1  UNL1        0.1567
      7 N           0.3600  -17.0716   20.2014 N.pl3   1  UNL1       -0.3375
      8 S          -2.0546  -17.3517   21.3134 S.2     1  UNL1       -0.0520
      9 C          -3.2021  -18.3006   21.1325 C.ar    1  UNL1        0.0502
     10 C          -4.5412  -18.3955   21.8017 C.ar    1  UNL1        0.0142
     11 H           1.0101  -17.4087   19.5434 H       1  UNL1        0.1442
     12 H           0.5821  -16.2896   20.7568 H       1  UNL1        0.1442
     13 S          -6.8429  -19.5697   22.0728 S.3     1  UNL1       -0.1088
     14 C          -7.9062  -18.5560   21.7700 C.3     1  UNL1        0.0884
     15 C         -11.7738  -18.5965   24.0699 C.ar    1  UNL1        0.0684
     16 C         -11.4842  -17.4815   23.1091 C.ar    1  UNL1        0.0100
     17 C         -10.1950  -17.4680   22.3425 C.ar    1  UNL1       -0.0027
     18 C          -9.1954  -18.5694   22.5366 C.ar    1  UNL1       -0.0110
     19 C          -9.4851  -19.6844   23.4974 C.ar    1  UNL1       -0.0027
     20 C         -10.7742  -19.6979   24.2640 C.ar    1  UNL1        0.0100
     21 N         -14.3522  -18.6235   25.6032 N.1     1  UNL1       -0.1908
     22 C         -13.0631  -18.6100   24.8365 C.1     1  UNL1        0.1004
@<TRIPOS>BOND
     1    21    22    3
     2    22    15    1
     3    15    16   ar
     4    16    17   ar
     5    17    18   ar
     6    18    14    1
     7    14    13    1
     8    13     1    1
     9     1     2   ar
    10     2     3   ar
    11     3     4   ar
    12     4     5   ar
    13     5     6   ar
    14     6     7    1
    15     6     8   ar
    16     8     9   ar
    17     9    10   ar
    18    18    19   ar
    19    19    20   ar
    20    20    15   ar
    21    10     1   ar
    22     9     4   ar
    23     7    11    1
    24     7    12    1
@<TRIPOS>MOLECULE
*****
 22 24 0 0 0
SMALL
GASTEIGER

@<TRIPOS>ATOM
      1 C          -7.8220  -18.9372   21.9915 C.ar    1  UNL1        0.0261
      2 C          -7.5981  -17.6571   22.7407 C.ar    1  UNL1        0.0077
      3 C          -8.5218  -16.4941   22.5311 C.ar    1  UNL1        0.0202
      4 C          -9.6695  -16.6111   21.5723 C.ar    1  UNL1        0.0893
      5 N         -10.7377  -15.6410   21.1623 N.ar    1  UNL1       -0.2245
      6 C         -11.6218  -16.3216   20.1598 C.ar    1  UNL1        0.1567
      7 N         -12.8177  -15.7176   19.4852 N.pl3   1  UNL1       -0.3375
      8 S         -11.1000  -17.7122   19.9502 S.2     1  UNL1       -0.0520
      9 C          -9.8934  -17.8911   20.8232 C.ar    1  UNL1        0.0502
     10 C          -8.9697  -19.0542   21.0327 C.ar    1  UNL1        0.0142
     11 H         -13.0829  -14.7919   19.6897 H       1  UNL1        0.1442
     12 H         -13.3375  -16.2471   18.8380 H       1  UNL1        0.1442
     13 S          -6.8982  -20.1003   22.2010 S.3     1  UNL1       -0.1088
     14 C          -5.9981  -20.5529   21.0898 C.3     1  UNL1        0.0884
     15 C          -2.0050  -18.5696   20.4798 C.ar    1  UNL1        0.0684
     16 C          -2.9196  -18.7893   19.3113 C.ar    1  UNL1        0.0100
     17 C          -4.2506  -19.4504   19.5147 C.ar    1  UNL1       -0.0027
     18 C          -4.6670  -19.8917   20.8864 C.ar    1  UNL1       -0.0110
     19 C          -3.7524  -19.6720   22.0549 C.ar    1  UNL1       -0.0027
     20 C          -2.4214  -19.0110   21.8515 C.ar    1  UNL1        0.0100
     21 N           0.6571  -17.2475   20.0730 N.1     1  UNL1       -0.1908
     22 C          -0.6740  -17.9085   20.2764 C.1     1  UNL1        0.1004
@<TRIPOS>BOND
     1    21    22    3
     2    22    15    1
     3    15    16   ar
     4    16    17   ar
     5    17    18   ar
     6    18    14    1
     7    14    13    1
     8    13     1    1
     9     1     2   ar
    10     2     3   ar
    11     3     4   ar
    12     4     5   ar
    13     5     6   ar
    14     6     7    1
    15     6     8   ar
    16     8     9   ar
    17     9    10   ar
    18    18    19   ar
    19    19    20   ar
    20    20    15   ar
    21    10     1   ar
    22     9     4   ar
    23     7    11    1
    24     7    12    1
@<TRIPOS>MOLECULE
*****
 22 24 0 0 0
SMALL
GASTEIGER

@<TRIPOS>ATOM
      1 C          -7.5088  -19.5128   20.7063 C.ar    1  UNL1        0.0261
      2 C          -6.6882  -20.5379   19.9814 C.ar    1  UNL1        0.0077
      3 C          -5.2139  -20.6374   20.2392 C.ar    1  UNL1        0.0202
      4 C          -4.5602  -19.7117   21.2219 C.ar    1  UNL1        0.0893
      5 N          -3.1381  -19.5749   21.6791 N.ar    1  UNL1       -0.2245
      6 C          -3.0799  -18.4651   22.6866 C.ar    1  UNL1        0.1567
      7 N          -1.8512  -17.9881   23.4028 N.pl3   1  UNL1       -0.3375
      8 S          -4.4659  -17.9161   22.8521 S.2     1  UNL1       -0.0520
      9 C          -5.3808  -18.6866   21.9469 C.ar    1  UNL1        0.0502
     10 C          -6.8551  -18.5871   21.6891 C.ar    1  UNL1        0.0142
     11 H          -0.9816  -18.4142   23.2258 H       1  UNL1        0.1442
     12 H          -1.9145  -17.2488   24.0499 H       1  UNL1        0.1442
     13 S          -8.9832  -19.4133   20.4485 S.3     1  UNL1       -0.1088
     14 C          -9.7393  -18.1919   20.8802 C.3     1  UNL1        0.0884
     15 C         -12.7643  -18.4746   24.1997 C.ar    1  UNL1        0.0684
     16 C         -13.1430  -17.8461   22.8914 C.ar    1  UNL1        0.0100
     17 C         -12.1347  -17.7519   21.7850 C.ar    1  UNL1       -0.0027
     18 C         -10.7477  -18.2861   21.9867 C.ar    1  UNL1       -0.0110
     19 C         -10.3690  -18.9146   23.2950 C.ar    1  UNL1       -0.0027
     20 C         -11.3773  -19.0088   24.4015 C.ar    1  UNL1        0.0100
     21 N         -14.7810  -18.6631   26.4127 N.1     1  UNL1       -0.1908
     22 C         -13.7727  -18.5688   25.3063 C.1     1  UNL1        0.1004
@<TRIPOS>BOND
     1    21    22    3
     2    22    15    1
     3    15    16   ar
     4    16    17   ar
     5    17    18   ar
     6    18    14    1
     7    14    13    1
     8    13     1    1
     9     1     2   ar
    10     2     3   ar
    11     3     4   ar
    12     4     5   ar
    13     5     6   ar
    14     6     7    1
    15     6     8   ar
    16     8     9   ar
    17     9    10   ar
    18    18    19   ar
    19    19    20   ar
    20    20    15   ar
    21    10     1   ar
    22     9     4   ar
    23     7    11    1
    24     7    12    1
@<TRIPOS>MOLECULE
*****
 22 24 0 0 0
SMALL
GASTEIGER

@<TRIPOS>ATOM
      1 C          -8.1359  -19.5392   20.3539 C.ar    1  UNL1        0.0261
      2 C          -9.2089  -19.7545   19.3281 C.ar    1  UNL1        0.0077
      3 C         -10.4959  -18.9892   19.4170 C.ar    1  UNL1        0.0202
      4 C         -10.7099  -18.0086   20.5317 C.ar    1  UNL1        0.0893
      5 N         -11.8657  -17.1164   20.8756 N.ar    1  UNL1       -0.2245
      6 C         -11.5070  -16.3498   22.1140 C.ar    1  UNL1        0.1567
      7 N         -12.3737  -15.3417   22.8090 N.pl3   1  UNL1       -0.3375
      8 S         -10.1296  -16.7681   22.5354 S.2     1  UNL1       -0.0520
      9 C          -9.6369  -17.7933   21.5576 C.ar    1  UNL1        0.0502
     10 C          -8.3499  -18.5586   21.4687 C.ar    1  UNL1        0.0142
     11 H         -13.2680  -15.1333   22.4539 H       1  UNL1        0.1442
     12 H         -12.0482  -14.8886   23.6201 H       1  UNL1        0.1442
     13 S          -6.8489  -20.3045   20.2650 S.3     1  UNL1       -0.1088
     14 C          -5.8357  -20.1985   21.3660 C.3     1  UNL1        0.0884
     15 C          -1.7925  -18.4049   20.5381 C.ar    1  UNL1        0.0684
     16 C          -2.7097  -18.7440   19.4007 C.ar    1  UNL1        0.0100
     17 C          -4.0574  -19.3419   19.6766 C.ar    1  UNL1       -0.0027
     18 C          -4.4879  -19.6006   21.0900 C.ar    1  UNL1       -0.0110
     19 C          -3.5707  -19.2615   22.2274 C.ar    1  UNL1       -0.0027
     20 C          -2.2230  -18.6636   21.9515 C.ar    1  UNL1        0.0100
     21 N           0.9030  -17.2092   19.9860 N.1     1  UNL1       -0.1908
     22 C          -0.4447  -17.8070   20.2621 C.1     1  UNL1        0.1004
@<TRIPOS>BOND
     1    21    22    3
     2    22    15    1
     3    15    16   ar
     4    16    17   ar
     5    17    18   ar
     6    18    14    1
     7    14    13    1
     8    13     1    1
     9     1     2   ar
    10     2     3   ar
    11     3     4   ar
    12     4     5   ar
    13     5     6   ar
    14     6     7    1
    15     6     8   ar
    16     8     9   ar
    17     9    10   ar
    18    18    19   ar
    19    19    20   ar
    20    20    15   ar
    21    10     1   ar
    22     9     4   ar
    23     7    11    1
    24     7    12    1
@<TRIPOS>MOLECULE
*****
 22 24 0 0 0
SMALL
GASTEIGER

@<TRIPOS>ATOM
      1 C          -9.6411  -17.8759   22.6722 C.ar    1  UNL1        0.0261
      2 C         -10.2434  -18.6791   23.7867 C.ar    1  UNL1        0.0077
      3 C          -9.9215  -18.3424   25.2126 C.ar    1  UNL1        0.0202
      4 C          -8.9973  -17.2027   25.5239 C.ar    1  UNL1        0.0893
      5 N          -8.4993  -16.6402   26.8222 N.ar    1  UNL1       -0.2245
      6 C          -7.5892  -15.4894   26.5100 C.ar    1  UNL1        0.1567
      7 N          -6.8698  -14.6370   27.5130 N.pl3   1  UNL1       -0.3375
      8 S          -7.5248  -15.3407   25.0188 S.2     1  UNL1       -0.0520
      9 C          -8.3951  -16.3995   24.4093 C.ar    1  UNL1        0.0502
     10 C          -8.7170  -16.7361   22.9835 C.ar    1  UNL1        0.0142
     11 H          -6.9760  -14.8137   28.4757 H       1  UNL1        0.1442
     12 H          -6.2914  -13.9007   27.2086 H       1  UNL1        0.1442
     13 S          -9.9630  -18.2125   21.2463 S.3     1  UNL1       -0.1088
     14 C          -9.2223  -19.3158   20.5505 C.3     1  UNL1        0.0884
     15 C          -4.7754  -19.7347   21.0983 C.ar    1  UNL1        0.0684
     16 C          -5.3253  -19.2014   19.8087 C.ar    1  UNL1        0.0100
     17 C          -6.8075  -19.0618   19.6260 C.ar    1  UNL1       -0.0027
     18 C          -7.7399  -19.4554   20.7331 C.ar    1  UNL1       -0.0110
     19 C          -7.1901  -19.9887   22.0228 C.ar    1  UNL1       -0.0027
     20 C          -5.7078  -20.1283   22.2054 C.ar    1  UNL1        0.0100
     21 N          -1.8109  -20.0140   21.4635 N.1     1  UNL1       -0.1908
     22 C          -3.2931  -19.8743   21.2809 C.1     1  UNL1        0.1004
@<TRIPOS>BOND
     1    21    22    3
     2    22    15    1
     3    15    16   ar
     4    16    17   ar
     5    17    18   ar
     6    18    14    1
     7    14    13    1
     8    13     1    1
     9     1     2   ar
    10     2     3   ar
    11     3     4   ar
    12     4     5   ar
    13     5     6   ar
    14     6     7    1
    15     6     8   ar
    16     8     9   ar
    17     9    10   ar
    18    18    19   ar
    19    19    20   ar
    20    20    15   ar
    21    10     1   ar
    22     9     4   ar
    23     7    11    1
    24     7    12    1
@<TRIPOS>MOLECULE
*****
 22 24 0 0 0
SMALL
GASTEIGER

@<TRIPOS>ATOM
      1 C          -9.4609  -19.5783   21.5613 C.ar    1  UNL1        0.0261
      2 C          -9.4246  -19.4184   20.0703 C.ar    1  UNL1        0.0077
      3 C          -8.1118  -19.2413   19.3667 C.ar    1  UNL1        0.0202
      4 C          -6.8352  -19.2241   20.1542 C.ar    1  UNL1        0.0893
      5 N          -5.4021  -19.0680   19.7394 N.ar    1  UNL1       -0.2245
      6 C          -4.5527  -19.1315   20.9741 C.ar    1  UNL1        0.1567
      7 N          -3.0576  -19.0193   21.0225 N.pl3   1  UNL1       -0.3375
      8 S          -5.4608  -19.3268   22.1519 S.2     1  UNL1       -0.0520
      9 C          -6.8714  -19.3841   21.6451 C.ar    1  UNL1        0.0502
     10 C          -8.1843  -19.5612   22.3487 C.ar    1  UNL1        0.0142
     11 H          -2.5464  -18.8916   20.1909 H       1  UNL1        0.1442
     12 H          -2.5876  -19.0735   21.8859 H       1  UNL1        0.1442
     13 S         -10.7738  -19.7555   22.2649 S.3     1  UNL1       -0.1088
     14 C         -11.3258  -18.6479   23.1125 C.3     1  UNL1        0.0884
     15 C          -8.6042  -16.3464   25.8595 C.ar    1  UNL1        0.0684
     16 C          -9.0807  -17.7143   26.2490 C.ar    1  UNL1        0.0100
     17 C          -9.9879  -18.4815   25.3334 C.ar    1  UNL1       -0.0027
     18 C         -10.4186  -17.8807   24.0282 C.ar    1  UNL1       -0.0110
     19 C          -9.9421  -16.5128   23.6387 C.ar    1  UNL1       -0.0027
     20 C          -9.0349  -15.7456   24.5543 C.ar    1  UNL1        0.0100
     21 N          -6.7898  -14.8120   27.6908 N.1     1  UNL1       -0.1908
     22 C          -7.6970  -15.5792   26.7752 C.1     1  UNL1        0.1004
@<TRIPOS>BOND
     1    21    22    3
     2    22    15    1
     3    15    16   ar
     4    16    17   ar
     5    17    18   ar
     6    18    14    1
     7    14    13    1
     8    13     1    1
     9     1     2   ar
    10     2     3   ar
    11     3     4   ar
    12     4     5   ar
    13     5     6   ar
    14     6     7    1
    15     6     8   ar
    16     8     9   ar
    17     9    10   ar
    18    18    19   ar
    19    19    20   ar
    20    20    15   ar
    21    10     1   ar
    22     9     4   ar
    23     7    11    1
    24     7    12    1
@<TRIPOS>MOLECULE
*****
 22 24 0 0 0
SMALL
GASTEIGER

@<TRIPOS>ATOM
      1 C          -8.0906  -17.9846   22.4038 C.ar    1  UNL1        0.0261
      2 C          -9.4255  -18.1382   23.0705 C.ar    1  UNL1        0.0077
      3 C          -9.6858  -17.4735   24.3896 C.ar    1  UNL1        0.0202
      4 C          -8.6113  -16.6552   25.0422 C.ar    1  UNL1        0.0893
      5 N          -8.5768  -15.8883   26.3309 N.ar    1  UNL1       -0.2245
      6 C          -7.2206  -15.2607   26.4606 C.ar    1  UNL1        0.1567
      7 N          -6.7505  -14.4045   27.5990 N.pl3   1  UNL1       -0.3375
      8 S          -6.4170  -15.6398   25.2521 S.2     1  UNL1       -0.0520
      9 C          -7.2765  -16.5016   24.3755 C.ar    1  UNL1        0.0502
     10 C          -7.0161  -17.1663   23.0563 C.ar    1  UNL1        0.0142
     11 H          -7.3550  -14.2108   28.3516 H       1  UNL1        0.1442
     12 H          -5.8375  -14.0362   27.5936 H       1  UNL1        0.1442
     13 S          -7.8302  -18.6494   21.0845 S.3     1  UNL1       -0.1088
     14 C          -6.8211  -19.7549   20.9880 C.3     1  UNL1        0.0884
     15 C          -2.4549  -18.7798   20.5026 C.ar    1  UNL1        0.0684
     16 C          -2.9739  -19.2585   21.8261 C.ar    1  UNL1        0.0100
     17 C          -4.4292  -19.5835   21.9879 C.ar    1  UNL1       -0.0027
     18 C          -5.3656  -19.4299   20.8262 C.ar    1  UNL1       -0.0110
     19 C          -4.8467  -18.9512   19.5028 C.ar    1  UNL1       -0.0027
     20 C          -3.3913  -18.6261   19.3410 C.ar    1  UNL1        0.0100
     21 N           0.4559  -18.1297   20.1790 N.1     1  UNL1       -0.1908
     22 C          -0.9995  -18.4548   20.3408 C.1     1  UNL1        0.1004
@<TRIPOS>BOND
     1    21    22    3
     2    22    15    1
     3    15    16   ar
     4    16    17   ar
     5    17    18   ar
     6    18    14    1
     7    14    13    1
     8    13     1    1
     9     1     2   ar
    10     2     3   ar
    11     3     4   ar
    12     4     5   ar
    13     5     6   ar
    14     6     7    1
    15     6     8   ar
    16     8     9   ar
    17     9    10   ar
    18    18    19   ar
    19    19    20   ar
    20    20    15   ar
    21    10     1   ar
    22     9     4   ar
    23     7    11    1
    24     7    12    1
