@<TRIPOS>MOLECULE
*****
 31 34 0 0 0
SMALL
GASTEIGER

@<TRIPOS>ATOM
      1 C         -10.7510  -18.1986   19.7123 C.3     1  UNL1        0.2085
      2 O         -10.0271  -19.4460   20.1242 O.3     1  UNL1       -0.4602
      3 C          -5.7211  -19.2271   21.4129 C.ar    1  UNL1        0.0729
      4 C          -6.7566  -18.3981   22.1132 C.ar    1  UNL1        0.0109
      5 C          -8.1919  -18.4711   21.6836 C.ar    1  UNL1        0.0579
      6 C          -8.5917  -19.3731   20.5537 C.ar    1  UNL1        0.2249
      7 N          -7.5562  -20.2020   19.8534 N.ar    1  UNL1       -0.2100
      8 C          -6.1209  -20.1290   20.2830 C.ar    1  UNL1        0.1065
      9 O          -3.8975  -19.5603   23.2332 O.2     1  UNL1       -0.2699
     10 C          -4.2857  -19.1541   21.8424 C.2     1  UNL1        0.2505
     11 N          -3.2386  -18.6750   20.8812 N.am    1  UNL1       -0.2760
     12 C          -3.6268  -18.2687   19.4904 C.3     1  UNL1        0.0937
     13 C          -2.5797  -17.7896   18.5292 C.3     1  UNL1        0.0216
     14 C          -1.1444  -17.7166   18.9587 C.3     1  UNL1        0.0035
     15 C          -0.7562  -18.1228   20.3495 C.3     1  UNL1        0.0216
     16 C          -1.8033  -18.6020   21.3107 C.3     1  UNL1        0.0937
     17 C         -11.9915  -17.7756   20.4421 C.3     1  UNL1        0.0647
     18 C         -12.2224  -18.2281   21.8534 C.3     1  UNL1        0.0759
     19 N         -11.2791  -17.8055   22.9403 N.3     1  UNL1       -0.2726
     20 C         -10.8843  -18.7789   24.0112 C.3     1  UNL1        0.0721
     21 C          -9.9410  -18.3562   25.0981 C.3     1  UNL1        0.0178
     22 C          -9.3925  -16.9602   25.1143 C.3     1  UNL1        0.0087
     23 C          -9.7873  -15.9868   24.0435 C.3     1  UNL1        0.0178
     24 C         -10.7306  -16.4095   22.9565 C.3     1  UNL1        0.0721
     25 C          -8.4492  -16.5376   26.2013 C.3     1  UNL1        0.0453
     26 C          -7.1364  -15.9023   25.8500 C.ar    1  UNL1        0.0541
     27 C          -6.2272  -15.1761   26.7965 C.ar    1  UNL1        0.1131
     28 N          -5.0313  -14.7067   26.0221 N.ar    1  UNL1       -0.2229
     29 C          -5.2015  -15.1429   24.5970 C.ar    1  UNL1        0.1748
     30 N          -6.5026  -15.8819   24.4907 N.ar    1  UNL1       -0.3382
     31 H          -6.8751  -16.2830   23.6724 H       1  UNL1        0.1672
@<TRIPOS>BOND
     1     9    10    2
     2    10     3    1
     3     3     4   ar
     4     4     5   ar
     5     5     6   ar
     6     6     2    1
     7     2     1    1
     8     1    17    1
     9    17    18    1
    10    18    19    1
    11    19    20    1
    12    20    21    1
    13    21    22    1
    14    22    25    1
    15    25    26    1
    16    26    27   ar
    17    27    28   ar
    18    28    29   ar
    19    29    30   ar
    20    22    23    1
    21    23    24    1
    22     6     7   ar
    23     7     8   ar
    24    10    11   am
    25    11    12    1
    26    12    13    1
    27    13    14    1
    28    14    15    1
    29    15    16    1
    30     8     3   ar
    31    16    11    1
    32    24    19    1
    33    30    26   ar
    34    30    31    1
@<TRIPOS>MOLECULE
*****
 31 34 0 0 0
SMALL
GASTEIGER

@<TRIPOS>ATOM
      1 C          -2.0473  -18.8441   19.7070 C.3     1  UNL1        0.2085
      2 O          -1.5303  -17.9806   20.8192 O.3     1  UNL1       -0.4602
      3 C          -4.3931  -16.1871   23.7920 C.ar    1  UNL1        0.0729
      4 C          -4.0439  -17.6436   23.8718 C.ar    1  UNL1        0.0109
      5 C          -3.0896  -18.2414   22.8809 C.ar    1  UNL1        0.0579
      6 C          -2.4846  -17.3827   21.8102 C.ar    1  UNL1        0.2249
      7 N          -2.8339  -15.9261   21.7304 N.ar    1  UNL1       -0.2100
      8 C          -3.7881  -15.3283   22.7213 C.ar    1  UNL1        0.1065
      9 O          -4.8228  -14.8287   25.9647 O.2     1  UNL1       -0.2699
     10 C          -5.3474  -15.5892   24.7830 C.2     1  UNL1        0.2505
     11 N          -6.8263  -15.7518   24.5922 N.am    1  UNL1       -0.2760
     12 C          -7.3510  -16.5123   23.4106 C.3     1  UNL1        0.0937
     13 C          -8.8299  -16.6749   23.2198 C.3     1  UNL1        0.0216
     14 C          -9.7841  -16.0771   24.2108 C.3     1  UNL1        0.0035
     15 C          -9.2595  -15.3166   25.3925 C.3     1  UNL1        0.0216
     16 C          -7.7806  -15.1539   25.5832 C.3     1  UNL1        0.0937
     17 C          -3.5248  -18.9720   19.4816 C.3     1  UNL1        0.0647
     18 C          -4.2797  -20.1172   20.0886 C.3     1  UNL1        0.0759
     19 N          -5.7361  -19.9668   20.4145 N.3     1  UNL1       -0.2726
     20 C          -6.1989  -20.0529   21.8388 C.3     1  UNL1        0.0721
     21 C          -7.6553  -19.9024   22.1646 C.3     1  UNL1        0.0178
     22 C          -8.6490  -19.6659   21.0661 C.3     1  UNL1        0.0087
     23 C          -8.1863  -19.5798   19.6419 C.3     1  UNL1        0.0178
     24 C          -6.7299  -19.7302   19.3160 C.3     1  UNL1        0.0721
     25 C         -10.1054  -19.5154   21.3920 C.3     1  UNL1        0.0453
     26 C         -10.8582  -18.3061   20.9217 C.ar    1  UNL1        0.0541
     27 C         -12.2571  -17.9314   21.3122 C.ar    1  UNL1        0.1131
     28 N         -12.6076  -16.6530   20.6103 N.ar    1  UNL1       -0.2229
     29 C         -11.4252  -16.2375   19.7860 C.ar    1  UNL1        0.1748
     30 N         -10.3440  -17.2592   19.9785 N.ar    1  UNL1       -0.3382
     31 H          -9.4533  -17.2452   19.5594 H       1  UNL1        0.1672
@<TRIPOS>BOND
     1     9    10    2
     2    10     3    1
     3     3     4   ar
     4     4     5   ar
     5     5     6   ar
     6     6     2    1
     7     2     1    1
     8     1    17    1
     9    17    18    1
    10    18    19    1
    11    19    20    1
    12    20    21    1
    13    21    22    1
    14    22    25    1
    15    25    26    1
    16    26    27   ar
    17    27    28   ar
    18    28    29   ar
    19    29    30   ar
    20    22    23    1
    21    23    24    1
    22     6     7   ar
    23     7     8   ar
    24    10    11   am
    25    11    12    1
    26    12    13    1
    27    13    14    1
    28    14    15    1
    29    15    16    1
    30     8     3   ar
    31    16    11    1
    32    24    19    1
    33    30    26   ar
    34    30    31    1
@<TRIPOS>MOLECULE
*****
 31 34 0 0 0
SMALL
GASTEIGER

@<TRIPOS>ATOM
      1 C          -4.3622  -18.9010   19.3526 C.3     1  UNL1        0.2085
      2 O          -5.3979  -19.8504   19.8779 O.3     1  UNL1       -0.4602
      3 C          -9.6081  -18.4247   20.5788 C.ar    1  UNL1        0.0729
      4 C          -9.3462  -19.5456   19.6171 C.ar    1  UNL1        0.0109
      5 C          -7.9428  -20.0209   19.3835 C.ar    1  UNL1        0.0579
      6 C          -6.8013  -19.3752   20.1116 C.ar    1  UNL1        0.2249
      7 N          -7.0632  -18.2542   21.0732 N.ar    1  UNL1       -0.2100
      8 C          -8.4666  -17.7790   21.3068 C.ar    1  UNL1        0.1065
      9 O         -11.7609  -17.2551   19.7141 O.2     1  UNL1       -0.2699
     10 C         -11.0116  -17.9494   20.8124 C.2     1  UNL1        0.2505
     11 N         -11.6656  -18.1684   22.1444 N.am    1  UNL1       -0.2760
     12 C         -10.9163  -18.8627   23.2428 C.3     1  UNL1        0.0937
     13 C         -11.5704  -19.0818   24.5748 C.3     1  UNL1        0.0216
     14 C         -12.9737  -18.6065   24.8084 C.3     1  UNL1        0.0035
     15 C         -13.7231  -17.9122   23.7101 C.3     1  UNL1        0.0216
     16 C         -13.0690  -17.6932   22.3781 C.3     1  UNL1        0.0937
     17 C          -2.9052  -19.1888   19.5636 C.3     1  UNL1        0.0647
     18 C          -2.2392  -18.7861   20.8458 C.3     1  UNL1        0.0759
     19 N          -2.9650  -17.9130   21.8260 N.3     1  UNL1       -0.2726
     20 C          -2.7892  -16.4241   21.7777 C.3     1  UNL1        0.0721
     21 C          -3.5150  -15.5510   22.7578 C.3     1  UNL1        0.0178
     22 C          -4.4168  -16.1667   23.7863 C.3     1  UNL1        0.0087
     23 C          -4.5926  -17.6555   23.8346 C.3     1  UNL1        0.0178
     24 C          -3.8668  -18.5287   22.8545 C.3     1  UNL1        0.0721
     25 C          -5.1426  -15.2935   24.7664 C.3     1  UNL1        0.0453
     26 C          -6.6096  -15.4945   25.0069 C.ar    1  UNL1        0.0541
     27 C          -7.2854  -15.5409   26.3452 C.ar    1  UNL1        0.1131
     28 N          -8.7517  -15.7594   26.1167 N.ar    1  UNL1       -0.2229
     29 C          -8.9821  -15.8480   24.6371 C.ar    1  UNL1        0.1748
     30 N          -7.6582  -15.6843   23.9512 N.ar    1  UNL1       -0.3382
     31 H          -7.5045  -15.6988   22.9789 H       1  UNL1        0.1672
@<TRIPOS>BOND
     1     9    10    2
     2    10     3    1
     3     3     4   ar
     4     4     5   ar
     5     5     6   ar
     6     6     2    1
     7     2     1    1
     8     1    17    1
     9    17    18    1
    10    18    19    1
    11    19    20    1
    12    20    21    1
    13    21    22    1
    14    22    25    1
    15    25    26    1
    16    26    27   ar
    17    27    28   ar
    18    28    29   ar
    19    29    30   ar
    20    22    23    1
    21    23    24    1
    22     6     7   ar
    23     7     8   ar
    24    10    11   am
    25    11    12    1
    26    12    13    1
    27    13    14    1
    28    14    15    1
    29    15    16    1
    30     8     3   ar
    31    16    11    1
    32    24    19    1
    33    30    26   ar
    34    30    31    1
@<TRIPOS>MOLECULE
*****
 31 34 0 0 0
SMALL
GASTEIGER

@<TRIPOS>ATOM
      1 C          -7.7218  -15.4865   27.4410 C.3     1  UNL1        0.2085
      2 O          -8.5578  -16.7281   27.3448 O.3     1  UNL1       -0.4602
      3 C         -10.3558  -17.9297   23.3984 C.ar    1  UNL1        0.0729
      4 C          -9.9058  -16.5158   23.6181 C.ar    1  UNL1        0.0109
      5 C          -9.3065  -16.1153   24.9335 C.ar    1  UNL1        0.0579
      6 C          -9.1572  -17.1287   26.0293 C.ar    1  UNL1        0.2249
      7 N          -9.6071  -18.5426   25.8096 N.ar    1  UNL1       -0.2100
      8 C         -10.2064  -18.9431   24.4942 C.ar    1  UNL1        0.1065
      9 O         -12.4285  -18.1717   21.8507 O.2     1  UNL1       -0.2699
     10 C         -10.9551  -18.3303   22.0830 C.2     1  UNL1        0.2505
     11 N         -10.0810  -18.8895   20.9998 N.am    1  UNL1       -0.2760
     12 C          -8.6076  -19.0481   21.2320 C.3     1  UNL1        0.0937
     13 C          -7.7336  -19.6073   20.1487 C.3     1  UNL1        0.0216
     14 C          -8.3329  -20.0078   18.8333 C.3     1  UNL1        0.0035
     15 C          -9.8063  -19.8492   18.6011 C.3     1  UNL1        0.0216
     16 C         -10.6804  -19.2900   19.6843 C.3     1  UNL1        0.0937
     17 C          -6.2863  -15.5132   27.0064 C.3     1  UNL1        0.0647
     18 C          -5.9194  -15.1221   25.6056 C.3     1  UNL1        0.0759
     19 N          -5.3562  -16.1453   24.6644 N.3     1  UNL1       -0.2726
     20 C          -3.9913  -16.7176   24.9081 C.3     1  UNL1        0.0721
     21 C          -3.4281  -17.7408   23.9669 C.3     1  UNL1        0.0178
     22 C          -4.2298  -18.1916   22.7819 C.3     1  UNL1        0.0087
     23 C          -5.5946  -17.6193   22.5382 C.3     1  UNL1        0.0178
     24 C          -6.1579  -16.5961   23.4795 C.3     1  UNL1        0.0721
     25 C          -3.6665  -19.2148   21.8407 C.3     1  UNL1        0.0453
     26 C          -2.6361  -18.8144   20.8268 C.ar    1  UNL1        0.0541
     27 C          -2.8240  -18.7959   19.3388 C.ar    1  UNL1        0.1131
     28 N          -1.5409  -18.3323   18.7153 N.ar    1  UNL1       -0.2229
     29 C          -0.5600  -18.0644   19.8180 C.ar    1  UNL1        0.1748
     30 N          -1.2368  -18.3623   21.1230 N.ar    1  UNL1       -0.3382
     31 H          -0.8335  -18.2763   22.0170 H       1  UNL1        0.1672
@<TRIPOS>BOND
     1     9    10    2
     2    10     3    1
     3     3     4   ar
     4     4     5   ar
     5     5     6   ar
     6     6     2    1
     7     2     1    1
     8     1    17    1
     9    17    18    1
    10    18    19    1
    11    19    20    1
    12    20    21    1
    13    21    22    1
    14    22    25    1
    15    25    26    1
    16    26    27   ar
    17    27    28   ar
    18    28    29   ar
    19    29    30   ar
    20    22    23    1
    21    23    24    1
    22     6     7   ar
    23     7     8   ar
    24    10    11   am
    25    11    12    1
    26    12    13    1
    27    13    14    1
    28    14    15    1
    29    15    16    1
    30     8     3   ar
    31    16    11    1
    32    24    19    1
    33    30    26   ar
    34    30    31    1
@<TRIPOS>MOLECULE
*****
 31 34 0 0 0
SMALL
GASTEIGER

@<TRIPOS>ATOM
      1 C          -3.3627  -18.8546   19.2660 C.3     1  UNL1        0.2085
      2 O          -4.1764  -20.0167   19.7533 O.3     1  UNL1       -0.4602
      3 C          -7.8259  -19.3029   22.2874 C.ar    1  UNL1        0.0729
      4 C          -7.1203  -20.6254   22.3442 C.ar    1  UNL1        0.0109
      5 C          -5.9039  -20.8633   21.4995 C.ar    1  UNL1        0.0579
      6 C          -5.3929  -19.7787   20.5980 C.ar    1  UNL1        0.2249
      7 N          -6.0984  -18.4562   20.5413 N.ar    1  UNL1       -0.2100
      8 C          -7.3149  -18.2183   21.3860 C.ar    1  UNL1        0.1065
      9 O          -9.0063  -19.3668   24.6010 O.2     1  UNL1       -0.2699
     10 C          -9.0424  -19.0650   23.1322 C.2     1  UNL1        0.2505
     11 N         -10.2950  -18.5252   22.5080 N.am    1  UNL1       -0.2760
     12 C         -10.3311  -18.2233   21.0392 C.3     1  UNL1        0.0937
     13 C         -11.5838  -17.6835   20.4150 C.3     1  UNL1        0.0216
     14 C         -12.8003  -17.4456   21.2597 C.3     1  UNL1        0.0035
     15 C         -12.7641  -17.7474   22.7286 C.3     1  UNL1        0.0216
     16 C         -11.5115  -18.2872   23.3528 C.3     1  UNL1        0.0937
     17 C          -1.8947  -18.7880   19.5674 C.3     1  UNL1        0.0647
     18 C          -1.4253  -18.3002   20.9059 C.3     1  UNL1        0.0759
     19 N          -2.3890  -17.6310   21.8404 N.3     1  UNL1       -0.2726
     20 C          -3.1869  -18.4522   22.8095 C.3     1  UNL1        0.0721
     21 C          -4.1506  -17.7831   23.7440 C.3     1  UNL1        0.0178
     22 C          -4.3165  -16.2927   23.7096 C.3     1  UNL1        0.0087
     23 C          -3.5186  -15.4714   22.7406 C.3     1  UNL1        0.0178
     24 C          -2.5549  -16.1406   21.8060 C.3     1  UNL1        0.0721
     25 C          -5.2802  -15.6235   24.6441 C.3     1  UNL1        0.0453
     26 C          -6.7421  -15.5818   24.3106 C.ar    1  UNL1        0.0541
     27 C          -7.8675  -15.9466   25.2326 C.ar    1  UNL1        0.1131
     28 N          -9.1562  -15.7583   24.4883 N.ar    1  UNL1       -0.2229
     29 C          -8.8271  -15.2770   23.1062 C.ar    1  UNL1        0.1748
     30 N          -7.3351  -15.1679   22.9964 N.ar    1  UNL1       -0.3382
     31 H          -6.8332  -14.8760   22.2014 H       1  UNL1        0.1672
@<TRIPOS>BOND
     1     9    10    2
     2    10     3    1
     3     3     4   ar
     4     4     5   ar
     5     5     6   ar
     6     6     2    1
     7     2     1    1
     8     1    17    1
     9    17    18    1
    10    18    19    1
    11    19    20    1
    12    20    21    1
    13    21    22    1
    14    22    25    1
    15    25    26    1
    16    26    27   ar
    17    27    28   ar
    18    28    29   ar
    19    29    30   ar
    20    22    23    1
    21    23    24    1
    22     6     7   ar
    23     7     8   ar
    24    10    11   am
    25    11    12    1
    26    12    13    1
    27    13    14    1
    28    14    15    1
    29    15    16    1
    30     8     3   ar
    31    16    11    1
    32    24    19    1
    33    30    26   ar
    34    30    31    1
@<TRIPOS>MOLECULE
*****
 31 34 0 0 0
SMALL
GASTEIGER

@<TRIPOS>ATOM
      1 C         -11.8006  -18.6890   19.9860 C.3     1  UNL1        0.2085
      2 O         -12.3474  -18.5687   21.3775 O.3     1  UNL1       -0.4602
      3 C          -9.6506  -17.3136   24.7542 C.ar    1  UNL1        0.0729
      4 C         -10.0745  -18.7467   24.6259 C.ar    1  UNL1        0.0109
      5 C         -10.9734  -19.1650   23.5004 C.ar    1  UNL1        0.0579
      6 C         -11.4485  -18.1503   22.5031 C.ar    1  UNL1        0.2249
      7 N         -11.0246  -16.7172   22.6314 N.ar    1  UNL1       -0.2100
      8 C         -10.1256  -16.2989   23.7569 C.ar    1  UNL1        0.1065
      9 O          -9.1453  -17.1789   27.2991 O.2     1  UNL1       -0.2699
     10 C          -8.7516  -16.8952   25.8797 C.2     1  UNL1        0.2505
     11 N          -7.4590  -16.1932   25.5859 N.am    1  UNL1       -0.2760
     12 C          -7.0653  -15.9096   24.1666 C.3     1  UNL1        0.0937
     13 C          -5.7727  -15.2075   23.8728 C.3     1  UNL1        0.0216
     14 C          -4.8738  -14.7892   24.9984 C.3     1  UNL1        0.0035
     15 C          -5.2675  -15.0728   26.4177 C.3     1  UNL1        0.0216
     16 C          -6.5600  -15.7748   26.7115 C.3     1  UNL1        0.0937
     17 C         -10.3417  -18.4517   19.7303 C.3     1  UNL1        0.0647
     18 C          -9.3911  -19.6108   19.6785 C.3     1  UNL1        0.0759
     19 N          -8.0531  -19.5139   20.3494 N.3     1  UNL1       -0.2726
     20 C          -7.8735  -18.6175   21.5387 C.3     1  UNL1        0.0721
     21 C          -6.5354  -18.5206   22.2096 C.3     1  UNL1        0.0178
     22 C          -5.3769  -19.3202   21.6915 C.3     1  UNL1        0.0087
     23 C          -5.5565  -20.2166   20.5023 C.3     1  UNL1        0.0178
     24 C          -6.8945  -20.3135   19.8313 C.3     1  UNL1        0.0721
     25 C          -4.0389  -19.2234   22.3624 C.3     1  UNL1        0.0453
     26 C          -3.0228  -18.2357   21.8703 C.ar    1  UNL1        0.0541
     27 C          -1.8911  -18.5292   20.9305 C.ar    1  UNL1        0.1131
     28 N          -1.1289  -17.2561   20.7110 N.ar    1  UNL1       -0.2229
     29 C          -1.7896  -16.1757   21.5150 C.ar    1  UNL1        0.1748
     30 N          -2.9600  -16.7812   22.2315 N.ar    1  UNL1       -0.3382
     31 H          -3.5785  -16.3072   22.8332 H       1  UNL1        0.1672
@<TRIPOS>BOND
     1     9    10    2
     2    10     3    1
     3     3     4   ar
     4     4     5   ar
     5     5     6   ar
     6     6     2    1
     7     2     1    1
     8     1    17    1
     9    17    18    1
    10    18    19    1
    11    19    20    1
    12    20    21    1
    13    21    22    1
    14    22    25    1
    15    25    26    1
    16    26    27   ar
    17    27    28   ar
    18    28    29   ar
    19    29    30   ar
    20    22    23    1
    21    23    24    1
    22     6     7   ar
    23     7     8   ar
    24    10    11   am
    25    11    12    1
    26    12    13    1
    27    13    14    1
    28    14    15    1
    29    15    16    1
    30     8     3   ar
    31    16    11    1
    32    24    19    1
    33    30    26   ar
    34    30    31    1
@<TRIPOS>MOLECULE
*****
 31 34 0 0 0
SMALL
GASTEIGER

@<TRIPOS>ATOM
      1 C         -11.2283  -19.0843   19.4516 C.3     1  UNL1        0.2085
      2 O         -11.4532  -18.2527   20.6794 O.3     1  UNL1       -0.4602
      3 C          -7.9375  -16.6849   23.0100 C.ar    1  UNL1        0.0729
      4 C          -8.4522  -18.0696   23.2698 C.ar    1  UNL1        0.0109
      5 C          -9.6240  -18.5922   22.4930 C.ar    1  UNL1        0.0579
      6 C         -10.2813  -17.7300   21.4563 C.ar    1  UNL1        0.2249
      7 N          -9.7666  -16.3453   21.1965 N.ar    1  UNL1       -0.2100
      8 C          -8.5948  -15.8227   21.9734 C.ar    1  UNL1        0.1065
      9 O          -5.4092  -16.1032   23.1492 O.2     1  UNL1       -0.2699
     10 C          -6.7656  -16.1622   23.7869 C.2     1  UNL1        0.2505
     11 N          -6.9501  -15.6985   25.2015 N.am    1  UNL1       -0.2760
     12 C          -8.3065  -15.7575   25.8392 C.3     1  UNL1        0.0937
     13 C          -8.4910  -15.2938   27.2538 C.3     1  UNL1        0.0216
     14 C          -7.3191  -14.7712   28.0306 C.3     1  UNL1        0.0035
     15 C          -5.9627  -14.7122   27.3929 C.3     1  UNL1        0.0216
     16 C          -5.7781  -15.1759   25.9783 C.3     1  UNL1        0.0937
     17 C          -9.8524  -19.1993   18.8652 C.3     1  UNL1        0.0647
     18 C          -9.0220  -20.4192   19.1342 C.3     1  UNL1        0.0759
     19 N          -7.6164  -20.2735   19.6370 N.3     1  UNL1       -0.2726
     20 C          -7.1172  -18.9339   20.0912 C.3     1  UNL1        0.0721
     21 C          -5.7116  -18.7883   20.5940 C.3     1  UNL1        0.0178
     22 C          -4.8050  -19.9823   20.6426 C.3     1  UNL1        0.0087
     23 C          -5.3040  -21.3219   20.1885 C.3     1  UNL1        0.0178
     24 C          -6.7098  -21.4676   19.6857 C.3     1  UNL1        0.0721
     25 C          -3.3993  -19.8367   21.1454 C.3     1  UNL1        0.0453
     26 C          -2.7486  -18.4854   21.1726 C.ar    1  UNL1        0.0541
     27 C          -1.7043  -17.9902   20.2165 C.ar    1  UNL1        0.1131
     28 N          -1.3384  -16.5908   20.6137 N.ar    1  UNL1       -0.2229
     29 C          -2.1566  -16.2211   21.8154 C.ar    1  UNL1        0.1748
     30 N          -3.0281  -17.3920   22.1608 N.ar    1  UNL1       -0.3382
     31 H          -3.6708  -17.4353   22.9053 H       1  UNL1        0.1672
@<TRIPOS>BOND
     1     9    10    2
     2    10     3    1
     3     3     4   ar
     4     4     5   ar
     5     5     6   ar
     6     6     2    1
     7     2     1    1
     8     1    17    1
     9    17    18    1
    10    18    19    1
    11    19    20    1
    12    20    21    1
    13    21    22    1
    14    22    25    1
    15    25    26    1
    16    26    27   ar
    17    27    28   ar
    18    28    29   ar
    19    29    30   ar
    20    22    23    1
    21    23    24    1
    22     6     7   ar
    23     7     8   ar
    24    10    11   am
    25    11    12    1
    26    12    13    1
    27    13    14    1
    28    14    15    1
    29    15    16    1
    30     8     3   ar
    31    16    11    1
    32    24    19    1
    33    30    26   ar
    34    30    31    1
@<TRIPOS>MOLECULE
*****
 31 34 0 0 0
SMALL
GASTEIGER

@<TRIPOS>ATOM
      1 C           8.4464   -4.5519   22.3428 C.3     1  UNL1        0.2085
      2 O           7.7202   -5.0187   21.1162 O.3     1  UNL1       -0.4602
      3 C           5.0558   -2.1787   18.8612 C.ar    1  UNL1        0.0729
      4 C           6.3690   -1.7016   19.4070 C.ar    1  UNL1        0.0109
      5 C           7.2571   -2.6483   20.1587 C.ar    1  UNL1        0.0579
      6 C           6.8320   -4.0720   20.3645 C.ar    1  UNL1        0.2249
      7 N           5.5188   -4.5491   19.8187 N.ar    1  UNL1       -0.2100
      8 C           4.6307   -3.6024   19.0671 C.ar    1  UNL1        0.1065
      9 O           4.4616   -0.9068   16.6750 O.2     1  UNL1       -0.2699
     10 C           4.1676   -1.2319   18.1095 C.2     1  UNL1        0.2505
     11 N           2.9856   -0.6104   18.7924 N.am    1  UNL1       -0.2760
     12 C           2.6916   -0.9355   20.2269 C.3     1  UNL1        0.0937
     13 C           1.5094   -0.3139   20.9098 C.3     1  UNL1        0.0216
     14 C           0.6213    0.6327   20.1581 C.3     1  UNL1        0.0035
     15 C           0.9153    0.9578   18.7236 C.3     1  UNL1        0.0216
     16 C           2.0974    0.3363   18.0407 C.3     1  UNL1        0.0937
     17 C           7.7937   -4.6634   23.6888 C.3     1  UNL1        0.0647
     18 C           8.0208   -5.8818   24.5338 C.3     1  UNL1        0.0759
     19 N           7.9132   -5.7895   26.0271 N.3     1  UNL1       -0.2726
     20 C           9.1547   -5.7039   26.8646 C.3     1  UNL1        0.0721
     21 C           9.0471   -5.6115   28.3579 C.3     1  UNL1        0.0178
     22 C           7.6981   -5.6048   29.0137 C.3     1  UNL1        0.0087
     23 C           6.4566   -5.6904   28.1762 C.3     1  UNL1        0.0178
     24 C           6.5642   -5.7827   26.6829 C.3     1  UNL1        0.0721
     25 C           7.5905   -5.5125   30.5069 C.3     1  UNL1        0.0453
     26 C           6.8987   -4.3407   31.1381 C.ar    1  UNL1        0.0541
     27 C           6.7960   -2.9608   30.5590 C.ar    1  UNL1        0.1131
     28 N           6.0220   -2.1104   31.5221 N.ar    1  UNL1       -0.2229
     29 C           5.6461   -2.9647   32.6964 C.ar    1  UNL1        0.1748
     30 N           6.1880   -4.3431   32.4590 N.ar    1  UNL1       -0.3382
     31 H           6.0938   -5.1141   33.0640 H       1  UNL1        0.1672
@<TRIPOS>BOND
     1     9    10    2
     2    10     3    1
     3     3     4   ar
     4     4     5   ar
     5     5     6   ar
     6     6     2    1
     7     2     1    1
     8     1    17    1
     9    17    18    1
    10    18    19    1
    11    19    20    1
    12    20    21    1
    13    21    22    1
    14    22    25    1
    15    25    26    1
    16    26    27   ar
    17    27    28   ar
    18    28    29   ar
    19    29    30   ar
    20    22    23    1
    21    23    24    1
    22     6     7   ar
    23     7     8   ar
    24    10    11   am
    25    11    12    1
    26    12    13    1
    27    13    14    1
    28    14    15    1
    29    15    16    1
    30     8     3   ar
    31    16    11    1
    32    24    19    1
    33    30    26   ar
    34    30    31    1
@<TRIPOS>MOLECULE
*****
 31 34 0 0 0
SMALL
GASTEIGER

@<TRIPOS>ATOM
      1 C           8.3879   -4.5902   22.5234 C.3     1  UNL1        0.2085
      2 O           7.6562   -5.0359   21.2923 O.3     1  UNL1       -0.4602
      3 C           5.2025   -2.0860   18.9414 C.ar    1  UNL1        0.0729
      4 C           6.3869   -1.6148   19.7319 C.ar    1  UNL1        0.0109
      5 C           7.2048   -2.5981   20.5155 C.ar    1  UNL1        0.0579
      6 C           6.8382   -4.0526   20.5086 C.ar    1  UNL1        0.2249
      7 N           5.6538   -4.5238   19.7181 N.ar    1  UNL1       -0.2100
      8 C           4.8359   -3.5405   18.9345 C.ar    1  UNL1        0.1065
      9 O           4.8558   -0.6398   16.8110 O.2     1  UNL1       -0.2699
     10 C           4.3845   -1.1026   18.1577 C.2     1  UNL1        0.2505
     11 N           3.0953   -0.5822   18.7208 N.am    1  UNL1       -0.2760
     12 C           2.6240   -1.0450   20.0675 C.3     1  UNL1        0.0937
     13 C           1.3347   -0.5245   20.6306 C.3     1  UNL1        0.0216
     14 C           0.5168    0.4587   19.8469 C.3     1  UNL1        0.0035
     15 C           0.9881    0.9216   18.5002 C.3     1  UNL1        0.0216
     16 C           2.2773    0.4011   17.9371 C.3     1  UNL1        0.0937
     17 C           8.0400   -5.1807   23.8578 C.3     1  UNL1        0.0647
     18 C           6.8464   -4.6760   24.6131 C.3     1  UNL1        0.0759
     19 N           6.1828   -3.3963   24.1985 N.3     1  UNL1       -0.2726
     20 C           6.7388   -2.0805   24.6563 C.3     1  UNL1        0.0721
     21 C           6.0751   -0.8008   24.2417 C.3     1  UNL1        0.0178
     22 C           4.8554   -0.8369   23.3694 C.3     1  UNL1        0.0087
     23 C           4.2994   -2.1526   22.9116 C.3     1  UNL1        0.0178
     24 C           4.9631   -3.4324   23.3261 C.3     1  UNL1        0.0721
     25 C           4.1917    0.4428   22.9548 C.3     1  UNL1        0.0453
     26 C           2.9461    0.9022   23.6531 C.ar    1  UNL1        0.0541
     27 C           2.0650    2.0390   23.2275 C.ar    1  UNL1        0.1131
     28 N           0.9373    2.1448   24.2110 N.ar    1  UNL1       -0.2229
     29 C           1.1215    1.0732   25.2445 C.ar    1  UNL1        0.1748
     30 N           2.3630    0.3053   24.8996 N.ar    1  UNL1       -0.3382
     31 H           2.7306   -0.4567   25.4030 H       1  UNL1        0.1672
@<TRIPOS>BOND
     1     9    10    2
     2    10     3    1
     3     3     4   ar
     4     4     5   ar
     5     5     6   ar
     6     6     2    1
     7     2     1    1
     8     1    17    1
     9    17    18    1
    10    18    19    1
    11    19    20    1
    12    20    21    1
    13    21    22    1
    14    22    25    1
    15    25    26    1
    16    26    27   ar
    17    27    28   ar
    18    28    29   ar
    19    29    30   ar
    20    22    23    1
    21    23    24    1
    22     6     7   ar
    23     7     8   ar
    24    10    11   am
    25    11    12    1
    26    12    13    1
    27    13    14    1
    28    14    15    1
    29    15    16    1
    30     8     3   ar
    31    16    11    1
    32    24    19    1
    33    30    26   ar
    34    30    31    1
