@<TRIPOS>MOLECULE
*****
 18 20 0 0 0
SMALL
GASTEIGER

@<TRIPOS>ATOM
      1 C         -13.8059  -17.9703   23.9657 C.3     1  UNL1        0.0268
      2 C         -12.6247  -18.1195   23.0533 C.2     1  UNL1       -0.0379
      3 C         -12.7235  -17.6845   21.6212 C.2     1  UNL1       -0.0065
      4 C         -11.5423  -17.8337   20.7088 C.2     1  UNL1        0.0198
      5 C         -10.2623  -18.4180   21.2285 C.2     1  UNL1        0.0973
      6 N          -8.9414  -18.6863   20.5703 N.2     1  UNL1       -0.2200
      7 C          -8.0261  -19.2871   21.5957 C.2     1  UNL1        0.1901
      8 N          -8.7814  -19.3902   22.8875 N.2     1  UNL1       -0.2238
      9 C         -10.1635  -18.8530   22.6606 C.2     1  UNL1        0.0828
     10 C         -11.3447  -18.7038   23.5730 C.3     1  UNL1        0.0694
     11 S          -6.6051  -19.7106   21.3689 S.3     1  UNL1       -0.0692
     12 C          -5.8736  -19.2551   20.1412 C.3     1  UNL1        0.1107
     13 C          -4.3909  -19.0335   20.1905 C.ar    1  UNL1        0.0703
     14 C          -3.5689  -19.6940   21.2573 C.ar    1  UNL1        0.0156
     15 C          -2.0862  -19.4724   21.3066 C.ar    1  UNL1        0.0028
     16 C          -1.4254  -18.5904   20.2890 C.ar    1  UNL1        0.0207
     17 C          -2.2474  -17.9300   19.2222 C.ar    1  UNL1        0.0985
     18 N          -3.7302  -18.1516   19.1729 N.ar    1  UNL1       -0.2473
@<TRIPOS>BOND
     1     1     2    1
     2     2     3    2
     3     3     4    1
     4     4     5    2
     5     5     6    1
     6     6     7    2
     7     7    11    1
     8    11    12    1
     9    12    13    1
    10    13    14   ar
    11    14    15   ar
    12    15    16   ar
    13    16    17   ar
    14    17    18   ar
    15     7     8    1
    16     8     9    2
    17     9    10    1
    18    10     2    1
    19     9     5    1
    20    18    13   ar
@<TRIPOS>MOLECULE
*****
 18 20 0 0 0
SMALL
GASTEIGER

@<TRIPOS>ATOM
      1 C          -0.4185  -18.1451   19.7603 C.3     1  UNL1        0.0268
      2 C          -1.7463  -18.4272   20.3986 C.2     1  UNL1       -0.0379
      3 C          -1.8390  -18.6195   21.8833 C.2     1  UNL1       -0.0065
      4 C          -3.1667  -18.9016   22.5216 C.2     1  UNL1        0.0198
      5 C          -4.4018  -18.9914   21.6752 C.2     1  UNL1        0.0973
      6 N          -5.8377  -19.2550   22.0197 N.2     1  UNL1       -0.2200
      7 C          -6.6325  -19.2257   20.7479 C.2     1  UNL1        0.1901
      8 N          -5.6878  -18.9439   19.6174 N.2     1  UNL1       -0.2238
      9 C          -4.3091  -18.7991   20.1905 C.2     1  UNL1        0.0828
     10 C          -2.9814  -18.5170   19.5522 C.3     1  UNL1        0.0694
     11 S          -8.1122  -19.4404   20.6278 S.3     1  UNL1       -0.0692
     12 C          -8.9882  -19.3209   21.8396 C.3     1  UNL1        0.1107
     13 C         -10.0959  -18.3098   21.8674 C.ar    1  UNL1        0.0703
     14 C         -11.3483  -18.5906   22.6437 C.ar    1  UNL1        0.0156
     15 C         -12.4560  -17.5796   22.6716 C.ar    1  UNL1        0.0028
     16 C         -12.3113  -16.2877   21.9231 C.ar    1  UNL1        0.0207
     17 C         -11.0589  -16.0069   21.1468 C.ar    1  UNL1        0.0985
     18 N          -9.9512  -17.0180   21.1190 N.ar    1  UNL1       -0.2473
@<TRIPOS>BOND
     1     1     2    1
     2     2     3    2
     3     3     4    1
     4     4     5    2
     5     5     6    1
     6     6     7    2
     7     7    11    1
     8    11    12    1
     9    12    13    1
    10    13    14   ar
    11    14    15   ar
    12    15    16   ar
    13    16    17   ar
    14    17    18   ar
    15     7     8    1
    16     8     9    2
    17     9    10    1
    18    10     2    1
    19     9     5    1
    20    18    13   ar
@<TRIPOS>MOLECULE
*****
 18 20 0 0 0
SMALL
GASTEIGER

@<TRIPOS>ATOM
      1 C          -8.4247  -15.1829   27.2978 C.3     1  UNL1        0.0268
      2 C          -7.9881  -15.7033   25.9605 C.2     1  UNL1       -0.0379
      3 C          -6.7697  -15.1345   25.2957 C.2     1  UNL1       -0.0065
      4 C          -6.3331  -15.6549   23.9583 C.2     1  UNL1        0.0198
      5 C          -7.1149  -16.7441   23.2857 C.2     1  UNL1        0.0973
      6 N          -6.9279  -17.4521   21.9767 N.2     1  UNL1       -0.2200
      7 C          -8.0308  -18.4586   21.8323 C.2     1  UNL1        0.1901
      8 N          -8.8994  -18.3725   23.0522 N.2     1  UNL1       -0.2238
      9 C          -8.3333  -17.3129   23.9505 C.2     1  UNL1        0.0828
     10 C          -8.7699  -16.7925   25.2878 C.3     1  UNL1        0.0694
     11 S          -8.2301  -19.3879   20.6718 S.3     1  UNL1       -0.0692
     12 C          -9.5087  -19.3463   19.8887 C.3     1  UNL1        0.1107
     13 C         -10.5855  -18.3710   20.2620 C.ar    1  UNL1        0.0703
     14 C         -11.6706  -18.7798   21.2135 C.ar    1  UNL1        0.0156
     15 C         -12.7473  -17.8045   21.5868 C.ar    1  UNL1        0.0028
     16 C         -12.7390  -16.4204   21.0086 C.ar    1  UNL1        0.0207
     17 C         -11.6539  -16.0116   20.0571 C.ar    1  UNL1        0.0985
     18 N         -10.5771  -16.9870   19.6838 N.ar    1  UNL1       -0.2473
@<TRIPOS>BOND
     1     1     2    1
     2     2     3    2
     3     3     4    1
     4     4     5    2
     5     5     6    1
     6     6     7    2
     7     7    11    1
     8    11    12    1
     9    12    13    1
    10    13    14   ar
    11    14    15   ar
    12    15    16   ar
    13    16    17   ar
    14    17    18   ar
    15     7     8    1
    16     8     9    2
    17     9    10    1
    18    10     2    1
    19     9     5    1
    20    18    13   ar
@<TRIPOS>MOLECULE
*****
 18 20 0 0 0
SMALL
GASTEIGER

@<TRIPOS>ATOM
      1 C           0.4763  -17.7665   20.1200 C.3     1  UNL1        0.0268
      2 C          -0.9989  -18.0135   20.0069 C.2     1  UNL1       -0.0379
      3 C          -1.7022  -17.7711   18.7044 C.2     1  UNL1       -0.0065
      4 C          -3.1774  -18.0181   18.5912 C.2     1  UNL1        0.0198
      5 C          -3.9493  -18.5075   19.7806 C.2     1  UNL1        0.0973
      6 N          -5.4005  -18.8369   19.9691 N.2     1  UNL1       -0.2200
      7 C          -5.5940  -19.2829   21.3881 C.2     1  UNL1        0.1901
      8 N          -4.2625  -19.2292   22.0767 N.2     1  UNL1       -0.2238
      9 C          -3.2460  -18.7499   21.0831 C.2     1  UNL1        0.0828
     10 C          -1.7708  -18.5029   21.1962 C.3     1  UNL1        0.0694
     11 S          -6.8915  -19.7081   22.0095 S.3     1  UNL1       -0.0692
     12 C          -7.8762  -18.6749   22.4708 C.3     1  UNL1        0.1107
     13 C          -9.0094  -18.2669   21.5766 C.ar    1  UNL1        0.0703
     14 C          -9.5654  -19.2396   20.5792 C.ar    1  UNL1        0.0156
     15 C         -10.6985  -18.8316   19.6851 C.ar    1  UNL1        0.0028
     16 C         -11.2757  -17.4509   19.7883 C.ar    1  UNL1        0.0207
     17 C         -10.7197  -16.4782   20.7858 C.ar    1  UNL1        0.0985
     18 N          -9.5865  -16.8863   21.6799 N.ar    1  UNL1       -0.2473
@<TRIPOS>BOND
     1     1     2    1
     2     2     3    2
     3     3     4    1
     4     4     5    2
     5     5     6    1
     6     6     7    2
     7     7    11    1
     8    11    12    1
     9    12    13    1
    10    13    14   ar
    11    14    15   ar
    12    15    16   ar
    13    16    17   ar
    14    17    18   ar
    15     7     8    1
    16     8     9    2
    17     9    10    1
    18    10     2    1
    19     9     5    1
    20    18    13   ar
@<TRIPOS>MOLECULE
*****
 18 20 0 0 0
SMALL
GASTEIGER

@<TRIPOS>ATOM
      1 C          -8.4905  -14.9761   27.6440 C.3     1  UNL1        0.0268
      2 C          -7.8097  -15.5106   26.4189 C.2     1  UNL1       -0.0379
      3 C          -6.3650  -15.1962   26.1663 C.2     1  UNL1       -0.0065
      4 C          -5.6842  -15.7307   24.9412 C.2     1  UNL1        0.0198
      5 C          -6.4481  -16.5796   23.9687 C.2     1  UNL1        0.0973
      6 N          -6.0474  -17.2420   22.6840 N.2     1  UNL1       -0.2200
      7 C          -7.2445  -17.9658   22.1426 C.2     1  UNL1        0.1901
      8 N          -8.3851  -17.7507   23.0927 N.2     1  UNL1       -0.2238
      9 C          -7.8929  -16.8939   24.2213 C.2     1  UNL1        0.0828
     10 C          -8.5737  -16.3595   25.4464 C.3     1  UNL1        0.0694
     11 S          -7.2925  -18.7645   20.8737 S.3     1  UNL1       -0.0692
     12 C          -6.2416  -19.7989   20.5984 C.3     1  UNL1        0.1107
     13 C          -4.7976  -19.3998   20.5251 C.ar    1  UNL1        0.0703
     14 C          -3.8350  -19.8711   21.5746 C.ar    1  UNL1        0.0156
     15 C          -2.3909  -19.4721   21.5013 C.ar    1  UNL1        0.0028
     16 C          -1.9094  -18.6017   20.3784 C.ar    1  UNL1        0.0207
     17 C          -2.8719  -18.1305   19.3289 C.ar    1  UNL1        0.0985
     18 N          -4.3161  -18.5296   19.4023 N.ar    1  UNL1       -0.2473
@<TRIPOS>BOND
     1     1     2    1
     2     2     3    2
     3     3     4    1
     4     4     5    2
     5     5     6    1
     6     6     7    2
     7     7    11    1
     8    11    12    1
     9    12    13    1
    10    13    14   ar
    11    14    15   ar
    12    15    16   ar
    13    16    17   ar
    14    17    18   ar
    15     7     8    1
    16     8     9    2
    17     9    10    1
    18    10     2    1
    19     9     5    1
    20    18    13   ar
@<TRIPOS>MOLECULE
*****
 18 20 0 0 0
SMALL
GASTEIGER

@<TRIPOS>ATOM
      1 C         -12.7476  -18.0136   22.1003 C.3     1  UNL1        0.0268
      2 C         -11.3778  -18.4161   21.6402 C.2     1  UNL1       -0.0379
      3 C         -11.1800  -18.9530   20.2536 C.2     1  UNL1       -0.0065
      4 C          -9.8103  -19.3555   19.7935 C.2     1  UNL1        0.0198
      5 C          -8.6383  -19.2212   20.7199 C.2     1  UNL1        0.0973
      6 N          -7.1815  -19.5343   20.5475 N.2     1  UNL1       -0.2200
      7 C          -6.4789  -19.1910   21.8276 C.2     1  UNL1        0.1901
      8 N          -7.5015  -18.6656   22.7911 N.2     1  UNL1       -0.2238
      9 C          -8.8361  -18.6843   22.1065 C.2     1  UNL1        0.0828
     10 C         -10.2058  -18.2818   22.5666 C.3     1  UNL1        0.0694
     11 S          -5.0114  -19.3458   22.0968 S.3     1  UNL1       -0.0692
     12 C          -4.1249  -19.9902   21.0726 C.3     1  UNL1        0.1107
     13 C          -3.0412  -19.1922   20.4102 C.ar    1  UNL1        0.0703
     14 C          -3.3348  -18.4264   19.1543 C.ar    1  UNL1        0.0156
     15 C          -2.2511  -17.6284   18.4918 C.ar    1  UNL1        0.0028
     16 C          -0.8738  -17.5963   19.0852 C.ar    1  UNL1        0.0207
     17 C          -0.5803  -18.3621   20.3411 C.ar    1  UNL1        0.0985
     18 N          -1.6640  -19.1601   21.0036 N.ar    1  UNL1       -0.2473
@<TRIPOS>BOND
     1     1     2    1
     2     2     3    2
     3     3     4    1
     4     4     5    2
     5     5     6    1
     6     6     7    2
     7     7    11    1
     8    11    12    1
     9    12    13    1
    10    13    14   ar
    11    14    15   ar
    12    15    16   ar
    13    16    17   ar
    14    17    18   ar
    15     7     8    1
    16     8     9    2
    17     9    10    1
    18    10     2    1
    19     9     5    1
    20    18    13   ar
@<TRIPOS>MOLECULE
*****
 18 20 0 0 0
SMALL
GASTEIGER

@<TRIPOS>ATOM
      1 C          -6.5939  -15.2276   27.3853 C.3     1  UNL1        0.0268
      2 C          -6.8780  -15.5065   25.9391 C.2     1  UNL1       -0.0379
      3 C          -5.7457  -15.6368   24.9640 C.2     1  UNL1       -0.0065
      4 C          -6.0298  -15.9156   23.5177 C.2     1  UNL1        0.0198
      5 C          -7.4461  -16.0643   23.0467 C.2     1  UNL1        0.0973
      6 N          -8.0299  -16.3393   21.6927 N.2     1  UNL1       -0.2200
      7 C          -9.5230  -16.3790   21.8310 C.2     1  UNL1        0.1901
      8 N          -9.8620  -16.1285   23.2705 N.2     1  UNL1       -0.2238
      9 C          -8.5784  -15.9340   24.0219 C.2     1  UNL1        0.0828
     10 C          -8.2943  -15.6551   25.4681 C.3     1  UNL1        0.0694
     11 S         -10.5048  -16.6258   20.7240 S.3     1  UNL1       -0.0692
     12 C         -11.5545  -17.6866   20.8752 C.3     1  UNL1        0.1107
     13 C         -12.0577  -18.0548   22.2394 C.ar    1  UNL1        0.0703
     14 C         -13.3944  -17.5583   22.7049 C.ar    1  UNL1        0.0156
     15 C         -13.8977  -17.9264   24.0692 C.ar    1  UNL1        0.0028
     16 C         -13.0642  -18.7911   24.9680 C.ar    1  UNL1        0.0207
     17 C         -11.7274  -19.2875   24.5025 C.ar    1  UNL1        0.0985
     18 N         -11.2242  -18.9194   23.1382 N.ar    1  UNL1       -0.2473
@<TRIPOS>BOND
     1     1     2    1
     2     2     3    2
     3     3     4    1
     4     4     5    2
     5     5     6    1
     6     6     7    2
     7     7    11    1
     8    11    12    1
     9    12    13    1
    10    13    14   ar
    11    14    15   ar
    12    15    16   ar
    13    16    17   ar
    14    17    18   ar
    15     7     8    1
    16     8     9    2
    17     9    10    1
    18    10     2    1
    19     9     5    1
    20    18    13   ar
@<TRIPOS>MOLECULE
*****
 18 20 0 0 0
SMALL
GASTEIGER

@<TRIPOS>ATOM
      1 C          -8.4933  -15.3562   27.3277 C.3     1  UNL1        0.0268
      2 C          -8.2396  -15.6916   25.8878 C.2     1  UNL1       -0.0379
      3 C          -7.4631  -14.7438   25.0226 C.2     1  UNL1       -0.0065
      4 C          -7.2093  -15.0792   23.5827 C.2     1  UNL1        0.0198
      5 C          -7.7321  -16.3624   23.0081 C.2     1  UNL1        0.0973
      6 N          -7.6398  -16.9583   21.6347 N.2     1  UNL1       -0.2200
      7 C          -8.3593  -18.2743   21.6511 C.2     1  UNL1        0.1901
      8 N          -8.8963  -18.4919   23.0347 N.2     1  UNL1       -0.2238
      9 C          -8.5085  -17.3102   23.8734 C.2     1  UNL1        0.0828
     10 C          -8.7623  -16.9748   25.3132 C.3     1  UNL1        0.0694
     11 S          -8.5146  -19.2088   20.4880 S.3     1  UNL1       -0.0692
     12 C          -7.3271  -19.9641   19.9690 C.3     1  UNL1        0.1107
     13 C          -5.9563  -19.6614   20.4974 C.ar    1  UNL1        0.0703
     14 C          -4.8961  -19.1366   19.5752 C.ar    1  UNL1        0.0156
     15 C          -3.5253  -18.8339   20.1036 C.ar    1  UNL1        0.0028
     16 C          -3.2147  -19.0560   21.5542 C.ar    1  UNL1        0.0207
     17 C          -4.2749  -19.5808   22.4764 C.ar    1  UNL1        0.0985
     18 N          -5.6458  -19.8835   21.9480 N.ar    1  UNL1       -0.2473
@<TRIPOS>BOND
     1     1     2    1
     2     2     3    2
     3     3     4    1
     4     4     5    2
     5     5     6    1
     6     6     7    2
     7     7    11    1
     8    11    12    1
     9    12    13    1
    10    13    14   ar
    11    14    15   ar
    12    15    16   ar
    13    16    17   ar
    14    17    18   ar
    15     7     8    1
    16     8     9    2
    17     9    10    1
    18    10     2    1
    19     9     5    1
    20    18    13   ar
@<TRIPOS>MOLECULE
*****
 18 20 0 0 0
SMALL
GASTEIGER

@<TRIPOS>ATOM
      1 C          -6.9094  -15.1568   27.8202 C.3     1  UNL1        0.0268
      2 C          -7.1435  -15.3854   26.3563 C.2     1  UNL1       -0.0379
      3 C          -6.0732  -15.0420   25.3630 C.2     1  UNL1       -0.0065
      4 C          -6.3073  -15.2706   23.8991 C.2     1  UNL1        0.0198
      5 C          -7.6116  -15.8426   23.4285 C.2     1  UNL1        0.0973
      6 N          -8.1256  -16.1761   22.0594 N.2     1  UNL1       -0.2200
      7 C          -9.5135  -16.7257   22.2064 C.2     1  UNL1        0.1901
      8 N          -9.8573  -16.7318   23.6665 N.2     1  UNL1       -0.2238
      9 C          -8.6818  -16.1860   24.4217 C.2     1  UNL1        0.0828
     10 C          -8.4478  -15.9574   25.8856 C.3     1  UNL1        0.0694
     11 S         -10.4017  -17.1879   21.0895 S.3     1  UNL1       -0.0692
     12 C         -10.1606  -18.5190   20.4414 C.3     1  UNL1        0.1107
     13 C          -8.8594  -19.2335   20.6570 C.ar    1  UNL1        0.0703
     14 C          -8.0085  -19.6132   19.4815 C.ar    1  UNL1        0.0156
     15 C          -6.7073  -20.3276   19.6971 C.ar    1  UNL1        0.0028
     16 C          -6.2570  -20.6623   21.0883 C.ar    1  UNL1        0.0207
     17 C          -7.1079  -20.2826   22.2638 C.ar    1  UNL1        0.0985
     18 N          -8.4091  -19.5681   22.0481 N.ar    1  UNL1       -0.2473
@<TRIPOS>BOND
     1     1     2    1
     2     2     3    2
     3     3     4    1
     4     4     5    2
     5     5     6    1
     6     6     7    2
     7     7    11    1
     8    11    12    1
     9    12    13    1
    10    13    14   ar
    11    14    15   ar
    12    15    16   ar
    13    16    17   ar
    14    17    18   ar
    15     7     8    1
    16     8     9    2
    17     9    10    1
    18    10     2    1
    19     9     5    1
    20    18    13   ar
