@<TRIPOS>MOLECULE
*****
 30 34 0 0 0
SMALL
GASTEIGER

@<TRIPOS>ATOM
      1 C          -5.6842  -18.2606   22.3209 C.ar    1  UNL1        0.0599
      2 C          -5.7716  -17.0398   23.1881 C.ar    1  UNL1        0.0955
      3 N          -4.4381  -16.3536   23.1582 N.ar    1  UNL1       -0.2292
      4 C          -3.5266  -17.1502   22.2725 C.ar    1  UNL1        0.1481
      5 C          -2.0948  -16.9547   21.8703 C.ar    1  UNL1        0.0488
      6 C          -1.4332  -17.9378   20.9507 C.ar    1  UNL1        0.0622
      7 CL         -0.0013  -17.7423   20.5485 Cl      1  UNL1       -0.0821
      8 C          -2.2033  -19.1164   20.4332 C.ar    1  UNL1        0.0305
      9 C          -3.6351  -19.3119   20.8354 C.ar    1  UNL1        0.0820
     10 N          -4.2967  -18.3288   21.7550 N.ar    1  UNL1       -0.2927
     11 C          -6.7901  -19.2410   22.0645 C.3     1  UNL1        0.0707
     12 C          -7.2239  -19.5316   20.6584 C.3     1  UNL1        0.1572
     13 C         -10.1414  -19.5382   19.9595 C.3     1  UNL1        0.1761
     14 S          -8.6826  -19.5349   20.3089 S.O2    1  UNL1       -0.0078
     15 O          -8.3450  -19.1604   18.8962 O.2     1  UNL1       -0.1729
     16 O          -9.0202  -19.9093   21.7217 O.2     1  UNL1       -0.1729
     17 C          -6.9803  -16.5851   23.9512 C.3     1  UNL1        0.1575
     18 N          -8.3446  -16.7136   23.3412 N.ar    1  UNL1       -0.2726
     19 C          -8.8090  -16.0589   22.0740 C.ar    1  UNL1        0.3318
     20 O          -7.9907  -15.1607   21.1945 O.2     1  UNL1       -0.2463
     21 N         -10.2355  -16.4600   21.8408 N.ar    1  UNL1       -0.2817
     22 C         -10.6527  -17.3626   22.9639 C.ar    1  UNL1        0.0827
     23 C         -11.9456  -18.0620   23.2620 C.ar    1  UNL1        0.0395
     24 C         -12.0701  -18.9183   24.4874 C.ar    1  UNL1        0.1005
     25 N         -10.9014  -19.0750   25.4146 N.ar    1  UNL1       -0.2407
     26 C          -9.6084  -18.3755   25.1165 C.ar    1  UNL1        0.1176
     27 C          -9.4840  -17.5193   23.8912 C.ar    1  UNL1        0.0992
     28 C         -11.0940  -16.0334   20.6872 C.3     1  UNL1        0.0900
     29 C         -11.2238  -15.4690   19.3035 C.3     1  UNL1        0.0246
     30 C         -12.4512  -15.8588   20.0727 C.3     1  UNL1        0.0246
@<TRIPOS>BOND
     1    13    14    1
     2    14    15    2
     3    14    16    2
     4    14    12    1
     5    12    11    1
     6    11     1    1
     7     1     2   ar
     8     2    17    1
     9    17    18    1
    10    18    19   ar
    11    19    20    2
    12    19    21   ar
    13    21    28    1
    14    28    29    1
    15    29    30    1
    16    21    22   ar
    17    22    23   ar
    18    23    24   ar
    19    24    25   ar
    20    25    26   ar
    21    26    27   ar
    22     2     3   ar
    23     3     4   ar
    24     4     5   ar
    25     5     6   ar
    26     6     7    1
    27     6     8   ar
    28     8     9   ar
    29     9    10   ar
    30    10     1   ar
    31    27    18   ar
    32    10     4   ar
    33    30    28    1
    34    27    22   ar
@<TRIPOS>MOLECULE
*****
 30 34 0 0 0
SMALL
GASTEIGER

@<TRIPOS>ATOM
      1 C          -5.3739  -18.7851   22.0015 C.ar    1  UNL1        0.0599
      2 C          -5.8386  -19.9139   21.1298 C.ar    1  UNL1        0.0955
      3 N          -4.7320  -20.2468   20.1734 N.ar    1  UNL1       -0.2292
      4 C          -3.5834  -19.3236   20.4540 C.ar    1  UNL1        0.1481
      5 C          -2.2276  -19.1890   19.8267 C.ar    1  UNL1        0.0488
      6 C          -1.2686  -18.1509   20.3293 C.ar    1  UNL1        0.0622
      7 CL          0.0874  -18.0162   19.7020 Cl      1  UNL1       -0.0821
      8 C          -1.6653  -17.2475   21.4591 C.ar    1  UNL1        0.0305
      9 C          -3.0211  -17.3822   22.0864 C.ar    1  UNL1        0.0820
     10 N          -3.9802  -18.4203   21.5839 N.ar    1  UNL1       -0.2927
     11 C          -6.1643  -18.1351   23.0983 C.3     1  UNL1        0.0707
     12 C          -6.9845  -16.9131   22.8089 C.3     1  UNL1        0.1572
     13 C          -7.3079  -14.7922   24.9058 C.3     1  UNL1        0.1761
     14 S          -7.1462  -15.8527   23.8574 S.O2    1  UNL1       -0.0078
     15 O          -5.8783  -15.1997   23.3925 O.2     1  UNL1       -0.1729
     16 O          -8.4141  -16.5057   24.3223 O.2     1  UNL1       -0.1729
     17 C          -7.1751  -20.5910   21.2018 C.3     1  UNL1        0.1575
     18 N          -8.4135  -19.7817   21.4499 N.ar    1  UNL1       -0.2726
     19 C          -9.0789  -18.8644   20.4671 C.ar    1  UNL1        0.3318
     20 O          -8.6227  -18.5955   19.0637 O.2     1  UNL1       -0.2463
     21 N         -10.2805  -18.2634   21.1341 N.ar    1  UNL1       -0.2817
     22 C         -10.3578  -18.8092   22.5292 C.ar    1  UNL1        0.0827
     23 C         -11.3297  -18.5730   23.6469 C.ar    1  UNL1        0.0395
     24 C         -11.1479  -19.2752   24.9599 C.ar    1  UNL1        0.1005
     25 N          -9.9940  -20.2135   25.1551 N.ar    1  UNL1       -0.2407
     26 C          -9.0220  -20.4498   24.0373 C.ar    1  UNL1        0.1176
     27 C          -9.2039  -19.7476   22.7243 C.ar    1  UNL1        0.0992
     28 C         -11.2369  -17.2879   20.5148 C.3     1  UNL1        0.0900
     29 C         -11.5601  -16.2851   19.4470 C.3     1  UNL1        0.0246
     30 C         -12.5704  -16.6009   20.5098 C.3     1  UNL1        0.0246
@<TRIPOS>BOND
     1    13    14    1
     2    14    15    2
     3    14    16    2
     4    14    12    1
     5    12    11    1
     6    11     1    1
     7     1     2   ar
     8     2    17    1
     9    17    18    1
    10    18    19   ar
    11    19    20    2
    12    19    21   ar
    13    21    28    1
    14    28    29    1
    15    29    30    1
    16    21    22   ar
    17    22    23   ar
    18    23    24   ar
    19    24    25   ar
    20    25    26   ar
    21    26    27   ar
    22     2     3   ar
    23     3     4   ar
    24     4     5   ar
    25     5     6   ar
    26     6     7    1
    27     6     8   ar
    28     8     9   ar
    29     9    10   ar
    30    10     1   ar
    31    27    18   ar
    32    10     4   ar
    33    30    28    1
    34    27    22   ar
@<TRIPOS>MOLECULE
*****
 30 34 0 0 0
SMALL
GASTEIGER

@<TRIPOS>ATOM
      1 C          -4.4602  -17.9313   22.6464 C.ar    1  UNL1        0.0599
      2 C          -5.3675  -19.0084   22.1299 C.ar    1  UNL1        0.0955
      3 N          -4.8162  -19.4905   20.8209 N.ar    1  UNL1       -0.2292
      4 C          -3.5682  -18.7114   20.5283 C.ar    1  UNL1        0.1481
      5 C          -2.6038  -18.7550   19.3803 C.ar    1  UNL1        0.0488
      6 C          -1.4193  -17.8349   19.3606 C.ar    1  UNL1        0.0622
      7 CL         -0.4548  -17.8784   18.2125 Cl      1  UNL1       -0.0821
      8 C          -1.1993  -16.8713   20.4888 C.ar    1  UNL1        0.0305
      9 C          -2.1637  -16.8277   21.6368 C.ar    1  UNL1        0.0820
     10 N          -3.3482  -17.7478   21.6565 N.ar    1  UNL1       -0.2927
     11 C          -4.6343  -17.1712   23.9278 C.3     1  UNL1        0.0707
     12 C          -4.9507  -15.7054   23.8933 C.3     1  UNL1        0.1572
     13 C          -7.6897  -14.7437   24.6501 C.3     1  UNL1        0.1761
     14 S          -6.3202  -15.2246   24.2717 S.O2    1  UNL1       -0.0078
     15 O          -5.8220  -14.8866   25.6456 O.2     1  UNL1       -0.1729
     16 O          -6.8184  -15.5625   22.8978 O.2     1  UNL1       -0.1729
     17 C          -6.6082  -19.5144   22.8041 C.3     1  UNL1        0.1575
     18 N          -7.9585  -19.1145   22.2880 N.ar    1  UNL1       -0.2726
     19 C          -8.9913  -18.3266   23.0381 C.ar    1  UNL1        0.3318
     20 O          -8.8549  -17.8003   24.4361 O.2     1  UNL1       -0.2463
     21 N         -10.1844  -18.1573   22.1448 N.ar    1  UNL1       -0.2817
     22 C          -9.8890  -18.8407   20.8425 C.ar    1  UNL1        0.0827
     23 C         -10.6949  -19.0007   19.5876 C.ar    1  UNL1        0.0395
     24 C         -10.1252  -19.7522   18.4211 C.ar    1  UNL1        0.1005
     25 N          -8.7496  -20.3438   18.5096 N.ar    1  UNL1       -0.2407
     26 C          -7.9436  -20.1838   19.7646 C.ar    1  UNL1        0.1176
     27 C          -8.5133  -19.4322   20.9310 C.ar    1  UNL1        0.0992
     28 C         -11.4504  -17.4322   22.4926 C.3     1  UNL1        0.0900
     29 C         -12.2345  -16.1564   22.5809 C.3     1  UNL1        0.0246
     30 C         -12.8595  -17.4517   23.0069 C.3     1  UNL1        0.0246
@<TRIPOS>BOND
     1    13    14    1
     2    14    15    2
     3    14    16    2
     4    14    12    1
     5    12    11    1
     6    11     1    1
     7     1     2   ar
     8     2    17    1
     9    17    18    1
    10    18    19   ar
    11    19    20    2
    12    19    21   ar
    13    21    28    1
    14    28    29    1
    15    29    30    1
    16    21    22   ar
    17    22    23   ar
    18    23    24   ar
    19    24    25   ar
    20    25    26   ar
    21    26    27   ar
    22     2     3   ar
    23     3     4   ar
    24     4     5   ar
    25     5     6   ar
    26     6     7    1
    27     6     8   ar
    28     8     9   ar
    29     9    10   ar
    30    10     1   ar
    31    27    18   ar
    32    10     4   ar
    33    30    28    1
    34    27    22   ar
@<TRIPOS>MOLECULE
*****
 30 34 0 0 0
SMALL
GASTEIGER

@<TRIPOS>ATOM
      1 C          -6.6363  -18.0428   22.9890 C.ar    1  UNL1        0.0599
      2 C          -7.1958  -19.3822   22.6110 C.ar    1  UNL1        0.0955
      3 N          -6.0897  -20.1912   22.0011 N.ar    1  UNL1       -0.2292
      4 C          -4.8466  -19.3518   22.0021 C.ar    1  UNL1        0.1481
      5 C          -3.4507  -19.6250   21.5260 C.ar    1  UNL1        0.0488
      6 C          -2.3926  -18.5703   21.6604 C.ar    1  UNL1        0.0622
      7 CL         -0.9966  -18.8435   21.1842 Cl      1  UNL1       -0.0821
      8 C          -2.7304  -17.2425   22.2710 C.ar    1  UNL1        0.0305
      9 C          -4.1263  -16.9694   22.7471 C.ar    1  UNL1        0.0820
     10 N          -5.1844  -18.0240   22.6127 N.ar    1  UNL1       -0.2927
     11 C          -7.3954  -16.9194   23.6306 C.3     1  UNL1        0.0707
     12 C          -6.6546  -15.7839   24.2724 C.3     1  UNL1        0.1572
     13 C          -6.8178  -15.3728   27.2396 C.3     1  UNL1        0.1761
     14 S          -6.7362  -15.5784   25.7560 S.O2    1  UNL1       -0.0078
     15 O          -5.2385  -15.5800   25.8386 O.2     1  UNL1       -0.1729
     16 O          -8.2339  -15.5768   25.6734 O.2     1  UNL1       -0.1729
     17 C          -8.6127  -19.8334   22.8083 C.3     1  UNL1        0.1575
     18 N          -9.7476  -18.9413   22.4005 N.ar    1  UNL1       -0.2726
     19 C          -9.8164  -18.1189   21.1479 C.ar    1  UNL1        0.3318
     20 O          -8.7625  -18.0443   20.0832 O.2     1  UNL1       -0.2463
     21 N         -11.1242  -17.3843   21.1469 N.ar    1  UNL1       -0.2817
     22 C         -11.8637  -17.7527   22.3990 C.ar    1  UNL1        0.0827
     23 C         -13.2018  -17.3363   22.9337 C.ar    1  UNL1        0.0395
     24 C         -13.6892  -17.8820   24.2432 C.ar    1  UNL1        0.1005
     25 N         -12.8383  -18.8443   25.0179 N.ar    1  UNL1       -0.2407
     26 C         -11.5001  -19.2608   24.4832 C.ar    1  UNL1        0.1176
     27 C         -11.0128  -18.7150   23.1737 C.ar    1  UNL1        0.0992
     28 C         -11.6077  -16.4462   20.0812 C.3     1  UNL1        0.0900
     29 C         -12.7361  -15.7755   19.3551 C.3     1  UNL1        0.0246
     30 C         -11.3168  -15.4917   18.9611 C.3     1  UNL1        0.0246
@<TRIPOS>BOND
     1    13    14    1
     2    14    15    2
     3    14    16    2
     4    14    12    1
     5    12    11    1
     6    11     1    1
     7     1     2   ar
     8     2    17    1
     9    17    18    1
    10    18    19   ar
    11    19    20    2
    12    19    21   ar
    13    21    28    1
    14    28    29    1
    15    29    30    1
    16    21    22   ar
    17    22    23   ar
    18    23    24   ar
    19    24    25   ar
    20    25    26   ar
    21    26    27   ar
    22     2     3   ar
    23     3     4   ar
    24     4     5   ar
    25     5     6   ar
    26     6     7    1
    27     6     8   ar
    28     8     9   ar
    29     9    10   ar
    30    10     1   ar
    31    27    18   ar
    32    10     4   ar
    33    30    28    1
    34    27    22   ar
@<TRIPOS>MOLECULE
*****
 30 34 0 0 0
SMALL
GASTEIGER

@<TRIPOS>ATOM
      1 C           6.5430   -3.1551   30.1307 C.ar    1  UNL1        0.0599
      2 C           5.8163   -2.2540   29.1768 C.ar    1  UNL1        0.0955
      3 N           5.7887   -2.9248   27.8355 N.ar    1  UNL1       -0.2292
      4 C           6.4983   -4.2404   27.9604 C.ar    1  UNL1        0.1481
      5 C           6.7801   -5.3272   26.9657 C.ar    1  UNL1        0.0488
      6 C           7.5282   -6.5563   27.3896 C.ar    1  UNL1        0.0622
      7 CL          7.8101   -7.6431   26.3948 Cl      1  UNL1       -0.0821
      8 C           7.9944   -6.6986   28.8082 C.ar    1  UNL1        0.0305
      9 C           7.7125   -5.6119   29.8029 C.ar    1  UNL1        0.0820
     10 N           6.9645   -4.3828   29.3790 N.ar    1  UNL1       -0.2927
     11 C           6.8027   -2.8773   31.5818 C.3     1  UNL1        0.0707
     12 C           5.7277   -3.1276   32.5974 C.3     1  UNL1        0.1572
     13 C           4.2823   -0.8177   33.8524 C.3     1  UNL1        0.1761
     14 S           5.0050   -1.9726   33.2249 S.O2    1  UNL1       -0.0078
     15 O           6.1767   -1.0821   32.9352 O.2     1  UNL1       -0.1729
     16 O           3.8333   -2.8632   33.5147 O.2     1  UNL1       -0.1729
     17 C           5.2217   -0.9169   29.5064 C.3     1  UNL1        0.1575
     18 N           3.9615   -0.4687   28.8276 N.ar    1  UNL1       -0.2726
     19 C           2.5777   -0.5381   29.4025 C.ar    1  UNL1        0.3318
     20 O           2.2114   -1.0679   30.7572 O.2     1  UNL1       -0.2463
     21 N           1.6246    0.0154   28.3850 N.ar    1  UNL1       -0.2817
     22 C           2.4193    0.4268   27.1811 C.ar    1  UNL1        0.0827
     23 C           2.0145    1.0352   25.8712 C.ar    1  UNL1        0.0395
     24 C           3.0539    1.3445   24.8348 C.ar    1  UNL1        0.1005
     25 N           4.4981    1.0453   25.1084 N.ar    1  UNL1       -0.2407
     26 C           4.9030    0.4369   26.4183 C.ar    1  UNL1        0.1176
     27 C           3.8636    0.1276   27.4547 C.ar    1  UNL1        0.0992
     28 C           0.1380    0.1362   28.5434 C.3     1  UNL1        0.0900
     29 C          -1.1706   -0.4374   29.0003 C.3     1  UNL1        0.0246
     30 C          -1.1286    0.9189   28.3610 C.3     1  UNL1        0.0246
@<TRIPOS>BOND
     1    13    14    1
     2    14    15    2
     3    14    16    2
     4    14    12    1
     5    12    11    1
     6    11     1    1
     7     1     2   ar
     8     2    17    1
     9    17    18    1
    10    18    19   ar
    11    19    20    2
    12    19    21   ar
    13    21    28    1
    14    28    29    1
    15    29    30    1
    16    21    22   ar
    17    22    23   ar
    18    23    24   ar
    19    24    25   ar
    20    25    26   ar
    21    26    27   ar
    22     2     3   ar
    23     3     4   ar
    24     4     5   ar
    25     5     6   ar
    26     6     7    1
    27     6     8   ar
    28     8     9   ar
    29     9    10   ar
    30    10     1   ar
    31    27    18   ar
    32    10     4   ar
    33    30    28    1
    34    27    22   ar
@<TRIPOS>MOLECULE
*****
 30 34 0 0 0
SMALL
GASTEIGER

@<TRIPOS>ATOM
      1 C          -7.3808  -18.3812   22.1913 C.ar    1  UNL1        0.0599
      2 C          -7.7268  -19.4331   21.1795 C.ar    1  UNL1        0.0955
      3 N          -6.4471  -20.0418   20.6877 N.ar    1  UNL1       -0.2292
      4 C          -5.3102  -19.3660   21.3955 C.ar    1  UNL1        0.1481
      5 C          -3.8242  -19.5526   21.3139 C.ar    1  UNL1        0.0488
      6 C          -2.9152  -18.7129   22.1616 C.ar    1  UNL1        0.0622
      7 CL         -1.4290  -18.8995   22.0800 Cl      1  UNL1       -0.0821
      8 C          -3.4923  -17.6865   23.0909 C.ar    1  UNL1        0.0305
      9 C          -4.9784  -17.4999   23.1725 C.ar    1  UNL1        0.0820
     10 N          -5.8874  -18.3397   22.3248 N.ar    1  UNL1       -0.2927
     11 C          -8.3570  -17.5216   22.9384 C.3     1  UNL1        0.0707
     12 C          -7.9181  -16.2012   23.4986 C.3     1  UNL1        0.1572
     13 C          -8.1439  -15.6710   26.4427 C.3     1  UNL1        0.1761
     14 S          -8.0310  -15.9361   24.9706 S.O2    1  UNL1       -0.0078
     15 O          -6.8479  -15.0170   24.8958 O.2     1  UNL1       -0.1729
     16 O          -9.2141  -16.8552   25.0454 O.2     1  UNL1       -0.1729
     17 C          -9.1096  -19.8102   20.7372 C.3     1  UNL1        0.1575
     18 N         -10.3005  -19.1062   21.3168 N.ar    1  UNL1       -0.2726
     19 C         -10.9713  -19.4337   22.6180 C.ar    1  UNL1        0.3318
     20 O         -10.5689  -20.5226   23.5678 O.2     1  UNL1       -0.2463
     21 N         -12.1152  -18.4810   22.8024 N.ar    1  UNL1       -0.2817
     22 C         -12.1514  -17.5647   21.6153 C.ar    1  UNL1        0.0827
     23 C         -13.0605  -16.4285   21.2518 C.ar    1  UNL1        0.0395
     24 C         -12.8483  -15.6786   19.9700 C.ar    1  UNL1        0.1005
     25 N         -11.7268  -16.0650   19.0520 N.ar    1  UNL1       -0.2407
     26 C         -10.8175  -17.2013   19.4155 C.ar    1  UNL1        0.1176
     27 C         -11.0298  -17.9511   20.6972 C.ar    1  UNL1        0.0992
     28 C         -13.0574  -18.4500   23.9691 C.3     1  UNL1        0.0900
     29 C         -13.3242  -18.6648   25.4295 C.3     1  UNL1        0.0246
     30 C         -14.4227  -18.1815   24.5296 C.3     1  UNL1        0.0246
@<TRIPOS>BOND
     1    13    14    1
     2    14    15    2
     3    14    16    2
     4    14    12    1
     5    12    11    1
     6    11     1    1
     7     1     2   ar
     8     2    17    1
     9    17    18    1
    10    18    19   ar
    11    19    20    2
    12    19    21   ar
    13    21    28    1
    14    28    29    1
    15    29    30    1
    16    21    22   ar
    17    22    23   ar
    18    23    24   ar
    19    24    25   ar
    20    25    26   ar
    21    26    27   ar
    22     2     3   ar
    23     3     4   ar
    24     4     5   ar
    25     5     6   ar
    26     6     7    1
    27     6     8   ar
    28     8     9   ar
    29     9    10   ar
    30    10     1   ar
    31    27    18   ar
    32    10     4   ar
    33    30    28    1
    34    27    22   ar
@<TRIPOS>MOLECULE
*****
 30 34 0 0 0
SMALL
GASTEIGER

@<TRIPOS>ATOM
      1 C          -5.5736  -18.3925   22.6846 C.ar    1  UNL1        0.0599
      2 C          -5.6566  -17.1353   23.4985 C.ar    1  UNL1        0.0955
      3 N          -4.3946  -16.3555   23.2767 N.ar    1  UNL1       -0.2292
      4 C          -3.5317  -17.1307   22.3256 C.ar    1  UNL1        0.1481
      5 C          -2.1766  -16.8529   21.7456 C.ar    1  UNL1        0.0488
      6 C          -1.5502  -17.8341   20.7996 C.ar    1  UNL1        0.0622
      7 CL         -0.1951  -17.5563   20.2195 Cl      1  UNL1       -0.0821
      8 C          -2.2790  -19.0931   20.4337 C.ar    1  UNL1        0.0305
      9 C          -3.6341  -19.3709   21.0137 C.ar    1  UNL1        0.0820
     10 N          -4.2604  -18.3897   21.9597 N.ar    1  UNL1       -0.2927
     11 C          -6.6202  -19.4644   22.6088 C.3     1  UNL1        0.0707
     12 C          -7.8512  -19.2534   21.7782 C.3     1  UNL1        0.1572
     13 C          -7.7565  -19.7050   18.8139 C.3     1  UNL1        0.1761
     14 S          -7.8039  -19.4792   20.2961 S.O2    1  UNL1       -0.0078
     15 O          -8.8633  -18.4350   20.1031 O.2     1  UNL1       -0.1729
     16 O          -6.7444  -20.5234   20.4890 O.2     1  UNL1       -0.1729
     17 C          -6.8006  -16.7292   24.3796 C.3     1  UNL1        0.1575
     18 N          -8.2053  -16.7798   23.8559 N.ar    1  UNL1       -0.2726
     19 C          -9.3416  -17.5558   24.4531 C.ar    1  UNL1        0.3318
     20 O          -9.2726  -18.4175   25.6789 O.2     1  UNL1       -0.2463
     21 N         -10.5589  -17.3188   23.6093 N.ar    1  UNL1       -0.2817
     22 C         -10.1750  -16.3963   22.4905 C.ar    1  UNL1        0.0827
     23 C         -10.9619  -15.8166   21.3528 C.ar    1  UNL1        0.0395
     24 C         -10.2944  -14.9038   20.3673 C.ar    1  UNL1        0.1005
     25 N          -8.8398  -14.5706   20.5197 N.ar    1  UNL1       -0.2407
     26 C          -8.0527  -15.1503   21.6575 C.ar    1  UNL1        0.1176
     27 C          -8.7203  -16.0632   22.6429 C.ar    1  UNL1        0.0992
     28 C         -11.9209  -17.9019   23.8432 C.3     1  UNL1        0.0900
     29 C         -12.8116  -18.8788   24.5521 C.3     1  UNL1        0.0246
     30 C         -13.3895  -17.9352   23.5394 C.3     1  UNL1        0.0246
@<TRIPOS>BOND
     1    13    14    1
     2    14    15    2
     3    14    16    2
     4    14    12    1
     5    12    11    1
     6    11     1    1
     7     1     2   ar
     8     2    17    1
     9    17    18    1
    10    18    19   ar
    11    19    20    2
    12    19    21   ar
    13    21    28    1
    14    28    29    1
    15    29    30    1
    16    21    22   ar
    17    22    23   ar
    18    23    24   ar
    19    24    25   ar
    20    25    26   ar
    21    26    27   ar
    22     2     3   ar
    23     3     4   ar
    24     4     5   ar
    25     5     6   ar
    26     6     7    1
    27     6     8   ar
    28     8     9   ar
    29     9    10   ar
    30    10     1   ar
    31    27    18   ar
    32    10     4   ar
    33    30    28    1
    34    27    22   ar
@<TRIPOS>MOLECULE
*****
 30 34 0 0 0
SMALL
GASTEIGER

@<TRIPOS>ATOM
      1 C          -4.3839  -17.5035   22.6579 C.ar    1  UNL1        0.0599
      2 C          -5.1458  -18.6095   21.9900 C.ar    1  UNL1        0.0955
      3 N          -4.2999  -19.1466   20.8737 N.ar    1  UNL1       -0.2292
      4 C          -3.0153  -18.3724   20.8517 C.ar    1  UNL1        0.1481
      5 C          -1.8050  -18.4610   19.9701 C.ar    1  UNL1        0.0488
      6 C          -0.6466  -17.5340   20.1912 C.ar    1  UNL1        0.0622
      7 CL          0.5637  -17.6225   19.3096 Cl      1  UNL1       -0.0821
      8 C          -0.6986  -16.5185   21.2940 C.ar    1  UNL1        0.0305
      9 C          -1.9089  -16.4300   22.1756 C.ar    1  UNL1        0.0820
     10 N          -3.0672  -17.3569   21.9545 N.ar    1  UNL1       -0.2927
     11 C          -4.8559  -16.6872   23.8246 C.3     1  UNL1        0.0707
     12 C          -6.0920  -15.8468   23.7008 C.3     1  UNL1        0.1572
     13 C          -7.8044  -15.3333   26.1100 C.3     1  UNL1        0.1761
     14 S          -6.9482  -15.5901   24.9054 S.O2    1  UNL1       -0.0078
     15 O          -5.7670  -15.8346   25.7970 O.2     1  UNL1       -0.1729
     16 O          -8.1294  -15.3455   24.0138 O.2     1  UNL1       -0.1729
     17 C          -6.5133  -19.0936   22.3713 C.3     1  UNL1        0.1575
     18 N          -7.5475  -19.3312   21.3111 N.ar    1  UNL1       -0.2726
     19 C          -7.4308  -20.2922   20.1652 C.ar    1  UNL1        0.3318
     20 O          -6.2594  -21.1842   19.8785 O.2     1  UNL1       -0.2463
     21 N          -8.6911  -20.2046   19.3565 N.ar    1  UNL1       -0.2817
     22 C          -9.5868  -19.1894   20.0026 C.ar    1  UNL1        0.0827
     23 C         -10.9545  -18.6868   19.6470 C.ar    1  UNL1        0.0395
     24 C         -11.6156  -17.6444   20.4994 C.ar    1  UNL1        0.1005
     25 N         -10.9088  -17.1047   21.7073 N.ar    1  UNL1       -0.2407
     26 C          -9.5410  -17.6073   22.0630 C.ar    1  UNL1        0.1176
     27 C          -8.8799  -18.6497   21.2106 C.ar    1  UNL1        0.0992
     28 C          -9.0013  -20.9935   18.1191 C.3     1  UNL1        0.0900
     29 C          -8.9272  -22.2749   17.3428 C.3     1  UNL1        0.0246
     30 C          -9.6127  -21.0787   16.7520 C.3     1  UNL1        0.0246
@<TRIPOS>BOND
     1    13    14    1
     2    14    15    2
     3    14    16    2
     4    14    12    1
     5    12    11    1
     6    11     1    1
     7     1     2   ar
     8     2    17    1
     9    17    18    1
    10    18    19   ar
    11    19    20    2
    12    19    21   ar
    13    21    28    1
    14    28    29    1
    15    29    30    1
    16    21    22   ar
    17    22    23   ar
    18    23    24   ar
    19    24    25   ar
    20    25    26   ar
    21    26    27   ar
    22     2     3   ar
    23     3     4   ar
    24     4     5   ar
    25     5     6   ar
    26     6     7    1
    27     6     8   ar
    28     8     9   ar
    29     9    10   ar
    30    10     1   ar
    31    27    18   ar
    32    10     4   ar
    33    30    28    1
    34    27    22   ar
@<TRIPOS>MOLECULE
*****
 30 34 0 0 0
SMALL
GASTEIGER

@<TRIPOS>ATOM
      1 C           3.0340   -0.3982   29.4337 C.ar    1  UNL1        0.0599
      2 C           4.2707   -0.3283   28.5878 C.ar    1  UNL1        0.0955
      3 N           3.8937    0.2681   27.2641 N.ar    1  UNL1       -0.2292
      4 C           2.4240    0.5668   27.2920 C.ar    1  UNL1        0.1481
      5 C           1.5009    1.1606   26.2696 C.ar    1  UNL1        0.0488
      6 C           0.0465    1.3425   26.5881 C.ar    1  UNL1        0.0622
      7 CL         -0.8767    1.9363   25.5657 Cl      1  UNL1       -0.0821
      8 C          -0.4848    0.9307   27.9290 C.ar    1  UNL1        0.0305
      9 C           0.4382    0.3369   28.9514 C.ar    1  UNL1        0.0820
     10 N           1.8927    0.1550   28.6329 N.ar    1  UNL1       -0.2927
     11 C           2.9528   -0.9282   30.8346 C.3     1  UNL1        0.0707
     12 C           3.2727   -0.0332   31.9949 C.3     1  UNL1        0.1572
     13 C           4.7491   -1.1234   34.3681 C.3     1  UNL1        0.1761
     14 S           4.0109   -0.5783   33.1815 S.O2    1  UNL1       -0.0078
     15 O           4.4329    0.8112   33.5573 O.2     1  UNL1       -0.1729
     16 O           3.5889   -1.9678   32.8057 O.2     1  UNL1       -0.1729
     17 C           5.6434   -0.7761   28.9942 C.3     1  UNL1        0.1575
     18 N           6.0632   -2.1995   28.7761 N.ar    1  UNL1       -0.2726
     19 C           6.2608   -2.8668   27.4472 C.ar    1  UNL1        0.3318
     20 O           6.0734   -2.2276   26.1032 O.2     1  UNL1       -0.2463
     21 N           6.6788   -4.2853   27.6983 N.ar    1  UNL1       -0.2817
     22 C           6.7395   -4.4949   29.1824 C.ar    1  UNL1        0.0827
     23 C           7.0920   -5.6929   30.0132 C.ar    1  UNL1        0.0395
     24 C           7.0640   -5.6019   31.5103 C.ar    1  UNL1        0.1005
     25 N           6.6836   -4.3129   32.1763 N.ar    1  UNL1       -0.2407
     26 C           6.3310   -3.1148   31.3454 C.ar    1  UNL1        0.1176
     27 C           6.3590   -3.2058   29.8485 C.ar    1  UNL1        0.0992
     28 C           6.9827   -5.3137   26.6495 C.3     1  UNL1        0.0900
     29 C           7.3670   -5.6586   25.2412 C.3     1  UNL1        0.0246
     30 C           7.1248   -6.7501   26.2412 C.3     1  UNL1        0.0246
@<TRIPOS>BOND
     1    13    14    1
     2    14    15    2
     3    14    16    2
     4    14    12    1
     5    12    11    1
     6    11     1    1
     7     1     2   ar
     8     2    17    1
     9    17    18    1
    10    18    19   ar
    11    19    20    2
    12    19    21   ar
    13    21    28    1
    14    28    29    1
    15    29    30    1
    16    21    22   ar
    17    22    23   ar
    18    23    24   ar
    19    24    25   ar
    20    25    26   ar
    21    26    27   ar
    22     2     3   ar
    23     3     4   ar
    24     4     5   ar
    25     5     6   ar
    26     6     7    1
    27     6     8   ar
    28     8     9   ar
    29     9    10   ar
    30    10     1   ar
    31    27    18   ar
    32    10     4   ar
    33    30    28    1
    34    27    22   ar
