@<TRIPOS>MOLECULE
*****
 38 41 0 0 0
SMALL
GASTEIGER

@<TRIPOS>ATOM
      1 N           0.1412    2.7741   26.6836 N.ar    1  UNL1       -0.2340
      2 C           0.9339    1.8059   25.8564 C.ar    1  UNL1        0.3338
      3 O           1.7835    0.7670   26.5265 O.2     1  UNL1       -0.2463
      4 N           0.8770    1.8766   24.3592 N.ar    1  UNL1       -0.2776
      5 C           0.0274    2.9154   23.6891 C.ar    1  UNL1        0.2175
      6 N          -0.0295    2.9861   22.1918 N.2     1  UNL1       -0.2128
      7 N          -0.7652    3.8836   24.5163 N.ar    1  UNL1       -0.2479
      8 C          -0.7083    3.8130   26.0135 C.ar    1  UNL1        0.3373
      9 O          -1.5010    4.7812   26.8407 O.2     1  UNL1       -0.2461
     10 H           1.3973    1.2411   23.8163 H       1  UNL1        0.1733
     11 C           0.7632    2.0179   21.3647 C.ar    1  UNL1        0.0846
     12 C           2.1687    2.3517   20.9608 C.ar    1  UNL1        0.0223
     13 C           2.9614    1.3834   20.1336 C.ar    1  UNL1        0.0390
     14 C           2.3485    0.0815   19.7102 C.ar    1  UNL1        0.1454
     15 C           0.9430   -0.2523   20.1141 C.ar    1  UNL1        0.0390
     16 C           0.1503    0.7159   20.9413 C.ar    1  UNL1        0.0223
     17 O           3.1412   -0.8868   18.8830 O.3     1  UNL1       -0.4533
     18 C           3.7079   -2.1239   19.5141 C.ar    1  UNL1        0.1507
     19 C           4.0066   -2.1466   20.9840 C.ar    1  UNL1        0.0583
     20 C           4.5733   -3.3837   21.6151 C.ar    1  UNL1        0.1044
     21 N           4.8414   -4.5982   20.7764 N.ar    1  UNL1       -0.2163
     22 C           4.5428   -4.5754   19.3067 C.ar    1  UNL1        0.2254
     23 F           4.8109   -5.7898   18.4680 F       1  UNL1       -0.1831
     24 C           3.9760   -3.3383   18.6755 C.ar    1  UNL1        0.0871
     25 C           0.1981    2.7035   28.1809 C.3     1  UNL1        0.1205
     26 C          -1.3967    0.6656   28.4121 C.3     1  UNL1        0.0079
     27 C          -0.2061    1.4440   28.8882 C.3     1  UNL1        0.0594
     28 C           0.5801    0.9630   30.0716 C.2     1  UNL1        0.0519
     29 O           1.3949   -0.2923   29.9706 O.co2   1  UNL1       -0.5491
     30 O           0.5515    1.7374   31.3560 O.co2   1  UNL1       -0.5491
     31 C          -1.6148    4.9225   23.8462 C.3     1  UNL1        0.1401
     32 C          -3.0924    4.7062   23.7053 C.ar    1  UNL1        0.0007
     33 C          -3.6077    3.5108   22.9598 C.ar    1  UNL1       -0.0015
     34 C          -5.0853    3.2945   22.8189 C.ar    1  UNL1        0.0111
     35 C          -6.0477    4.2735   23.4235 C.ar    1  UNL1        0.0577
     36 CL         -7.5252    4.0571   23.2825 Cl      1  UNL1       -0.0822
     37 C          -5.5324    5.4688   24.1689 C.ar    1  UNL1        0.0111
     38 C          -4.0548    5.6852   24.3098 C.ar    1  UNL1       -0.0015
@<TRIPOS>UNITY_ATOM_ATTR
29 1
charge -1
@<TRIPOS>BOND
     1    27    26    1
     2    27    25    1
     3    25     1    1
     4     1     2   ar
     5     2     3    2
     6     2     4   ar
     7     4     5   ar
     8     5     6    2
     9     6    11    1
    10    11    12   ar
    11    12    13   ar
    12    13    14   ar
    13    14    17    1
    14    17    18    1
    15    18    19   ar
    16    19    20   ar
    17    20    21   ar
    18    21    22   ar
    19    22    23    1
    20    22    24   ar
    21    14    15   ar
    22    15    16   ar
    23     5     7   ar
    24     7    31    1
    25    31    32    1
    26    32    33   ar
    27    33    34   ar
    28    34    35   ar
    29    35    36    1
    30    35    37   ar
    31    37    38   ar
    32     7     8   ar
    33     8     9    2
    34    27    28    1
    35    28    29   ar
    36    28    30   ar
    37     8     1   ar
    38    16    11   ar
    39    38    32   ar
    40    24    18   ar
    41     4    10    1
@<TRIPOS>MOLECULE
*****
 38 41 0 0 0
SMALL
GASTEIGER

@<TRIPOS>ATOM
      1 N           1.1800    1.0588   19.8193 N.ar    1  UNL1       -0.2340
      2 C           1.4358    0.7990   21.2743 C.ar    1  UNL1        0.3338
      3 O           2.3111   -0.3465   21.6891 O.2     1  UNL1       -0.2463
      4 N           0.8164    1.6846   22.3145 N.ar    1  UNL1       -0.2776
      5 C          -0.0588    2.8299   21.8998 C.ar    1  UNL1        0.2175
      6 N          -0.6782    3.7155   22.9400 N.2     1  UNL1       -0.2128
      7 N          -0.3146    3.0897   20.4448 N.ar    1  UNL1       -0.2479
      8 C           0.3048    2.2041   19.4046 C.ar    1  UNL1        0.3373
      9 O           0.0490    2.4640   17.9495 O.2     1  UNL1       -0.2461
     10 H           0.9844    1.5140   23.2695 H       1  UNL1        0.1733
     11 C          -0.4223    3.4557   24.3950 C.ar    1  UNL1        0.0846
     12 C           0.8411    3.9506   25.0344 C.ar    1  UNL1        0.0223
     13 C           1.0968    3.6908   26.4895 C.ar    1  UNL1        0.0390
     14 C           0.0893    2.9361   27.3050 C.ar    1  UNL1        0.1454
     15 C          -1.1742    2.4412   26.6656 C.ar    1  UNL1        0.0390
     16 C          -1.4300    2.7010   25.2106 C.ar    1  UNL1        0.0223
     17 O           0.3450    2.6763   28.7601 O.3     1  UNL1       -0.4533
     18 C           1.2457    1.5504   29.1739 C.ar    1  UNL1        0.1507
     19 C           1.6983    1.4372   30.5996 C.ar    1  UNL1        0.0583
     20 C           2.5989    0.3113   31.0133 C.ar    1  UNL1        0.1044
     21 N           3.0470   -0.7013   30.0015 N.ar    1  UNL1       -0.2163
     22 C           2.5944   -0.5881   28.5759 C.ar    1  UNL1        0.2254
     23 F           3.0425   -1.6007   27.5641 F       1  UNL1       -0.1831
     24 C           1.6938    0.5378   28.1621 C.ar    1  UNL1        0.0871
     25 C           1.7994    0.1732   18.7791 C.3     1  UNL1        0.1205
     26 C           3.8194    1.7796   18.4803 C.3     1  UNL1        0.0079
     27 C           3.2092    0.4176   18.3289 C.3     1  UNL1        0.0594
     28 C           4.0089   -0.6998   17.7274 C.2     1  UNL1        0.0519
     29 O           3.8509   -1.0375   16.2745 O.co2   1  UNL1       -0.5491
     30 O           4.9666   -1.4796   18.5788 O.co2   1  UNL1       -0.5491
     31 C          -1.1898    4.2352   20.0300 C.3     1  UNL1        0.1401
     32 C          -2.6273    3.9914   19.6777 C.ar    1  UNL1        0.0007
     33 C          -3.5918    3.5384   20.7335 C.ar    1  UNL1       -0.0015
     34 C          -5.0294    3.2946   20.3812 C.ar    1  UNL1        0.0111
     35 C          -5.5024    3.5038   18.9732 C.ar    1  UNL1        0.0577
     36 CL         -6.9399    3.2600   18.6210 Cl      1  UNL1       -0.0822
     37 C          -4.5379    3.9567   17.9175 C.ar    1  UNL1        0.0111
     38 C          -3.1004    4.2005   18.2697 C.ar    1  UNL1       -0.0015
@<TRIPOS>UNITY_ATOM_ATTR
29 1
charge -1
@<TRIPOS>BOND
     1    27    26    1
     2    27    25    1
     3    25     1    1
     4     1     2   ar
     5     2     3    2
     6     2     4   ar
     7     4     5   ar
     8     5     6    2
     9     6    11    1
    10    11    12   ar
    11    12    13   ar
    12    13    14   ar
    13    14    17    1
    14    17    18    1
    15    18    19   ar
    16    19    20   ar
    17    20    21   ar
    18    21    22   ar
    19    22    23    1
    20    22    24   ar
    21    14    15   ar
    22    15    16   ar
    23     5     7   ar
    24     7    31    1
    25    31    32    1
    26    32    33   ar
    27    33    34   ar
    28    34    35   ar
    29    35    36    1
    30    35    37   ar
    31    37    38   ar
    32     7     8   ar
    33     8     9    2
    34    27    28    1
    35    28    29   ar
    36    28    30   ar
    37     8     1   ar
    38    16    11   ar
    39    38    32   ar
    40    24    18   ar
    41     4    10    1
@<TRIPOS>MOLECULE
*****
 38 41 0 0 0
SMALL
GASTEIGER

@<TRIPOS>ATOM
      1 N          -3.2055    4.8309   22.9178 N.ar    1  UNL1       -0.2340
      2 C          -2.7794    4.0614   21.7028 C.ar    1  UNL1        0.3338
      3 O          -3.6983    3.9553   20.5219 O.2     1  UNL1       -0.2463
      4 N          -1.4346    3.3979   21.6686 N.ar    1  UNL1       -0.2776
      5 C          -0.5157    3.5040   22.8495 C.ar    1  UNL1        0.2175
      6 N           0.8291    2.8405   22.8153 N.2     1  UNL1       -0.2128
      7 N          -0.9418    4.2735   24.0645 N.ar    1  UNL1       -0.2479
      8 C          -2.2866    4.9369   24.0987 C.ar    1  UNL1        0.3373
      9 O          -2.7126    5.7065   25.3138 O.2     1  UNL1       -0.2461
     10 H          -1.1550    2.8929   20.8711 H       1  UNL1        0.1733
     11 C           1.2552    2.0710   21.6003 C.ar    1  UNL1        0.0846
     12 C           1.0340    0.5889   21.5355 C.ar    1  UNL1        0.0223
     13 C           1.4601   -0.1806   20.3204 C.ar    1  UNL1        0.0390
     14 C           2.1073    0.5321   19.1701 C.ar    1  UNL1        0.1454
     15 C           2.3285    2.0143   19.2349 C.ar    1  UNL1        0.0390
     16 C           1.9024    2.7837   20.4499 C.ar    1  UNL1        0.0223
     17 O           2.5333   -0.2374   17.9550 O.3     1  UNL1       -0.4533
     18 C           3.9518   -0.7075   17.8242 C.ar    1  UNL1        0.1507
     19 C           4.3152   -2.1112   18.2086 C.ar    1  UNL1        0.0583
     20 C           5.7336   -2.5813   18.0778 C.ar    1  UNL1        0.1044
     21 N           6.7886   -1.6477   17.5626 N.ar    1  UNL1       -0.2163
     22 C           6.4252   -0.2441   17.1782 C.ar    1  UNL1        0.2254
     23 F           7.4802    0.6894   16.6631 F       1  UNL1       -0.1831
     24 C           5.0068    0.2260   17.3090 C.ar    1  UNL1        0.0871
     25 C          -4.5503    5.4943   22.9520 C.3     1  UNL1        0.1205
     26 C          -6.7451    4.1812   22.4954 C.3     1  UNL1        0.0079
     27 C          -5.7445    4.7431   23.4614 C.3     1  UNL1        0.0594
     28 C          -5.9381    4.5537   24.9367 C.2     1  UNL1        0.0519
     29 O          -6.8995    5.4284   25.6854 O.co2   1  UNL1       -0.5491
     30 O          -5.1703    3.4895   25.6634 O.co2   1  UNL1       -0.5491
     31 C          -0.0229    4.3796   25.2454 C.3     1  UNL1        0.1401
     32 C           0.1107    3.2283   26.1975 C.ar    1  UNL1        0.0007
     33 C           1.4639    2.8302   26.7079 C.ar    1  UNL1       -0.0015
     34 C           1.5975    1.6788   27.6600 C.ar    1  UNL1        0.0111
     35 C           0.3779    0.9256   28.1018 C.ar    1  UNL1        0.0577
     36 CL          0.5115   -0.2257   29.0540 Cl      1  UNL1       -0.0822
     37 C          -0.9753    1.3236   27.5915 C.ar    1  UNL1        0.0111
     38 C          -1.1089    2.4749   26.6394 C.ar    1  UNL1       -0.0015
@<TRIPOS>UNITY_ATOM_ATTR
29 1
charge -1
@<TRIPOS>BOND
     1    27    26    1
     2    27    25    1
     3    25     1    1
     4     1     2   ar
     5     2     3    2
     6     2     4   ar
     7     4     5   ar
     8     5     6    2
     9     6    11    1
    10    11    12   ar
    11    12    13   ar
    12    13    14   ar
    13    14    17    1
    14    17    18    1
    15    18    19   ar
    16    19    20   ar
    17    20    21   ar
    18    21    22   ar
    19    22    23    1
    20    22    24   ar
    21    14    15   ar
    22    15    16   ar
    23     5     7   ar
    24     7    31    1
    25    31    32    1
    26    32    33   ar
    27    33    34   ar
    28    34    35   ar
    29    35    36    1
    30    35    37   ar
    31    37    38   ar
    32     7     8   ar
    33     8     9    2
    34    27    28    1
    35    28    29   ar
    36    28    30   ar
    37     8     1   ar
    38    16    11   ar
    39    38    32   ar
    40    24    18   ar
    41     4    10    1
@<TRIPOS>MOLECULE
*****
 38 41 0 0 0
SMALL
GASTEIGER

@<TRIPOS>ATOM
      1 N          -3.3360    4.8468   23.0769 N.ar    1  UNL1       -0.2340
      2 C          -2.9138    4.1187   21.8353 C.ar    1  UNL1        0.3338
      3 O          -3.8500    4.0227   20.6672 O.2     1  UNL1       -0.2463
      4 N          -1.5555    3.4866   21.7618 N.ar    1  UNL1       -0.2776
      5 C          -0.6194    3.5826   22.9298 C.ar    1  UNL1        0.2175
      6 N           0.7389    2.9504   22.8563 N.2     1  UNL1       -0.2128
      7 N          -1.0416    4.3107   24.1714 N.ar    1  UNL1       -0.2479
      8 C          -2.3999    4.9428   24.2450 C.ar    1  UNL1        0.3373
      9 O          -2.8220    5.6709   25.4866 O.2     1  UNL1       -0.2461
     10 H          -1.2784    3.0087   20.9469 H       1  UNL1        0.1733
     11 C           1.1611    2.2223   21.6147 C.ar    1  UNL1        0.0846
     12 C           1.9391    2.9404   20.5521 C.ar    1  UNL1        0.0223
     13 C           2.3613    2.2122   19.3105 C.ar    1  UNL1        0.0390
     14 C           2.0055    0.7661   19.1315 C.ar    1  UNL1        0.1454
     15 C           1.2274    0.0480   20.1941 C.ar    1  UNL1        0.0390
     16 C           0.8053    0.7761   21.4357 C.ar    1  UNL1        0.0223
     17 O           2.4277    0.0379   17.8899 O.3     1  UNL1       -0.4533
     18 C           3.8006   -0.5597   17.8011 C.ar    1  UNL1        0.1507
     19 C           4.9529    0.2754   17.3268 C.ar    1  UNL1        0.0583
     20 C           6.3258   -0.3222   17.2380 C.ar    1  UNL1        0.1044
     21 N           6.5465   -1.7549   17.6236 N.ar    1  UNL1       -0.2163
     22 C           5.3943   -2.5900   18.0979 C.ar    1  UNL1        0.2254
     23 F           5.6150   -4.0227   18.4834 F       1  UNL1       -0.1831
     24 C           4.0213   -1.9924   18.1866 C.ar    1  UNL1        0.0871
     25 C          -4.6943    5.4790   23.1504 C.3     1  UNL1        0.1205
     26 C          -5.7667    3.9816   24.9828 C.3     1  UNL1        0.0079
     27 C          -5.8620    4.6899   23.6640 C.3     1  UNL1        0.0594
     28 C          -7.1249    4.6090   22.8587 C.2     1  UNL1        0.0519
     29 O          -7.0922    4.8775   21.3834 O.co2   1  UNL1       -0.5491
     30 O          -8.4207    4.2596   23.5290 O.co2   1  UNL1       -0.5491
     31 C          -0.1054    4.4067   25.3396 C.3     1  UNL1        0.1401
     32 C           0.0551    3.2410   26.2699 C.ar    1  UNL1        0.0007
     33 C          -1.1532    2.4938   26.7513 C.ar    1  UNL1       -0.0015
     34 C          -0.9927    1.3281   27.6817 C.ar    1  UNL1        0.0111
     35 C           0.3760    0.9097   28.1305 C.ar    1  UNL1        0.0577
     36 CL          0.5365   -0.2560   29.0608 Cl      1  UNL1       -0.0822
     37 C           1.5843    1.6569   27.6490 C.ar    1  UNL1        0.0111
     38 C           1.4238    2.8225   26.7187 C.ar    1  UNL1       -0.0015
@<TRIPOS>UNITY_ATOM_ATTR
29 1
charge -1
@<TRIPOS>BOND
     1    27    26    1
     2    27    25    1
     3    25     1    1
     4     1     2   ar
     5     2     3    2
     6     2     4   ar
     7     4     5   ar
     8     5     6    2
     9     6    11    1
    10    11    12   ar
    11    12    13   ar
    12    13    14   ar
    13    14    17    1
    14    17    18    1
    15    18    19   ar
    16    19    20   ar
    17    20    21   ar
    18    21    22   ar
    19    22    23    1
    20    22    24   ar
    21    14    15   ar
    22    15    16   ar
    23     5     7   ar
    24     7    31    1
    25    31    32    1
    26    32    33   ar
    27    33    34   ar
    28    34    35   ar
    29    35    36    1
    30    35    37   ar
    31    37    38   ar
    32     7     8   ar
    33     8     9    2
    34    27    28    1
    35    28    29   ar
    36    28    30   ar
    37     8     1   ar
    38    16    11   ar
    39    38    32   ar
    40    24    18   ar
    41     4    10    1
@<TRIPOS>MOLECULE
*****
 38 41 0 0 0
SMALL
GASTEIGER

@<TRIPOS>ATOM
      1 N           3.4332    1.8883   34.0767 N.ar    1  UNL1       -0.2340
      2 C           2.5558    2.5688   33.0682 C.ar    1  UNL1        0.3338
      3 O           2.1023    3.9798   33.2993 O.2     1  UNL1       -0.2463
      4 N           2.1319    1.8383   31.8286 N.ar    1  UNL1       -0.2776
      5 C           2.5854    0.4273   31.5974 C.ar    1  UNL1        0.2175
      6 N           2.1615   -0.3032   30.3578 N.2     1  UNL1       -0.2128
      7 N           3.4628   -0.2532   32.6059 N.ar    1  UNL1       -0.2479
      8 C           3.8867    0.4773   33.8455 C.ar    1  UNL1        0.3373
      9 O           4.7641   -0.2033   34.8541 O.2     1  UNL1       -0.2461
     10 H           1.5561    2.2849   31.1666 H       1  UNL1        0.1733
     11 C           1.2841    0.3773   29.3493 C.ar    1  UNL1        0.0846
     12 C          -0.1668    0.0102   29.2483 C.ar    1  UNL1        0.0223
     13 C          -1.0442    0.6908   28.2398 C.ar    1  UNL1        0.0390
     14 C          -0.4706    1.7383   27.3322 C.ar    1  UNL1        0.1454
     15 C           0.9803    2.1054   27.4332 C.ar    1  UNL1        0.0390
     16 C           1.8576    1.4249   28.4417 C.ar    1  UNL1        0.0223
     17 O          -1.3480    2.4189   26.3236 O.3     1  UNL1       -0.4533
     18 C          -2.0777    3.6767   26.6917 C.ar    1  UNL1        0.1507
     19 C          -1.3130    4.8732   27.1754 C.ar    1  UNL1        0.0583
     20 C          -2.0426    6.1310   27.5434 C.ar    1  UNL1        0.1044
     21 N          -3.5369    6.1924   27.4278 N.ar    1  UNL1       -0.2163
     22 C          -4.3015    4.9960   26.9441 C.ar    1  UNL1        0.2254
     23 F          -5.7958    5.0575   26.8285 F       1  UNL1       -0.1831
     24 C          -3.5719    3.7382   26.5761 C.ar    1  UNL1        0.0871
     25 C           3.8571    2.6188   35.3163 C.3     1  UNL1        0.1205
     26 C           2.0103    3.8418   36.6741 C.3     1  UNL1        0.0079
     27 C           2.9408    2.6778   36.5024 C.3     1  UNL1        0.0594
     28 C           2.9548    1.5729   37.5168 C.2     1  UNL1        0.0519
     29 O           1.6857    1.1756   38.2107 O.co2   1  UNL1       -0.5491
     30 O           4.2381    0.8654   37.8373 O.co2   1  UNL1       -0.5491
     31 C           3.9163   -1.6642   32.3748 C.3     1  UNL1        0.1401
     32 C           5.2976   -1.9325   31.8552 C.ar    1  UNL1        0.0007
     33 C           6.1191   -3.0399   32.4458 C.ar    1  UNL1       -0.0015
     34 C           7.5004   -3.3082   31.9261 C.ar    1  UNL1        0.0111
     35 C           8.0602   -2.4690   30.8160 C.ar    1  UNL1        0.0577
     36 CL          9.4415   -2.7372   30.2965 Cl      1  UNL1       -0.0822
     37 C           7.2387   -1.3615   30.2255 C.ar    1  UNL1        0.0111
     38 C           5.8574   -1.0933   30.7451 C.ar    1  UNL1       -0.0015
@<TRIPOS>UNITY_ATOM_ATTR
29 1
charge -1
@<TRIPOS>BOND
     1    27    26    1
     2    27    25    1
     3    25     1    1
     4     1     2   ar
     5     2     3    2
     6     2     4   ar
     7     4     5   ar
     8     5     6    2
     9     6    11    1
    10    11    12   ar
    11    12    13   ar
    12    13    14   ar
    13    14    17    1
    14    17    18    1
    15    18    19   ar
    16    19    20   ar
    17    20    21   ar
    18    21    22   ar
    19    22    23    1
    20    22    24   ar
    21    14    15   ar
    22    15    16   ar
    23     5     7   ar
    24     7    31    1
    25    31    32    1
    26    32    33   ar
    27    33    34   ar
    28    34    35   ar
    29    35    36    1
    30    35    37   ar
    31    37    38   ar
    32     7     8   ar
    33     8     9    2
    34    27    28    1
    35    28    29   ar
    36    28    30   ar
    37     8     1   ar
    38    16    11   ar
    39    38    32   ar
    40    24    18   ar
    41     4    10    1
@<TRIPOS>MOLECULE
*****
 38 41 0 0 0
SMALL
GASTEIGER

@<TRIPOS>ATOM
      1 N           4.8986   -0.4918   30.4557 N.ar    1  UNL1       -0.2340
      2 C           5.7770   -0.5600   29.2418 C.ar    1  UNL1        0.3338
      3 O           7.2659   -0.6551   29.3979 O.2     1  UNL1       -0.2463
      4 N           5.1667   -0.5333   27.8719 N.ar    1  UNL1       -0.2776
      5 C           3.6779   -0.4383   27.7158 C.ar    1  UNL1        0.2175
      6 N           3.0676   -0.4115   26.3458 N.2     1  UNL1       -0.2128
      7 N           2.7995   -0.3700   28.9296 N.ar    1  UNL1       -0.2479
      8 C           3.4098   -0.3968   30.2996 C.ar    1  UNL1        0.3373
      9 O           2.5312   -0.3285   31.5135 O.2     1  UNL1       -0.2461
     10 H           5.7433   -0.5781   27.0751 H       1  UNL1        0.1733
     11 C           3.9461   -0.4798   25.1319 C.ar    1  UNL1        0.0846
     12 C           4.4361    0.7836   24.4887 C.ar    1  UNL1        0.0223
     13 C           5.3147    0.7152   23.2748 C.ar    1  UNL1        0.0390
     14 C           5.7031   -0.6164   22.7041 C.ar    1  UNL1        0.1454
     15 C           5.2131   -1.8798   23.3473 C.ar    1  UNL1        0.0390
     16 C           4.3346   -1.8115   24.5612 C.ar    1  UNL1        0.0223
     17 O           6.5817   -0.6847   21.4901 O.3     1  UNL1       -0.4533
     18 C           6.0053   -1.1023   20.1698 C.ar    1  UNL1        0.1507
     19 C           6.4561   -2.3794   19.5248 C.ar    1  UNL1        0.0583
     20 C           5.8797   -2.7970   18.2045 C.ar    1  UNL1        0.1044
     21 N           4.8525   -1.9375   17.5290 N.ar    1  UNL1       -0.2163
     22 C           4.4017   -0.6604   18.1740 C.ar    1  UNL1        0.2254
     23 F           3.3746    0.1990   17.4985 F       1  UNL1       -0.1831
     24 C           4.9781   -0.2429   19.4943 C.ar    1  UNL1        0.0871
     25 C           5.5089   -0.5185   31.8257 C.3     1  UNL1        0.1205
     26 C           6.5065   -2.8793   32.2518 C.3     1  UNL1        0.0079
     27 C           5.5330   -1.7961   32.6112 C.3     1  UNL1        0.0594
     28 C           4.5836   -1.9906   33.7561 C.2     1  UNL1        0.0519
     29 O           3.6244   -3.1438   33.7474 O.co2   1  UNL1       -0.5491
     30 O           4.5935   -1.0320   34.9098 O.co2   1  UNL1       -0.5491
     31 C           1.3106   -0.2750   28.7736 C.3     1  UNL1        0.1401
     32 C           0.6806    1.0236   28.3653 C.ar    1  UNL1        0.0007
     33 C          -0.4092    1.0372   27.3346 C.ar    1  UNL1       -0.0015
     34 C          -1.0391    2.3359   26.9263 C.ar    1  UNL1        0.0111
     35 C          -0.5793    3.6209   27.5486 C.ar    1  UNL1        0.0577
     36 CL         -1.2092    4.9194   27.1402 Cl      1  UNL1       -0.0822
     37 C           0.5105    3.6073   28.5792 C.ar    1  UNL1        0.0111
     38 C           1.1405    2.3087   28.9875 C.ar    1  UNL1       -0.0015
@<TRIPOS>UNITY_ATOM_ATTR
29 1
charge -1
@<TRIPOS>BOND
     1    27    26    1
     2    27    25    1
     3    25     1    1
     4     1     2   ar
     5     2     3    2
     6     2     4   ar
     7     4     5   ar
     8     5     6    2
     9     6    11    1
    10    11    12   ar
    11    12    13   ar
    12    13    14   ar
    13    14    17    1
    14    17    18    1
    15    18    19   ar
    16    19    20   ar
    17    20    21   ar
    18    21    22   ar
    19    22    23    1
    20    22    24   ar
    21    14    15   ar
    22    15    16   ar
    23     5     7   ar
    24     7    31    1
    25    31    32    1
    26    32    33   ar
    27    33    34   ar
    28    34    35   ar
    29    35    36    1
    30    35    37   ar
    31    37    38   ar
    32     7     8   ar
    33     8     9    2
    34    27    28    1
    35    28    29   ar
    36    28    30   ar
    37     8     1   ar
    38    16    11   ar
    39    38    32   ar
    40    24    18   ar
    41     4    10    1
@<TRIPOS>MOLECULE
*****
 38 41 0 0 0
SMALL
GASTEIGER

@<TRIPOS>ATOM
      1 N           6.0996   -1.8735   29.6172 N.ar    1  UNL1       -0.2340
      2 C           5.2116   -1.2417   28.5865 C.ar    1  UNL1        0.3338
      3 O           5.6283   -1.2258   27.1456 O.2     1  UNL1       -0.2463
      4 N           3.9068   -0.6258   28.9968 N.ar    1  UNL1       -0.2776
      5 C           3.4901   -0.6417   30.4376 C.ar    1  UNL1        0.2175
      6 N           2.1853   -0.0259   30.8478 N.2     1  UNL1       -0.2128
      7 N           4.3781   -1.2735   31.4682 N.ar    1  UNL1       -0.2479
      8 C           5.6829   -1.8894   31.0580 C.ar    1  UNL1        0.3373
      9 O           6.5709   -2.5212   32.0887 O.2     1  UNL1       -0.2461
     10 H           3.3240   -0.2112   28.3203 H       1  UNL1        0.1733
     11 C           1.2973    0.6059   29.8172 C.ar    1  UNL1        0.0846
     12 C           1.4629    2.0562   29.4719 C.ar    1  UNL1        0.0223
     13 C           0.5748    2.6880   28.4413 C.ar    1  UNL1        0.0390
     14 C          -0.4789    1.8695   27.7559 C.ar    1  UNL1        0.1454
     15 C          -0.6445    0.4192   28.1012 C.ar    1  UNL1        0.0390
     16 C           0.2435   -0.2126   29.1318 C.ar    1  UNL1        0.0223
     17 O          -1.3670    2.5013   26.7252 O.3     1  UNL1       -0.4533
     18 C          -0.9528    2.5123   25.2836 C.ar    1  UNL1        0.1507
     19 C          -1.6453    3.4206   24.3112 C.ar    1  UNL1        0.0583
     20 C          -1.2311    3.4316   22.8696 C.ar    1  UNL1        0.1044
     21 N          -0.1244    2.5344   22.4003 N.ar    1  UNL1       -0.2163
     22 C           0.5681    1.6261   23.3727 C.ar    1  UNL1        0.2254
     23 F           1.6747    0.7289   22.9034 F       1  UNL1       -0.1831
     24 C           0.1539    1.6151   24.8143 C.ar    1  UNL1        0.0871
     25 C           7.4044   -2.4894   29.2069 C.3     1  UNL1        0.1205
     26 C           8.2512   -3.9527   27.2343 C.3     1  UNL1        0.0079
     27 C           7.4184   -3.7969   28.4721 C.3     1  UNL1        0.0594
     28 C           6.5996   -4.9487   28.9750 C.2     1  UNL1        0.0519
     29 O           6.7482   -5.4115   30.3940 O.co2   1  UNL1       -0.5491
     30 O           5.6321   -5.6377   28.0588 O.co2   1  UNL1       -0.5491
     31 C           3.9614   -1.2895   32.9091 C.3     1  UNL1        0.1401
     32 C           4.6188   -0.3647   33.8902 C.ar    1  UNL1        0.0007
     33 C           5.1346    0.9682   33.4349 C.ar    1  UNL1       -0.0015
     34 C           5.7920    1.8930   34.4161 C.ar    1  UNL1        0.0111
     35 C           5.9335    1.4848   35.8526 C.ar    1  UNL1        0.0577
     36 CL          6.5909    2.4096   36.8337 Cl      1  UNL1       -0.0822
     37 C           5.4177    0.1519   36.3078 C.ar    1  UNL1        0.0111
     38 C           4.7603   -0.7728   35.3267 C.ar    1  UNL1       -0.0015
@<TRIPOS>UNITY_ATOM_ATTR
29 1
charge -1
@<TRIPOS>BOND
     1    27    26    1
     2    27    25    1
     3    25     1    1
     4     1     2   ar
     5     2     3    2
     6     2     4   ar
     7     4     5   ar
     8     5     6    2
     9     6    11    1
    10    11    12   ar
    11    12    13   ar
    12    13    14   ar
    13    14    17    1
    14    17    18    1
    15    18    19   ar
    16    19    20   ar
    17    20    21   ar
    18    21    22   ar
    19    22    23    1
    20    22    24   ar
    21    14    15   ar
    22    15    16   ar
    23     5     7   ar
    24     7    31    1
    25    31    32    1
    26    32    33   ar
    27    33    34   ar
    28    34    35   ar
    29    35    36    1
    30    35    37   ar
    31    37    38   ar
    32     7     8   ar
    33     8     9    2
    34    27    28    1
    35    28    29   ar
    36    28    30   ar
    37     8     1   ar
    38    16    11   ar
    39    38    32   ar
    40    24    18   ar
    41     4    10    1
@<TRIPOS>MOLECULE
*****
 38 41 0 0 0
SMALL
GASTEIGER

@<TRIPOS>ATOM
      1 N           2.1757    0.1520   28.8811 N.ar    1  UNL1       -0.2340
      2 C           1.9316    0.5734   30.2998 C.ar    1  UNL1        0.3338
      3 O           0.5590    0.9984   30.7303 O.2     1  UNL1       -0.2463
      4 N           3.0601    0.5699   31.2880 N.ar    1  UNL1       -0.2776
      5 C           4.4327    0.1450   30.8575 C.ar    1  UNL1        0.2175
      6 N           5.5612    0.1415   31.8457 N.2     1  UNL1       -0.2128
      7 N           4.6768   -0.2765   29.4388 N.ar    1  UNL1       -0.2479
      8 C           3.5483   -0.2730   28.4506 C.ar    1  UNL1        0.3373
      9 O           3.7925   -0.6945   27.0318 O.2     1  UNL1       -0.2461
     10 H           2.8999    0.8465   32.2191 H       1  UNL1        0.1733
     11 C           5.3170    0.5629   33.2644 C.ar    1  UNL1        0.0846
     12 C           5.0074   -0.4670   34.3100 C.ar    1  UNL1        0.0223
     13 C           4.7633   -0.0454   35.7288 C.ar    1  UNL1        0.0390
     14 C           4.8288    1.4059   36.1018 C.ar    1  UNL1        0.1454
     15 C           5.1384    2.4358   35.0561 C.ar    1  UNL1        0.0390
     16 C           5.3825    2.0144   33.6374 C.ar    1  UNL1        0.0223
     17 O           4.5847    1.8275   37.5206 O.3     1  UNL1       -0.4533
     18 C           3.1922    1.8139   38.0779 C.ar    1  UNL1        0.1507
     19 C           2.3408    3.0465   37.9993 C.ar    1  UNL1        0.0583
     20 C           0.9483    3.0329   38.5567 C.ar    1  UNL1        0.1044
     21 N           0.4071    1.7868   39.1927 N.ar    1  UNL1       -0.2163
     22 C           1.2584    0.5543   39.2712 C.ar    1  UNL1        0.2254
     23 F           0.7172   -0.6917   39.9072 F       1  UNL1       -0.1831
     24 C           2.6509    0.5679   38.7139 C.ar    1  UNL1        0.0871
     25 C           1.0473    0.1555   27.8929 C.3     1  UNL1        0.1205
     26 C           1.4704    1.4926   25.7059 C.3     1  UNL1        0.0079
     27 C           0.7996    1.3653   27.0415 C.3     1  UNL1        0.0594
     28 C          -0.1188    2.4479   27.5258 C.2     1  UNL1        0.0519
     29 O          -1.5486    2.4765   27.0733 O.co2   1  UNL1       -0.5491
     30 O           0.3927    3.5020   28.4625 O.co2   1  UNL1       -0.5491
     31 C           6.0494   -0.7015   29.0082 C.3     1  UNL1        0.1401
     32 C           6.4509   -2.1439   29.0988 C.ar    1  UNL1        0.0007
     33 C           6.0868   -3.0944   27.9970 C.ar    1  UNL1       -0.0015
     34 C           6.4883   -4.5368   28.0876 C.ar    1  UNL1        0.0111
     35 C           7.2538   -5.0288   29.2800 C.ar    1  UNL1        0.0577
     36 CL          7.6553   -6.4712   29.3706 Cl      1  UNL1       -0.0822
     37 C           7.6179   -4.0783   30.3819 C.ar    1  UNL1        0.0111
     38 C           7.2165   -2.6359   30.2913 C.ar    1  UNL1       -0.0015
@<TRIPOS>UNITY_ATOM_ATTR
29 1
charge -1
@<TRIPOS>BOND
     1    27    26    1
     2    27    25    1
     3    25     1    1
     4     1     2   ar
     5     2     3    2
     6     2     4   ar
     7     4     5   ar
     8     5     6    2
     9     6    11    1
    10    11    12   ar
    11    12    13   ar
    12    13    14   ar
    13    14    17    1
    14    17    18    1
    15    18    19   ar
    16    19    20   ar
    17    20    21   ar
    18    21    22   ar
    19    22    23    1
    20    22    24   ar
    21    14    15   ar
    22    15    16   ar
    23     5     7   ar
    24     7    31    1
    25    31    32    1
    26    32    33   ar
    27    33    34   ar
    28    34    35   ar
    29    35    36    1
    30    35    37   ar
    31    37    38   ar
    32     7     8   ar
    33     8     9    2
    34    27    28    1
    35    28    29   ar
    36    28    30   ar
    37     8     1   ar
    38    16    11   ar
    39    38    32   ar
    40    24    18   ar
    41     4    10    1
@<TRIPOS>MOLECULE
*****
 38 41 0 0 0
SMALL
GASTEIGER

@<TRIPOS>ATOM
      1 N           3.6171    1.1490   30.3333 N.ar    1  UNL1       -0.2340
      2 C           4.0204   -0.1985   29.8125 C.ar    1  UNL1        0.3338
      3 O           3.3128   -0.7875   28.6282 O.2     1  UNL1       -0.2463
      4 N           5.1314   -0.9572   30.4759 N.ar    1  UNL1       -0.2776
      5 C           5.8390   -0.3683   31.6602 C.ar    1  UNL1        0.2175
      6 N           6.9499   -1.1270   32.3236 N.2     1  UNL1       -0.2128
      7 N           5.4356    0.9792   32.1810 N.ar    1  UNL1       -0.2479
      8 C           4.3246    1.7379   31.5175 C.ar    1  UNL1        0.3373
      9 O           3.9213    3.0856   32.0384 O.2     1  UNL1       -0.2461
     10 H           5.3961   -1.8417   30.1341 H       1  UNL1        0.1733
     11 C           7.3533   -2.4746   31.8028 C.ar    1  UNL1        0.0846
     12 C           6.5123   -3.6788   32.1072 C.ar    1  UNL1        0.0223
     13 C           6.9157   -5.0264   31.5863 C.ar    1  UNL1        0.0390
     14 C           8.1601   -5.1698   30.7612 C.ar    1  UNL1        0.1454
     15 C           9.0011   -3.9656   30.4568 C.ar    1  UNL1        0.0390
     16 C           8.5978   -2.6181   30.9776 C.ar    1  UNL1        0.0223
     17 O           8.5635   -6.5175   30.2403 O.3     1  UNL1       -0.4533
     18 C           8.2826   -6.8849   28.8134 C.ar    1  UNL1        0.1507
     19 C           8.7944   -8.1809   28.2579 C.ar    1  UNL1        0.0583
     20 C           8.5135   -8.5483   26.8310 C.ar    1  UNL1        0.1044
     21 N           7.7206   -7.6197   25.9596 N.ar    1  UNL1       -0.2163
     22 C           7.2088   -6.3238   26.5152 C.ar    1  UNL1        0.2254
     23 F           6.4159   -5.3954   25.6438 F       1  UNL1       -0.1831
     24 C           7.4897   -5.9564   27.9421 C.ar    1  UNL1        0.0871
     25 C           2.5061    1.9077   29.6699 C.3     1  UNL1        0.1205
     26 C           0.6149    2.1002   31.4409 C.3     1  UNL1        0.0079
     27 C           1.0840    1.6692   30.0828 C.3     1  UNL1        0.0594
     28 C           0.1308    0.9996   29.1377 C.2     1  UNL1        0.0519
     29 O          -0.2746   -0.4263   29.3665 O.co2   1  UNL1       -0.5491
     30 O          -0.4170    1.7560   27.9639 O.co2   1  UNL1       -0.5491
     31 C           6.1432    1.5682   33.3653 C.3     1  UNL1        0.1401
     32 C           5.5386    1.4540   34.7333 C.ar    1  UNL1        0.0007
     33 C           5.1014    0.1157   35.2507 C.ar    1  UNL1       -0.0015
     34 C           4.4967    0.0016   36.6188 C.ar    1  UNL1        0.0111
     35 C           4.3294    1.2258   37.4693 C.ar    1  UNL1        0.0577
     36 CL          3.7248    1.1116   38.8372 Cl      1  UNL1       -0.0822
     37 C           4.7666    2.5641   36.9518 C.ar    1  UNL1        0.0111
     38 C           5.3712    2.6782   35.5839 C.ar    1  UNL1       -0.0015
@<TRIPOS>UNITY_ATOM_ATTR
29 1
charge -1
@<TRIPOS>BOND
     1    27    26    1
     2    27    25    1
     3    25     1    1
     4     1     2   ar
     5     2     3    2
     6     2     4   ar
     7     4     5   ar
     8     5     6    2
     9     6    11    1
    10    11    12   ar
    11    12    13   ar
    12    13    14   ar
    13    14    17    1
    14    17    18    1
    15    18    19   ar
    16    19    20   ar
    17    20    21   ar
    18    21    22   ar
    19    22    23    1
    20    22    24   ar
    21    14    15   ar
    22    15    16   ar
    23     5     7   ar
    24     7    31    1
    25    31    32    1
    26    32    33   ar
    27    33    34   ar
    28    34    35   ar
    29    35    36    1
    30    35    37   ar
    31    37    38   ar
    32     7     8   ar
    33     8     9    2
    34    27    28    1
    35    28    29   ar
    36    28    30   ar
    37     8     1   ar
    38    16    11   ar
    39    38    32   ar
    40    24    18   ar
    41     4    10    1
