@<TRIPOS>MOLECULE
*****
 33 38 0 0 0
SMALL
GASTEIGER

@<TRIPOS>ATOM
      1 C          -8.0017  -19.0364   20.0497 C.3     1  UNL1        0.0749
      2 C          -8.3117  -18.2179   21.2678 C.3     1  UNL1        0.0444
      3 C          -9.7371  -17.9904   21.6758 C.ar    1  UNL1       -0.0101
      4 C         -10.8525  -18.5814   20.8655 C.ar    1  UNL1       -0.0091
      5 C         -12.2780  -18.3539   21.2735 C.ar    1  UNL1       -0.0032
      6 C         -12.5879  -17.5353   22.4917 C.ar    1  UNL1        0.0010
      7 C         -11.4725  -16.9443   23.3019 C.ar    1  UNL1        0.0142
      8 C         -10.0471  -17.1718   22.8940 C.ar    1  UNL1        0.0436
      9 C         -10.5426  -19.3999   19.6474 C.3     1  UNL1        0.0954
     10 N          -9.1172  -19.6274   19.2395 N.3     1  UNL1       -0.2934
     11 H          -9.0198  -19.2607   18.2927 H       1  UNL1        0.1236
     12 N          -8.9316  -16.5808   23.7042 N.pl3   1  UNL1       -0.3076
     13 C          -8.8650  -16.5215   25.2015 C.3     1  UNL1        0.0922
     14 C          -7.5791  -15.8494   25.5821 C.3     1  UNL1        0.0385
     15 C          -6.7433  -15.3974   26.7426 C.3     1  UNL1        0.0703
     16 N          -5.4986  -14.7619   26.1977 N.3     1  UNL1       -0.2974
     17 C          -5.5652  -14.8211   24.7004 C.3     1  UNL1        0.0703
     18 C          -6.8510  -15.4932   24.3199 C.3     1  UNL1        0.0385
     19 C          -7.6869  -15.9453   23.1593 C.3     1  UNL1        0.0922
     20 H          -4.6777  -15.2693   26.5281 H       1  UNL1        0.1232
     21 C          -6.5763  -19.2639   19.6417 C.3     1  UNL1        0.0886
     22 C          -5.6401  -21.4073   20.7729 C.3     1  UNL1        0.0899
     23 N          -5.6191  -19.9182   20.5934 N.3     1  UNL1       -0.2667
     24 C          -4.6409  -19.0834   21.3655 C.3     1  UNL1        0.0978
     25 C          -4.8991  -18.7684   22.8091 C.3     1  UNL1        0.0224
     26 C          -3.9209  -17.9336   23.5813 C.3     1  UNL1        0.0065
     27 C          -2.6845  -17.4137   22.9098 C.3     1  UNL1        0.0277
     28 C          -2.4262  -17.7287   21.4661 C.ar    1  UNL1       -0.0073
     29 C          -1.1898  -17.2088   20.7946 C.ar    1  UNL1       -0.0015
     30 C          -0.9316  -17.5237   19.3510 C.ar    1  UNL1        0.0203
     31 C          -1.9097  -18.3585   18.5789 C.ar    1  UNL1        0.0985
     32 N          -3.1462  -18.8784   19.2503 N.ar    1  UNL1       -0.2471
     33 C          -3.4044  -18.5635   20.6940 C.ar    1  UNL1        0.0695
@<TRIPOS>BOND
     1    22    23    1
     2    23    21    1
     3     1    21    1
     4     1     2    1
     5     2     3    1
     6     3     4   ar
     7     4     5   ar
     8     5     6   ar
     9     6     7   ar
    10     7     8   ar
    11     8    12    1
    12    12    13    1
    13    14    13    1
    14    14    15    1
    15    15    16    1
    16    16    17    1
    17    18    17    1
    18    18    19    1
    19     4     9    1
    20     9    10    1
    21    24    23    1
    22    24    25    1
    23    25    26    1
    24    26    27    1
    25    27    28    1
    26    28    29   ar
    27    29    30   ar
    28    30    31   ar
    29    31    32   ar
    30    32    33   ar
    31    10     1    1
    32    33    24    1
    33     8     3   ar
    34    19    12    1
    35    33    28   ar
    36    18    14    1
    37    16    20    1
    38    10    11    1
@<TRIPOS>MOLECULE
*****
 33 38 0 0 0
SMALL
GASTEIGER

@<TRIPOS>ATOM
      1 C          -5.2466  -18.3688   21.8378 C.3     1  UNL1        0.0749
      2 C          -6.4555  -17.6009   22.2838 C.3     1  UNL1        0.0444
      3 C          -6.3917  -16.7533   23.5197 C.ar    1  UNL1       -0.0101
      4 C          -5.1190  -16.6735   24.3095 C.ar    1  UNL1       -0.0091
      5 C          -5.0552  -15.8258   25.5454 C.ar    1  UNL1       -0.0032
      6 C          -6.2641  -15.0580   25.9914 C.ar    1  UNL1        0.0010
      7 C          -7.5368  -15.1378   25.2016 C.ar    1  UNL1        0.0142
      8 C          -7.6006  -15.9854   23.9657 C.ar    1  UNL1        0.0436
      9 C          -3.9101  -17.4413   23.8635 C.3     1  UNL1        0.0954
     10 N          -3.9739  -18.2890   22.6276 N.3     1  UNL1       -0.2934
     11 H          -3.7433  -19.2412   22.9114 H       1  UNL1        0.1236
     12 N          -8.8733  -16.0652   23.1759 N.pl3   1  UNL1       -0.3076
     13 C         -10.2277  -16.4125   23.7190 C.3     1  UNL1        0.0922
     14 C         -11.2066  -16.3736   22.5830 C.3     1  UNL1        0.0385
     15 C         -12.6485  -16.5642   22.2166 C.3     1  UNL1        0.0703
     16 N         -12.7903  -16.3108   20.7450 N.3     1  UNL1       -0.2974
     17 C         -11.4358  -15.9636   20.2019 C.3     1  UNL1        0.0703
     18 C         -10.4571  -16.0024   21.3378 C.3     1  UNL1        0.0385
     19 C          -9.0151  -15.8118   21.7043 C.3     1  UNL1        0.0922
     20 H         -13.4352  -15.5364   20.5877 H       1  UNL1        0.1232
     21 C          -5.3104  -19.2165   20.6019 C.3     1  UNL1        0.0886
     22 C          -5.8476  -21.7584   20.6017 C.3     1  UNL1        0.0899
     23 N          -6.3072  -20.3335   20.5092 N.3     1  UNL1       -0.2667
     24 C          -7.7635  -20.0257   20.3240 C.3     1  UNL1        0.0978
     25 C          -8.2895  -19.6787   18.9628 C.3     1  UNL1        0.0224
     26 C          -9.7459  -19.3709   18.7776 C.3     1  UNL1        0.0065
     27 C         -10.6762  -19.4101   19.9535 C.3     1  UNL1        0.0277
     28 C         -10.1502  -19.7571   21.3148 C.ar    1  UNL1       -0.0073
     29 C         -11.0805  -19.7964   22.4908 C.ar    1  UNL1       -0.0015
     30 C         -10.5545  -20.1434   23.8519 C.ar    1  UNL1        0.0203
     31 C          -9.0981  -20.4512   24.0371 C.ar    1  UNL1        0.0985
     32 N          -8.1678  -20.4120   22.8612 N.ar    1  UNL1       -0.2471
     33 C          -8.6939  -20.0649   21.5000 C.ar    1  UNL1        0.0695
@<TRIPOS>BOND
     1    22    23    1
     2    23    21    1
     3     1    21    1
     4     1     2    1
     5     2     3    1
     6     3     4   ar
     7     4     5   ar
     8     5     6   ar
     9     6     7   ar
    10     7     8   ar
    11     8    12    1
    12    12    13    1
    13    14    13    1
    14    14    15    1
    15    15    16    1
    16    16    17    1
    17    18    17    1
    18    18    19    1
    19     4     9    1
    20     9    10    1
    21    24    23    1
    22    24    25    1
    23    25    26    1
    24    26    27    1
    25    27    28    1
    26    28    29   ar
    27    29    30   ar
    28    30    31   ar
    29    31    32   ar
    30    32    33   ar
    31    10     1    1
    32    33    24    1
    33     8     3   ar
    34    19    12    1
    35    33    28   ar
    36    18    14    1
    37    16    20    1
    38    10    11    1
@<TRIPOS>MOLECULE
*****
 33 38 0 0 0
SMALL
GASTEIGER

@<TRIPOS>ATOM
      1 C          -5.8890  -19.9665   21.1814 C.3     1  UNL1        0.0749
      2 C          -5.5573  -18.7950   22.0575 C.3     1  UNL1        0.0444
      3 C          -4.2333  -18.1043   21.9167 C.ar    1  UNL1       -0.0101
      4 C          -3.2410  -18.5851   20.8997 C.ar    1  UNL1       -0.0091
      5 C          -1.9169  -17.8944   20.7590 C.ar    1  UNL1       -0.0032
      6 C          -1.5852  -16.7229   21.6351 C.ar    1  UNL1        0.0010
      7 C          -2.5776  -16.2421   22.6520 C.ar    1  UNL1        0.0142
      8 C          -3.9016  -16.9328   22.7928 C.ar    1  UNL1        0.0436
      9 C          -3.5727  -19.7566   20.0236 C.3     1  UNL1        0.0954
     10 N          -4.8967  -20.4473   20.1645 N.3     1  UNL1       -0.2934
     11 H          -4.6978  -21.4229   20.3855 H       1  UNL1        0.1236
     12 N          -4.8939  -16.4520   23.8097 N.pl3   1  UNL1       -0.3076
     13 C          -4.6198  -16.2136   25.2650 C.3     1  UNL1        0.0922
     14 C          -5.8911  -15.7395   25.9046 C.3     1  UNL1        0.0385
     15 C          -6.5073  -15.2992   27.1993 C.3     1  UNL1        0.0703
     16 N          -7.9480  -14.9723   26.9394 N.3     1  UNL1       -0.2974
     17 C          -8.2221  -15.2107   25.4841 C.3     1  UNL1        0.0703
     18 C          -6.9509  -15.6848   24.8446 C.3     1  UNL1        0.0385
     19 C          -6.3346  -16.1252   23.5499 C.3     1  UNL1        0.0922
     20 H          -8.1283  -13.9953   27.1702 H       1  UNL1        0.1232
     21 C          -7.2131  -20.6572   21.3222 C.3     1  UNL1        0.0886
     22 C          -8.7883  -19.5787   19.5599 C.3     1  UNL1        0.0899
     23 N          -8.4795  -19.9271   20.9859 N.3     1  UNL1       -0.2667
     24 C          -9.4370  -19.5452   22.0755 C.3     1  UNL1        0.0978
     25 C          -9.4151  -20.2781   23.3841 C.3     1  UNL1        0.0224
     26 C         -10.3726  -19.8962   24.4737 C.3     1  UNL1        0.0065
     27 C         -11.3521  -18.7815   24.2548 C.3     1  UNL1        0.0277
     28 C         -11.3741  -18.0486   22.9462 C.ar    1  UNL1       -0.0073
     29 C         -12.3536  -16.9339   22.7272 C.ar    1  UNL1       -0.0015
     30 C         -12.3755  -16.2010   21.4187 C.ar    1  UNL1        0.0203
     31 C         -11.4180  -16.5829   20.3290 C.ar    1  UNL1        0.0985
     32 N         -10.4385  -17.6976   20.5480 N.ar    1  UNL1       -0.2471
     33 C         -10.4166  -18.4304   21.8565 C.ar    1  UNL1        0.0695
@<TRIPOS>BOND
     1    22    23    1
     2    23    21    1
     3     1    21    1
     4     1     2    1
     5     2     3    1
     6     3     4   ar
     7     4     5   ar
     8     5     6   ar
     9     6     7   ar
    10     7     8   ar
    11     8    12    1
    12    12    13    1
    13    14    13    1
    14    14    15    1
    15    15    16    1
    16    16    17    1
    17    18    17    1
    18    18    19    1
    19     4     9    1
    20     9    10    1
    21    24    23    1
    22    24    25    1
    23    25    26    1
    24    26    27    1
    25    27    28    1
    26    28    29   ar
    27    29    30   ar
    28    30    31   ar
    29    31    32   ar
    30    32    33   ar
    31    10     1    1
    32    33    24    1
    33     8     3   ar
    34    19    12    1
    35    33    28   ar
    36    18    14    1
    37    16    20    1
    38    10    11    1
@<TRIPOS>MOLECULE
*****
 33 38 0 0 0
SMALL
GASTEIGER

@<TRIPOS>ATOM
      1 C          -8.4255  -16.3871   22.3266 C.3     1  UNL1        0.0749
      2 C          -6.9785  -16.5650   22.6792 C.3     1  UNL1        0.0444
      3 C          -6.4546  -16.0415   23.9835 C.ar    1  UNL1       -0.0101
      4 C          -7.3777  -15.3401   24.9353 C.ar    1  UNL1       -0.0091
      5 C          -6.8537  -14.8165   26.2397 C.ar    1  UNL1       -0.0032
      6 C          -5.4066  -14.9944   26.5923 C.ar    1  UNL1        0.0010
      7 C          -4.4835  -15.6959   25.6405 C.ar    1  UNL1        0.0142
      8 C          -5.0074  -16.2194   24.3362 C.ar    1  UNL1        0.0436
      9 C          -8.8247  -15.1622   24.5827 C.3     1  UNL1        0.0954
     10 N          -9.3487  -15.6857   23.2784 N.3     1  UNL1       -0.2934
     11 H          -9.7387  -14.8881   22.7763 H       1  UNL1        0.1236
     12 N          -4.0843  -16.9208   23.3844 N.pl3   1  UNL1       -0.3076
     13 C          -4.0205  -18.4006   23.1473 C.3     1  UNL1        0.0922
     14 C          -2.9597  -18.6599   22.1190 C.3     1  UNL1        0.0385
     15 C          -2.2647  -19.7347   21.3369 C.3     1  UNL1        0.0703
     16 N          -1.2433  -19.0796   20.4552 N.3     1  UNL1       -0.2974
     17 C          -1.3071  -17.5998   20.6923 C.3     1  UNL1        0.0703
     18 C          -2.3679  -17.3405   21.7206 C.3     1  UNL1        0.0385
     19 C          -3.0629  -16.2656   22.5026 C.3     1  UNL1        0.0922
     20 H          -1.4492  -19.2826   19.4770 H       1  UNL1        0.1232
     21 C          -8.9496  -16.9106   21.0222 C.3     1  UNL1        0.0886
     22 C          -9.8895  -18.8964   19.6353 C.3     1  UNL1        0.0899
     23 N          -9.5999  -18.2610   20.9630 N.3     1  UNL1       -0.2667
     24 C          -9.9606  -18.9761   22.2313 C.3     1  UNL1        0.0978
     25 C          -9.0492  -20.0325   22.7819 C.3     1  UNL1        0.0224
     26 C          -9.4099  -20.7475   24.0502 C.3     1  UNL1        0.0065
     27 C         -10.6820  -20.4062   24.7679 C.3     1  UNL1        0.0277
     28 C         -11.5935  -19.3497   24.2172 C.ar    1  UNL1       -0.0073
     29 C         -12.8657  -19.0083   24.9349 C.ar    1  UNL1       -0.0015
     30 C         -13.7771  -17.9519   24.3842 C.ar    1  UNL1        0.0203
     31 C         -13.4164  -17.2369   23.1159 C.ar    1  UNL1        0.0985
     32 N         -12.1442  -17.5782   22.3983 N.ar    1  UNL1       -0.2471
     33 C         -11.2328  -18.6346   22.9489 C.ar    1  UNL1        0.0695
@<TRIPOS>BOND
     1    22    23    1
     2    23    21    1
     3     1    21    1
     4     1     2    1
     5     2     3    1
     6     3     4   ar
     7     4     5   ar
     8     5     6   ar
     9     6     7   ar
    10     7     8   ar
    11     8    12    1
    12    12    13    1
    13    14    13    1
    14    14    15    1
    15    15    16    1
    16    16    17    1
    17    18    17    1
    18    18    19    1
    19     4     9    1
    20     9    10    1
    21    24    23    1
    22    24    25    1
    23    25    26    1
    24    26    27    1
    25    27    28    1
    26    28    29   ar
    27    29    30   ar
    28    30    31   ar
    29    31    32   ar
    30    32    33   ar
    31    10     1    1
    32    33    24    1
    33     8     3   ar
    34    19    12    1
    35    33    28   ar
    36    18    14    1
    37    16    20    1
    38    10    11    1
@<TRIPOS>MOLECULE
*****
 33 38 0 0 0
SMALL
GASTEIGER

@<TRIPOS>ATOM
      1 C          -8.6171  -15.8545   22.5846 C.3     1  UNL1        0.0749
      2 C          -7.1885  -16.2113   22.8701 C.3     1  UNL1        0.0444
      3 C          -6.6469  -16.0811   24.2629 C.ar    1  UNL1       -0.0101
      4 C          -7.5340  -15.5942   25.3701 C.ar    1  UNL1       -0.0091
      5 C          -6.9924  -15.4641   26.7629 C.ar    1  UNL1       -0.0032
      6 C          -5.5637  -15.8209   27.0484 C.ar    1  UNL1        0.0010
      7 C          -4.6766  -16.3078   25.9412 C.ar    1  UNL1        0.0142
      8 C          -5.2182  -16.4379   24.5484 C.ar    1  UNL1        0.0436
      9 C          -8.9627  -15.2375   25.0846 C.3     1  UNL1        0.0954
     10 N          -9.5043  -15.3676   23.6918 N.3     1  UNL1       -0.2934
     11 H          -9.8369  -14.4432   23.4177 H       1  UNL1        0.1236
     12 N          -4.3311  -16.9248   23.4412 N.pl3   1  UNL1       -0.3076
     13 C          -4.3010  -18.3167   22.8829 C.3     1  UNL1        0.0922
     14 C          -3.2696  -18.3575   21.7945 C.3     1  UNL1        0.0385
     15 C          -2.6136  -19.2429   20.7769 C.3     1  UNL1        0.0703
     16 N          -1.6008  -18.4234   20.0335 N.3     1  UNL1       -0.2974
     17 C          -1.6309  -17.0314   20.5918 C.3     1  UNL1        0.0703
     18 C          -2.6622  -16.9907   21.6801 C.3     1  UNL1        0.0385
     19 C          -3.3183  -16.1053   22.6978 C.3     1  UNL1        0.0922
     20 H          -1.8333  -18.4032   19.0406 H       1  UNL1        0.1232
     21 C          -9.1588  -15.9846   21.1918 C.3     1  UNL1        0.0886
     22 C         -11.1593  -16.5003   19.6164 C.3     1  UNL1        0.0899
     23 N         -10.5131  -16.5890   20.9672 N.3     1  UNL1       -0.2667
     24 C         -11.2212  -17.2822   22.0933 C.3     1  UNL1        0.0978
     25 C         -12.5712  -16.8033   22.5382 C.3     1  UNL1        0.0224
     26 C         -13.2793  -17.4965   23.6643 C.3     1  UNL1        0.0065
     27 C         -12.6373  -18.6686   24.3455 C.3     1  UNL1        0.0277
     28 C         -11.2872  -19.1476   23.9005 C.ar    1  UNL1       -0.0073
     29 C         -10.6453  -20.3197   24.5817 C.ar    1  UNL1       -0.0015
     30 C          -9.2953  -20.7987   24.1367 C.ar    1  UNL1        0.0203
     31 C          -8.5872  -20.1055   23.0106 C.ar    1  UNL1        0.0985
     32 N          -9.2291  -18.9333   22.3295 N.ar    1  UNL1       -0.2471
     33 C         -10.5792  -18.4544   22.7744 C.ar    1  UNL1        0.0695
@<TRIPOS>BOND
     1    22    23    1
     2    23    21    1
     3     1    21    1
     4     1     2    1
     5     2     3    1
     6     3     4   ar
     7     4     5   ar
     8     5     6   ar
     9     6     7   ar
    10     7     8   ar
    11     8    12    1
    12    12    13    1
    13    14    13    1
    14    14    15    1
    15    15    16    1
    16    16    17    1
    17    18    17    1
    18    18    19    1
    19     4     9    1
    20     9    10    1
    21    24    23    1
    22    24    25    1
    23    25    26    1
    24    26    27    1
    25    27    28    1
    26    28    29   ar
    27    29    30   ar
    28    30    31   ar
    29    31    32   ar
    30    32    33   ar
    31    10     1    1
    32    33    24    1
    33     8     3   ar
    34    19    12    1
    35    33    28   ar
    36    18    14    1
    37    16    20    1
    38    10    11    1
@<TRIPOS>MOLECULE
*****
 33 38 0 0 0
SMALL
GASTEIGER

@<TRIPOS>ATOM
      1 C          -8.5668  -19.2434   20.1534 C.3     1  UNL1        0.0749
      2 C          -8.7074  -18.2743   21.2896 C.3     1  UNL1        0.0444
      3 C         -10.0657  -17.7791   21.6892 C.ar    1  UNL1       -0.0101
      4 C         -11.2834  -18.2531   20.9527 C.ar    1  UNL1       -0.0091
      5 C         -12.6418  -17.7578   21.3524 C.ar    1  UNL1       -0.0032
      6 C         -12.7823  -16.7887   22.4885 C.ar    1  UNL1        0.0010
      7 C         -11.5646  -16.3147   23.2251 C.ar    1  UNL1        0.0142
      8 C         -10.2063  -16.8099   22.8255 C.ar    1  UNL1        0.0436
      9 C         -11.1428  -19.2222   19.8165 C.3     1  UNL1        0.0954
     10 N          -9.7845  -19.7174   19.4169 N.3     1  UNL1       -0.2934
     11 H          -9.6544  -19.4623   18.4379 H       1  UNL1        0.1236
     12 N          -8.9886  -16.3360   23.5620 N.pl3   1  UNL1       -0.3076
     13 C          -8.7848  -16.3777   25.0475 C.3     1  UNL1        0.0922
     14 C          -7.4311  -15.8046   25.3460 C.3     1  UNL1        0.0385
     15 C          -6.4686  -15.4762   26.4485 C.3     1  UNL1        0.0703
     16 N          -5.2408  -14.8773   25.8289 N.3     1  UNL1       -0.2974
     17 C          -5.4446  -14.8356   24.3434 C.3     1  UNL1        0.0703
     18 C          -6.7982  -15.4086   24.0450 C.3     1  UNL1        0.0385
     19 C          -7.7608  -15.7371   22.9424 C.3     1  UNL1        0.0922
     20 H          -4.4266  -15.4502   26.0506 H       1  UNL1        0.1232
     21 C          -7.2084  -19.7387   19.7537 C.3     1  UNL1        0.0886
     22 C          -6.5277  -20.7046   22.0676 C.3     1  UNL1        0.0899
     23 N          -6.1636  -19.9892   20.8004 N.3     1  UNL1       -0.2667
     24 C          -4.7546  -19.5243   20.5799 C.3     1  UNL1        0.0978
     25 C          -4.0738  -19.7891   19.2698 C.3     1  UNL1        0.0224
     26 C          -2.6648  -19.3242   19.0494 C.3     1  UNL1        0.0065
     27 C          -1.9366  -18.5946   20.1390 C.3     1  UNL1        0.0277
     28 C          -2.6173  -18.3298   21.4492 C.ar    1  UNL1       -0.0073
     29 C          -1.8891  -17.6002   22.5388 C.ar    1  UNL1       -0.0015
     30 C          -2.5699  -17.3355   23.8489 C.ar    1  UNL1        0.0203
     31 C          -3.9789  -17.8004   24.0694 C.ar    1  UNL1        0.0985
     32 N          -4.7071  -18.5300   22.9797 N.ar    1  UNL1       -0.2471
     33 C          -4.0264  -18.7947   21.6696 C.ar    1  UNL1        0.0695
@<TRIPOS>BOND
     1    22    23    1
     2    23    21    1
     3     1    21    1
     4     1     2    1
     5     2     3    1
     6     3     4   ar
     7     4     5   ar
     8     5     6   ar
     9     6     7   ar
    10     7     8   ar
    11     8    12    1
    12    12    13    1
    13    14    13    1
    14    14    15    1
    15    15    16    1
    16    16    17    1
    17    18    17    1
    18    18    19    1
    19     4     9    1
    20     9    10    1
    21    24    23    1
    22    24    25    1
    23    25    26    1
    24    26    27    1
    25    27    28    1
    26    28    29   ar
    27    29    30   ar
    28    30    31   ar
    29    31    32   ar
    30    32    33   ar
    31    10     1    1
    32    33    24    1
    33     8     3   ar
    34    19    12    1
    35    33    28   ar
    36    18    14    1
    37    16    20    1
    38    10    11    1
@<TRIPOS>MOLECULE
*****
 33 38 0 0 0
SMALL
GASTEIGER

@<TRIPOS>ATOM
      1 C          -6.6065  -20.0218   21.0472 C.3     1  UNL1        0.0749
      2 C          -6.0617  -18.9900   21.9897 C.3     1  UNL1        0.0444
      3 C          -4.5998  -18.6546   21.9711 C.ar    1  UNL1       -0.0101
      4 C          -3.6827  -19.3512   21.0100 C.ar    1  UNL1       -0.0091
      5 C          -2.2207  -19.0158   20.9914 C.ar    1  UNL1       -0.0032
      6 C          -1.6760  -17.9839   21.9339 C.ar    1  UNL1        0.0010
      7 C          -2.5931  -17.2874   22.8951 C.ar    1  UNL1        0.0142
      8 C          -4.0549  -17.6227   22.9137 C.ar    1  UNL1        0.0436
      9 C          -4.2275  -20.3830   20.0675 C.3     1  UNL1        0.0954
     10 N          -5.6893  -20.7184   20.0860 N.3     1  UNL1       -0.2934
     11 H          -5.7599  -21.7168   20.2827 H       1  UNL1        0.1236
     12 N          -4.9721  -16.9262   23.8748 N.pl3   1  UNL1       -0.3076
     13 C          -6.3747  -16.4785   23.5880 C.3     1  UNL1        0.0922
     14 C          -6.9171  -15.8306   24.8274 C.3     1  UNL1        0.0385
     15 C          -8.1191  -15.1536   25.4161 C.3     1  UNL1        0.0703
     16 N          -7.7946  -14.7824   26.8328 N.3     1  UNL1       -0.2974
     17 C          -6.3920  -15.2301   27.1195 C.3     1  UNL1        0.0703
     18 C          -5.8497  -15.8779   25.8802 C.3     1  UNL1        0.0385
     19 C          -4.6476  -16.5550   25.2914 C.3     1  UNL1        0.0922
     20 H          -8.4429  -15.2461   27.4692 H       1  UNL1        0.1232
     21 C          -8.0684  -20.3572   21.0657 C.3     1  UNL1        0.0886
     22 C          -8.8157  -19.8846   18.6227 C.3     1  UNL1        0.0899
     23 N          -9.0027  -19.6926   20.0986 N.3     1  UNL1       -0.2667
     24 C         -10.1240  -18.8360   20.6074 C.3     1  UNL1        0.0978
     25 C         -10.7979  -17.8597   19.6894 C.3     1  UNL1        0.0224
     26 C         -11.9193  -17.0031   20.1981 C.3     1  UNL1        0.0065
     27 C         -12.3667  -17.1227   21.6248 C.3     1  UNL1        0.0277
     28 C         -11.6928  -18.0990   22.5429 C.ar    1  UNL1       -0.0073
     29 C         -12.1402  -18.2187   23.9695 C.ar    1  UNL1       -0.0015
     30 C         -11.4662  -19.1949   24.8875 C.ar    1  UNL1        0.0203
     31 C         -10.3449  -20.0516   24.3788 C.ar    1  UNL1        0.0985
     32 N          -9.8975  -19.9319   22.9521 N.ar    1  UNL1       -0.2471
     33 C         -10.5714  -18.9556   22.0341 C.ar    1  UNL1        0.0695
@<TRIPOS>BOND
     1    22    23    1
     2    23    21    1
     3     1    21    1
     4     1     2    1
     5     2     3    1
     6     3     4   ar
     7     4     5   ar
     8     5     6   ar
     9     6     7   ar
    10     7     8   ar
    11     8    12    1
    12    12    13    1
    13    14    13    1
    14    14    15    1
    15    15    16    1
    16    16    17    1
    17    18    17    1
    18    18    19    1
    19     4     9    1
    20     9    10    1
    21    24    23    1
    22    24    25    1
    23    25    26    1
    24    26    27    1
    25    27    28    1
    26    28    29   ar
    27    29    30   ar
    28    30    31   ar
    29    31    32   ar
    30    32    33   ar
    31    10     1    1
    32    33    24    1
    33     8     3   ar
    34    19    12    1
    35    33    28   ar
    36    18    14    1
    37    16    20    1
    38    10    11    1
@<TRIPOS>MOLECULE
*****
 33 38 0 0 0
SMALL
GASTEIGER

@<TRIPOS>ATOM
      1 C          -8.9190  -16.1369   22.6889 C.3     1  UNL1        0.0749
      2 C          -7.4912  -16.2294   23.1391 C.3     1  UNL1        0.0444
      3 C          -7.1290  -15.8991   24.5567 C.ar    1  UNL1       -0.0101
      4 C          -8.1945  -15.4763   25.5241 C.ar    1  UNL1       -0.0091
      5 C          -7.8322  -15.1461   26.9418 C.ar    1  UNL1       -0.0032
      6 C          -6.4044  -15.2386   27.3920 C.ar    1  UNL1        0.0010
      7 C          -5.3388  -15.6614   26.4246 C.ar    1  UNL1        0.0142
      8 C          -5.7011  -15.9916   25.0070 C.ar    1  UNL1        0.0436
      9 C          -9.6223  -15.3838   25.0739 C.3     1  UNL1        0.0954
     10 N          -9.9846  -15.7141   23.6563 N.3     1  UNL1       -0.2934
     11 H         -10.4256  -14.8824   23.2636 H       1  UNL1        0.1236
     12 N          -4.6355  -16.4144   24.0396 N.pl3   1  UNL1       -0.3076
     13 C          -3.9573  -15.5321   23.0339 C.3     1  UNL1        0.0922
     14 C          -2.9637  -16.3661   22.2808 C.3     1  UNL1        0.0385
     15 C          -1.9305  -16.3362   21.1938 C.3     1  UNL1        0.0703
     16 N          -1.3561  -17.7156   21.0623 N.3     1  UNL1       -0.2974
     17 C          -2.0343  -18.5980   22.0680 C.3     1  UNL1        0.0703
     18 C          -3.0278  -17.7639   22.8210 C.3     1  UNL1        0.0385
     19 C          -4.0611  -17.7938   23.9080 C.3     1  UNL1        0.0922
     20 H          -0.3527  -17.6915   21.2438 H       1  UNL1        0.1232
     21 C          -9.2814  -16.4672   21.2712 C.3     1  UNL1        0.0886
     22 C         -10.3651  -18.2446   19.7167 C.3     1  UNL1        0.0899
     23 N          -9.4508  -17.8980   20.8543 N.3     1  UNL1       -0.2667
     24 C          -8.7061  -18.9825   21.5750 C.3     1  UNL1        0.0978
     25 C          -9.3503  -19.6979   22.7252 C.3     1  UNL1        0.0224
     26 C          -8.6056  -20.7823   23.4459 C.3     1  UNL1        0.0065
     27 C          -7.2166  -21.1513   23.0164 C.3     1  UNL1        0.0277
     28 C          -6.5723  -20.4359   21.8661 C.ar    1  UNL1       -0.0073
     29 C          -5.1833  -20.8049   21.4366 C.ar    1  UNL1       -0.0015
     30 C          -4.5391  -20.0894   20.2864 C.ar    1  UNL1        0.0203
     31 C          -5.2838  -19.0050   19.5657 C.ar    1  UNL1        0.0985
     32 N          -6.6728  -18.6360   19.9952 N.ar    1  UNL1       -0.2471
     33 C          -7.3170  -19.3514   21.1454 C.ar    1  UNL1        0.0695
@<TRIPOS>BOND
     1    22    23    1
     2    23    21    1
     3     1    21    1
     4     1     2    1
     5     2     3    1
     6     3     4   ar
     7     4     5   ar
     8     5     6   ar
     9     6     7   ar
    10     7     8   ar
    11     8    12    1
    12    12    13    1
    13    14    13    1
    14    14    15    1
    15    15    16    1
    16    16    17    1
    17    18    17    1
    18    18    19    1
    19     4     9    1
    20     9    10    1
    21    24    23    1
    22    24    25    1
    23    25    26    1
    24    26    27    1
    25    27    28    1
    26    28    29   ar
    27    29    30   ar
    28    30    31   ar
    29    31    32   ar
    30    32    33   ar
    31    10     1    1
    32    33    24    1
    33     8     3   ar
    34    19    12    1
    35    33    28   ar
    36    18    14    1
    37    16    20    1
    38    10    11    1
@<TRIPOS>MOLECULE
*****
 33 38 0 0 0
SMALL
GASTEIGER

@<TRIPOS>ATOM
      1 C          -8.8956  -16.4305   22.7131 C.3     1  UNL1        0.0749
      2 C          -7.4608  -16.4246   23.1505 C.3     1  UNL1        0.0444
      3 C          -7.1017  -15.9844   24.5387 C.ar    1  UNL1       -0.0101
      4 C          -8.1774  -15.5501   25.4896 C.ar    1  UNL1       -0.0091
      5 C          -7.8183  -15.1098   26.8779 C.ar    1  UNL1       -0.0032
      6 C          -6.3835  -15.1039   27.3152 C.ar    1  UNL1        0.0010
      7 C          -5.3078  -15.5382   26.3643 C.ar    1  UNL1        0.0142
      8 C          -5.6668  -15.9784   24.9761 C.ar    1  UNL1        0.0436
      9 C          -9.6122  -15.5560   25.0523 C.3     1  UNL1        0.0954
     10 N          -9.9713  -15.9962   23.6640 N.3     1  UNL1       -0.2934
     11 H         -10.4558  -15.2143   23.2233 H       1  UNL1        0.1236
     12 N          -4.5911  -16.4127   24.0252 N.pl3   1  UNL1       -0.3076
     13 C          -3.9731  -17.7778   23.9569 C.3     1  UNL1        0.0922
     14 C          -2.9446  -17.7670   22.8651 C.3     1  UNL1        0.0385
     15 C          -1.9271  -18.6039   22.1482 C.3     1  UNL1        0.0703
     16 N          -1.2804  -17.7494   21.0986 N.3     1  UNL1       -0.2974
     17 C          -1.8984  -16.3843   21.1669 C.3     1  UNL1        0.0703
     18 C          -2.9269  -16.3952   22.2586 C.3     1  UNL1        0.0385
     19 C          -3.9445  -15.5582   22.9756 C.3     1  UNL1        0.0922
     20 H          -1.4384  -18.1552   20.1762 H       1  UNL1        0.1232
     21 C          -9.2547  -16.8707   21.3248 C.3     1  UNL1        0.0886
     22 C         -11.1919  -18.5370   21.7946 C.3     1  UNL1        0.0899
     23 N          -9.9014  -18.2062   21.1052 N.3     1  UNL1       -0.2667
     24 C          -9.2576  -19.2108   20.1963 C.3     1  UNL1        0.0978
     25 C          -9.9910  -19.7040   18.9843 C.3     1  UNL1        0.0224
     26 C          -9.3472  -20.7087   18.0753 C.3     1  UNL1        0.0065
     27 C          -7.9701  -21.2202   18.3783 C.3     1  UNL1        0.0277
     28 C          -7.2367  -20.7270   19.5904 C.ar    1  UNL1       -0.0073
     29 C          -5.8596  -21.2385   19.8934 C.ar    1  UNL1       -0.0015
     30 C          -5.1262  -20.7453   21.1053 C.ar    1  UNL1        0.0203
     31 C          -5.7700  -19.7407   22.0143 C.ar    1  UNL1        0.0985
     32 N          -7.1471  -19.2292   21.7113 N.ar    1  UNL1       -0.2471
     33 C          -7.8804  -19.7223   20.4993 C.ar    1  UNL1        0.0695
@<TRIPOS>BOND
     1    22    23    1
     2    23    21    1
     3     1    21    1
     4     1     2    1
     5     2     3    1
     6     3     4   ar
     7     4     5   ar
     8     5     6   ar
     9     6     7   ar
    10     7     8   ar
    11     8    12    1
    12    12    13    1
    13    14    13    1
    14    14    15    1
    15    15    16    1
    16    16    17    1
    17    18    17    1
    18    18    19    1
    19     4     9    1
    20     9    10    1
    21    24    23    1
    22    24    25    1
    23    25    26    1
    24    26    27    1
    25    27    28    1
    26    28    29   ar
    27    29    30   ar
    28    30    31   ar
    29    31    32   ar
    30    32    33   ar
    31    10     1    1
    32    33    24    1
    33     8     3   ar
    34    19    12    1
    35    33    28   ar
    36    18    14    1
    37    16    20    1
    38    10    11    1
