@<TRIPOS>MOLECULE
*****
 20 22 0 0 0
SMALL
GASTEIGER

@<TRIPOS>ATOM
      1 C          -9.6544  -17.9009   21.3615 C.ar    1  UNL1        0.0566
      2 C         -10.7414  -18.4064   20.4600 C.ar    1  UNL1        0.1020
      3 N         -12.0763  -17.7225   20.4383 N.ar    1  UNL1       -0.2422
      4 C         -12.3241  -16.5332   21.3181 C.ar    1  UNL1        0.0990
      5 C         -11.2370  -16.0277   22.2196 C.ar    1  UNL1        0.0238
      6 C          -9.9022  -16.7116   22.2413 C.ar    1  UNL1        0.0405
      7 C          -6.0406  -19.2169   20.8376 C.ar    1  UNL1        0.1385
      8 C          -6.4901  -20.0575   21.9959 C.ar    1  UNL1        0.0375
      9 C          -7.8985  -19.6668   22.3331 C.ar    1  UNL1        0.0404
     10 C          -8.3195  -18.5848   21.3833 C.ar    1  UNL1        0.1465
     11 O          -7.1713  -18.3068   20.4590 O.2     1  UNL1       -0.4563
     12 N          -4.2737  -18.1839   19.2373 N.3     1  UNL1       -0.3148
     13 C          -4.6965  -19.2762   20.1744 C.3     1  UNL1        0.1307
     14 H          -3.3394  -18.3845   18.8808 H       1  UNL1        0.1192
     15 H          -4.2639  -17.2937   19.7352 H       1  UNL1        0.1192
     16 C          -8.8151  -16.2062   23.1429 C.ar    1  UNL1        0.1456
     17 C          -8.8354  -16.2210   24.6427 C.ar    1  UNL1        0.0407
     18 C          -7.5497  -15.6211   25.1296 C.ar    1  UNL1        0.0438
     19 C          -6.7347  -15.2356   23.9308 C.ar    1  UNL1        0.1796
     20 O          -7.5168  -15.5971   22.7029 O.2     1  UNL1       -0.4504
@<TRIPOS>BOND
     1    12    13    1
     2    13     7    1
     3     7     8   ar
     4     8     9   ar
     5     9    10   ar
     6    10     1    1
     7     1     2   ar
     8     2     3   ar
     9     3     4   ar
    10     4     5   ar
    11     5     6   ar
    12     6    16    1
    13    16    17   ar
    14    17    18   ar
    15    18    19   ar
    16    19    20   ar
    17    10    11   ar
    18    11     7   ar
    19     6     1   ar
    20    20    16   ar
    21    12    14    1
    22    12    15    1
@<TRIPOS>MOLECULE
*****
 20 22 0 0 0
SMALL
GASTEIGER

@<TRIPOS>ATOM
      1 C          -8.4170  -17.8959   21.6643 C.ar    1  UNL1        0.0566
      2 C          -7.2061  -18.4725   20.9925 C.ar    1  UNL1        0.1020
      3 N          -7.3646  -19.3575   19.7918 N.ar    1  UNL1       -0.2422
      4 C          -8.7340  -19.6660   19.2630 C.ar    1  UNL1        0.0990
      5 C          -9.9449  -19.0894   19.9349 C.ar    1  UNL1        0.0238
      6 C          -9.7864  -18.2044   21.1355 C.ar    1  UNL1        0.0405
      7 C          -8.2539  -16.2056   25.1546 C.ar    1  UNL1        0.1385
      8 C          -7.7753  -15.0922   24.2707 C.ar    1  UNL1        0.0375
      9 C          -7.7781  -15.5899   22.8557 C.ar    1  UNL1        0.0404
     10 C          -8.2585  -17.0109   22.8650 C.ar    1  UNL1        0.1465
     11 O          -8.5525  -17.3914   24.2858 O.2     1  UNL1       -0.4563
     12 N          -8.0428  -14.8913   27.3857 N.3     1  UNL1       -0.3148
     13 C          -8.4070  -16.1440   26.6455 C.3     1  UNL1        0.1307
     14 H          -8.2084  -15.0254   28.3832 H       1  UNL1        0.1192
     15 H          -8.6150  -14.1178   27.0471 H       1  UNL1        0.1192
     16 C         -10.9972  -17.6279   21.8074 C.ar    1  UNL1        0.1456
     17 C         -11.9734  -18.3803   22.6623 C.ar    1  UNL1        0.0407
     18 C         -13.0240  -17.4151   23.1256 C.ar    1  UNL1        0.0438
     19 C         -12.6971  -16.0660   22.5570 C.ar    1  UNL1        0.1796
     20 O         -11.4445  -16.1976   21.7423 O.2     1  UNL1       -0.4504
@<TRIPOS>BOND
     1    12    13    1
     2    13     7    1
     3     7     8   ar
     4     8     9   ar
     5     9    10   ar
     6    10     1    1
     7     1     2   ar
     8     2     3   ar
     9     3     4   ar
    10     4     5   ar
    11     5     6   ar
    12     6    16    1
    13    16    17   ar
    14    17    18   ar
    15    18    19   ar
    16    19    20   ar
    17    10    11   ar
    18    11     7   ar
    19     6     1   ar
    20    20    16   ar
    21    12    14    1
    22    12    15    1
@<TRIPOS>MOLECULE
*****
 20 22 0 0 0
SMALL
GASTEIGER

@<TRIPOS>ATOM
      1 C          -3.9671  -18.0114   22.6386 C.ar    1  UNL1        0.0566
      2 C          -2.4686  -17.9806   22.6981 C.ar    1  UNL1        0.1020
      3 N          -1.6645  -18.9037   21.8314 N.ar    1  UNL1       -0.2422
      4 C          -2.3589  -19.8576   20.9052 C.ar    1  UNL1        0.0990
      5 C          -3.8573  -19.8884   20.8457 C.ar    1  UNL1        0.0238
      6 C          -4.6614  -18.9654   21.7124 C.ar    1  UNL1        0.0405
      7 C          -6.5220  -15.6048   24.2959 C.ar    1  UNL1        0.1385
      8 C          -5.4956  -15.7309   25.3825 C.ar    1  UNL1        0.0375
      9 C          -4.4136  -16.6478   24.8939 C.ar    1  UNL1        0.0404
     10 C          -4.7713  -17.0883   23.5054 C.ar    1  UNL1        0.1465
     11 O          -6.0743  -16.4437   23.1358 O.2     1  UNL1       -0.4563
     12 N          -9.1157  -15.4570   24.3190 N.3     1  UNL1       -0.3148
     13 C          -7.7759  -14.7839   24.3584 C.3     1  UNL1        0.1307
     14 H          -9.8517  -14.7527   24.3709 H       1  UNL1        0.1192
     15 H          -9.1992  -16.0949   25.1105 H       1  UNL1        0.1192
     16 C          -6.1600  -18.9962   21.6529 C.ar    1  UNL1        0.1456
     17 C          -7.0550  -19.9080   22.4387 C.ar    1  UNL1        0.0407
     18 C          -8.4747  -19.5959   22.0686 C.ar    1  UNL1        0.0438
     19 C          -8.4572  -18.4911   21.0541 C.ar    1  UNL1        0.1796
     20 O          -7.0266  -18.1205   20.7972 O.2     1  UNL1       -0.4504
@<TRIPOS>BOND
     1    12    13    1
     2    13     7    1
     3     7     8   ar
     4     8     9   ar
     5     9    10   ar
     6    10     1    1
     7     1     2   ar
     8     2     3   ar
     9     3     4   ar
    10     4     5   ar
    11     5     6   ar
    12     6    16    1
    13    16    17   ar
    14    17    18   ar
    15    18    19   ar
    16    19    20   ar
    17    10    11   ar
    18    11     7   ar
    19     6     1   ar
    20    20    16   ar
    21    12    14    1
    22    12    15    1
@<TRIPOS>MOLECULE
*****
 20 22 0 0 0
SMALL
GASTEIGER

@<TRIPOS>ATOM
      1 C          -8.4221  -18.8920   21.5325 C.ar    1  UNL1        0.0566
      2 C          -7.1618  -19.6628   21.2728 C.ar    1  UNL1        0.1020
      3 N          -6.9908  -20.4080   19.9823 N.ar    1  UNL1       -0.2422
      4 C          -8.0802  -20.3825   18.9515 C.ar    1  UNL1        0.0990
      5 C          -9.3405  -19.6117   19.2112 C.ar    1  UNL1        0.0238
      6 C          -9.5115  -18.8665   20.5016 C.ar    1  UNL1        0.0405
      7 C          -8.4181  -16.4495   24.5490 C.ar    1  UNL1        0.1385
      8 C          -9.2944  -17.5505   25.0687 C.ar    1  UNL1        0.0375
      9 C          -9.4025  -18.5994   24.0019 C.ar    1  UNL1        0.0404
     10 C          -8.5931  -18.1468   22.8230 C.ar    1  UNL1        0.1465
     11 O          -7.9846  -16.8181   23.1611 O.2     1  UNL1       -0.4563
     12 N          -6.8562  -14.3943   24.8436 N.3     1  UNL1       -0.3148
     13 C          -8.0413  -15.1995   25.2876 C.3     1  UNL1        0.1307
     14 H          -6.7474  -13.5844   25.4540 H       1  UNL1        0.1192
     15 H          -6.9992  -14.0798   23.8838 H       1  UNL1        0.1192
     16 C         -10.7718  -18.0956   20.7613 C.ar    1  UNL1        0.1456
     17 C         -11.9916  -18.6115   21.4655 C.ar    1  UNL1        0.0407
     18 C         -13.0073  -17.5083   21.5018 C.ar    1  UNL1        0.0438
     19 C         -12.4152  -16.3105   20.8200 C.ar    1  UNL1        0.1796
     20 O         -11.0336  -16.6735   20.3624 O.2     1  UNL1       -0.4504
@<TRIPOS>BOND
     1    12    13    1
     2    13     7    1
     3     7     8   ar
     4     8     9   ar
     5     9    10   ar
     6    10     1    1
     7     1     2   ar
     8     2     3   ar
     9     3     4   ar
    10     4     5   ar
    11     5     6   ar
    12     6    16    1
    13    16    17   ar
    14    17    18   ar
    15    18    19   ar
    16    19    20   ar
    17    10    11   ar
    18    11     7   ar
    19     6     1   ar
    20    20    16   ar
    21    12    14    1
    22    12    15    1
@<TRIPOS>MOLECULE
*****
 20 22 0 0 0
SMALL
GASTEIGER

@<TRIPOS>ATOM
      1 C         -10.7430  -17.6997   20.6792 C.ar    1  UNL1        0.0566
      2 C         -11.3682  -16.8078   19.6478 C.ar    1  UNL1        0.1020
      3 N         -12.5907  -16.0087   19.9892 N.ar    1  UNL1       -0.2422
      4 C         -13.1882  -16.1013   21.3619 C.ar    1  UNL1        0.0990
      5 C         -12.5630  -16.9931   22.3933 C.ar    1  UNL1        0.0238
      6 C         -11.3405  -17.7923   22.0519 C.ar    1  UNL1        0.0405
      7 C          -7.2186  -19.2593   20.2191 C.ar    1  UNL1        0.1385
      8 C          -8.0595  -20.1984   19.4060 C.ar    1  UNL1        0.0375
      9 C          -9.4821  -19.7284   19.4794 C.ar    1  UNL1        0.0404
     10 C          -9.5204  -18.4989   20.3378 C.ar    1  UNL1        0.1465
     11 O          -8.1215  -18.2090   20.7950 O.2     1  UNL1       -0.4563
     12 N          -4.8102  -18.5159   19.5890 N.3     1  UNL1       -0.3148
     13 C          -5.7353  -19.3539   20.4208 C.3     1  UNL1        0.1307
     14 H          -3.8449  -18.7062   19.8577 H       1  UNL1        0.1192
     15 H          -5.0170  -17.5286   19.7406 H       1  UNL1        0.1192
     16 C         -10.7153  -18.6842   23.0834 C.ar    1  UNL1        0.1456
     17 C         -10.5481  -20.1711   22.9786 C.ar    1  UNL1        0.0407
     18 C          -9.8770  -20.6516   24.2311 C.ar    1  UNL1        0.0438
     19 C          -9.6294  -19.4615   25.1100 C.ar    1  UNL1        0.1796
     20 O         -10.1475  -18.2456   24.4007 O.2     1  UNL1       -0.4504
@<TRIPOS>BOND
     1    12    13    1
     2    13     7    1
     3     7     8   ar
     4     8     9   ar
     5     9    10   ar
     6    10     1    1
     7     1     2   ar
     8     2     3   ar
     9     3     4   ar
    10     4     5   ar
    11     5     6   ar
    12     6    16    1
    13    16    17   ar
    14    17    18   ar
    15    18    19   ar
    16    19    20   ar
    17    10    11   ar
    18    11     7   ar
    19     6     1   ar
    20    20    16   ar
    21    12    14    1
    22    12    15    1
@<TRIPOS>MOLECULE
*****
 20 22 0 0 0
SMALL
GASTEIGER

@<TRIPOS>ATOM
      1 C          -2.9115  -17.4179   21.5624 C.ar    1  UNL1        0.0566
      2 C          -1.5607  -16.8253   21.2899 C.ar    1  UNL1        0.1020
      3 N          -0.8477  -17.1415   20.0087 N.ar    1  UNL1       -0.2422
      4 C          -1.4853  -18.0503   19.0000 C.ar    1  UNL1        0.0990
      5 C          -2.8361  -18.6429   19.2725 C.ar    1  UNL1        0.0238
      6 C          -3.5492  -18.3267   20.5537 C.ar    1  UNL1        0.0405
      7 C          -5.0926  -16.0608   24.4721 C.ar    1  UNL1        0.1385
      8 C          -4.3513  -17.1697   25.1584 C.ar    1  UNL1        0.0375
      9 C          -3.4441  -17.8131   24.1519 C.ar    1  UNL1        0.0404
     10 C          -3.6246  -17.1017   22.8436 C.ar    1  UNL1        0.1465
     11 O          -4.6434  -16.0188   23.0416 O.2     1  UNL1       -0.4563
     12 N          -7.0961  -14.4219   24.2491 N.3     1  UNL1       -0.3148
     13 C          -6.1052  -15.1532   25.1053 C.3     1  UNL1        0.1307
     14 H          -7.7036  -13.8549   24.8407 H       1  UNL1        0.1192
     15 H          -7.6594  -15.0955   23.7301 H       1  UNL1        0.1192
     16 C          -4.9000  -18.9193   20.8262 C.ar    1  UNL1        0.1456
     17 C          -5.1959  -20.0372   21.7815 C.ar    1  UNL1        0.0407
     18 C          -6.6708  -20.3068   21.7370 C.ar    1  UNL1        0.0438
     19 C          -7.2865  -19.3554   20.7541 C.ar    1  UNL1        0.1796
     20 O          -6.1920  -18.4979   20.1913 O.2     1  UNL1       -0.4504
@<TRIPOS>BOND
     1    12    13    1
     2    13     7    1
     3     7     8   ar
     4     8     9   ar
     5     9    10   ar
     6    10     1    1
     7     1     2   ar
     8     2     3   ar
     9     3     4   ar
    10     4     5   ar
    11     5     6   ar
    12     6    16    1
    13    16    17   ar
    14    17    18   ar
    15    18    19   ar
    16    19    20   ar
    17    10    11   ar
    18    11     7   ar
    19     6     1   ar
    20    20    16   ar
    21    12    14    1
    22    12    15    1
@<TRIPOS>MOLECULE
*****
 20 22 0 0 0
SMALL
GASTEIGER

@<TRIPOS>ATOM
      1 C         -11.3512   -2.4486   17.7991 C.ar    1  UNL1        0.0566
      2 C         -10.5042   -1.5007   17.0029 C.ar    1  UNL1        0.1020
      3 N         -10.9702   -0.0943   16.7686 N.ar    1  UNL1       -0.2422
      4 C         -12.2833    0.3641   17.3305 C.ar    1  UNL1        0.0990
      5 C         -13.1303   -0.5839   18.1267 C.ar    1  UNL1        0.0238
      6 C         -12.6643   -1.9902   18.3610 C.ar    1  UNL1        0.0405
      7 C         -10.6498   -6.2654   17.8746 C.ar    1  UNL1        0.1385
      8 C          -9.6861   -5.7730   18.9134 C.ar    1  UNL1        0.0375
      9 C          -9.8316   -4.2833   19.0115 C.ar    1  UNL1        0.0404
     10 C         -10.8851   -3.8551   18.0334 C.ar    1  UNL1        0.1465
     11 O         -11.3908   -5.0800   17.3308 O.2     1  UNL1       -0.4563
     12 N          -9.8532   -8.7384   17.8829 N.3     1  UNL1       -0.3148
     13 C         -10.8392   -7.6927   17.4537 C.3     1  UNL1        0.1307
     14 H         -10.1349   -9.6449   17.5097 H       1  UNL1        0.1192
     15 H          -9.8271   -8.7833   18.9016 H       1  UNL1        0.1192
     16 C         -13.5113   -2.9382   19.1572 C.ar    1  UNL1        0.1456
     17 C         -13.4752   -3.1150   20.6463 C.ar    1  UNL1        0.0407
     18 C         -14.4847   -4.1619   21.0134 C.ar    1  UNL1        0.0438
     19 C         -15.1447   -4.6322   19.7512 C.ar    1  UNL1        0.1796
     20 O         -14.5431   -3.8760   18.6040 O.2     1  UNL1       -0.4504
@<TRIPOS>BOND
     1    12    13    1
     2    13     7    1
     3     7     8   ar
     4     8     9   ar
     5     9    10   ar
     6    10     1    1
     7     1     2   ar
     8     2     3   ar
     9     3     4   ar
    10     4     5   ar
    11     5     6   ar
    12     6    16    1
    13    16    17   ar
    14    17    18   ar
    15    18    19   ar
    16    19    20   ar
    17    10    11   ar
    18    11     7   ar
    19     6     1   ar
    20    20    16   ar
    21    12    14    1
    22    12    15    1
@<TRIPOS>MOLECULE
*****
 20 22 0 0 0
SMALL
GASTEIGER

@<TRIPOS>ATOM
      1 C          -7.8945  -19.1657   20.8352 C.ar    1  UNL1        0.0566
      2 C          -7.6899  -19.5695   19.4052 C.ar    1  UNL1        0.1020
      3 N          -8.8595  -20.0086   18.5752 N.ar    1  UNL1       -0.2422
      4 C         -10.2338  -20.0441   19.1752 C.ar    1  UNL1        0.0990
      5 C         -10.4385  -19.6403   20.6052 C.ar    1  UNL1        0.0238
      6 C          -9.2688  -19.2011   21.4352 C.ar    1  UNL1        0.0405
      7 C          -5.2512  -17.3839   23.0496 C.ar    1  UNL1        0.1385
      8 C          -4.5986  -18.7175   22.8357 C.ar    1  UNL1        0.0375
      9 C          -5.5094  -19.5472   21.9802 C.ar    1  UNL1        0.0404
     10 C          -6.7248  -18.7265   21.6653 C.ar    1  UNL1        0.1465
     11 O          -6.5652  -17.3895   22.3263 O.2     1  UNL1       -0.4563
     12 N          -5.0229  -14.8309   23.4739 N.3     1  UNL1       -0.3148
     13 C          -4.6885  -16.2447   23.8469 C.3     1  UNL1        0.1307
     14 H          -4.5583  -14.1904   24.1177 H       1  UNL1        0.1192
     15 H          -6.0323  -14.6946   23.5281 H       1  UNL1        0.1192
     16 C          -9.4735  -18.7973   22.8653 C.ar    1  UNL1        0.1456
     17 C          -9.6742  -19.7282   24.0243 C.ar    1  UNL1        0.0407
     18 C          -9.8381  -18.8980   25.2627 C.ar    1  UNL1        0.0438
     19 C          -9.7386  -17.4539   24.8692 C.ar    1  UNL1        0.1796
     20 O          -9.5132  -17.3917   23.3876 O.2     1  UNL1       -0.4504
@<TRIPOS>BOND
     1    12    13    1
     2    13     7    1
     3     7     8   ar
     4     8     9   ar
     5     9    10   ar
     6    10     1    1
     7     1     2   ar
     8     2     3   ar
     9     3     4   ar
    10     4     5   ar
    11     5     6   ar
    12     6    16    1
    13    16    17   ar
    14    17    18   ar
    15    18    19   ar
    16    19    20   ar
    17    10    11   ar
    18    11     7   ar
    19     6     1   ar
    20    20    16   ar
    21    12    14    1
    22    12    15    1
@<TRIPOS>MOLECULE
*****
 20 22 0 0 0
SMALL
GASTEIGER

@<TRIPOS>ATOM
      1 C          -8.2244  -18.5575   21.2105 C.ar    1  UNL1        0.0566
      2 C          -8.7171  -19.3726   20.0518 C.ar    1  UNL1        0.1020
      3 N         -10.1144  -19.1818   19.5408 N.ar    1  UNL1       -0.2422
      4 C         -11.0190  -18.1758   20.1887 C.ar    1  UNL1        0.0990
      5 C         -10.5263  -17.3607   21.3475 C.ar    1  UNL1        0.0238
      6 C          -9.1290  -17.5515   21.8584 C.ar    1  UNL1        0.0405
      7 C          -4.6316  -18.3085   22.6581 C.ar    1  UNL1        0.1385
      8 C          -4.7219  -19.7753   22.3575 C.ar    1  UNL1        0.0375
      9 C          -6.0788  -20.0471   21.7787 C.ar    1  UNL1        0.0404
     10 C          -6.8270  -18.7483   21.7215 C.ar    1  UNL1        0.1465
     11 O          -5.9326  -17.6738   22.2650 O.2     1  UNL1       -0.4563
     12 N          -2.0696  -17.8824   22.7278 N.3     1  UNL1       -0.3148
     13 C          -3.4480  -17.6007   23.2482 C.3     1  UNL1        0.1307
     14 H          -1.3912  -17.3180   23.2393 H       1  UNL1        0.1192
     15 H          -2.0266  -17.6495   21.7357 H       1  UNL1        0.1192
     16 C          -8.6363  -16.7364   23.0172 C.ar    1  UNL1        0.1456
     17 C          -7.9071  -15.4286   22.9286 C.ar    1  UNL1        0.0407
     18 C          -7.6064  -14.9699   24.3247 C.ar    1  UNL1        0.0438
     19 C          -8.1498  -15.9943   25.2763 C.ar    1  UNL1        0.1796
     20 O          -8.7863  -17.0860   24.4682 O.2     1  UNL1       -0.4504
@<TRIPOS>BOND
     1    12    13    1
     2    13     7    1
     3     7     8   ar
     4     8     9   ar
     5     9    10   ar
     6    10     1    1
     7     1     2   ar
     8     2     3   ar
     9     3     4   ar
    10     4     5   ar
    11     5     6   ar
    12     6    16    1
    13    16    17   ar
    14    17    18   ar
    15    18    19   ar
    16    19    20   ar
    17    10    11   ar
    18    11     7   ar
    19     6     1   ar
    20    20    16   ar
    21    12    14    1
    22    12    15    1
