@<TRIPOS>MOLECULE
*****
 28 29 0 0 0
SMALL
GASTEIGER

@<TRIPOS>ATOM
      1 N           8.5627   -7.9819   28.3254 N.3     1  UNL1       -0.2683
      2 C           7.6733   -6.7849   28.1639 C.3     1  UNL1        0.0934
      3 C           8.3109   -6.1492   29.3635 C.3     1  UNL1        0.1037
      4 C           9.2003   -7.3462   29.5251 C.3     1  UNL1        0.0934
      5 N           8.1328   -4.8533   30.0977 N.am    1  UNL1       -0.2997
      6 C           7.3112   -4.8085   31.3518 C.2     1  UNL1        0.2459
      7 O           6.6676   -6.0597   31.8718 O.2     1  UNL1       -0.2701
      8 H           8.5552   -4.0321   29.7564 H       1  UNL1        0.1498
      9 C           7.1331   -3.5126   32.0860 C.ar    1  UNL1        0.0550
     10 C           5.7606   -3.0614   32.4891 C.ar    1  UNL1        0.0160
     11 C           5.5826   -1.7655   33.2232 C.ar    1  UNL1        0.0587
     12 CL          4.2100   -1.3143   33.6263 Cl      1  UNL1       -0.0822
     13 C           6.7771   -0.9209   33.5543 C.ar    1  UNL1        0.0228
     14 C           8.1497   -1.3721   33.1512 C.ar    1  UNL1        0.0587
     15 CL          9.3442   -0.5274   33.4823 Cl      1  UNL1       -0.0822
     16 C           8.3277   -2.6679   32.4171 C.ar    1  UNL1        0.0160
     17 C           8.7408   -9.2778   27.5912 C.3     1  UNL1        0.0937
     18 C           7.9253  -10.4763   27.9767 C.3     1  UNL1        0.1082
     19 N           4.1940  -11.7866   27.6440 N.am    1  UNL1       -0.2921
     20 C           5.6676  -11.7607   27.9234 C.2     1  UNL1        0.3007
     21 O           6.3569  -12.9933   28.4288 O.2     1  UNL1       -0.2528
     22 N           6.4518  -10.5022   27.6973 N.am    1  UNL1       -0.2875
     23 H           3.7416  -10.9776   27.3123 H       1  UNL1        0.1508
     24 H           5.9993   -9.6931   27.3656 H       1  UNL1        0.1510
     25 C           3.0629  -12.5804   29.2534 C.3     1  UNL1        0.0197
     26 C           3.4098  -13.0451   27.8700 C.3     1  UNL1        0.0583
     27 C           3.7567  -13.5098   26.4866 C.3     1  UNL1        0.0197
     28 C           2.6256  -14.3036   28.0961 C.3     1  UNL1        0.0197
@<TRIPOS>BOND
     1    25    26    1
     2    26    27    1
     3    26    28    1
     4    26    19    1
     5    19    20   am
     6    20    21    2
     7    20    22   am
     8    22    18    1
     9    18    17    1
    10    17     1    1
    11     1     2    1
    12     2     3    1
    13     3     5    1
    14     5     6   am
    15     6     7    2
    16     6     9    1
    17     9    10   ar
    18    10    11   ar
    19    11    12    1
    20    11    13   ar
    21    13    14   ar
    22    14    15    1
    23    14    16   ar
    24     3     4    1
    25     4     1    1
    26    16     9   ar
    27    19    23    1
    28    22    24    1
    29     5     8    1
@<TRIPOS>MOLECULE
*****
 28 29 0 0 0
SMALL
GASTEIGER

@<TRIPOS>ATOM
      1 N           8.5670   -7.9907   28.3399 N.3     1  UNL1       -0.2683
      2 C           9.2101   -7.3479   29.5329 C.3     1  UNL1        0.0934
      3 C           8.3126   -6.1566   29.3750 C.3     1  UNL1        0.1037
      4 C           7.6695   -6.7993   28.1819 C.3     1  UNL1        0.0934
      5 N           8.1327   -4.8596   30.1068 N.am    1  UNL1       -0.2997
      6 C           7.3001   -4.8112   31.3535 C.2     1  UNL1        0.2459
      7 O           6.6474   -6.0597   31.8685 O.2     1  UNL1       -0.2701
      8 H           8.5611   -4.0401   29.7689 H       1  UNL1        0.1498
      9 C           7.1202   -3.5142   32.0854 C.ar    1  UNL1        0.0550
     10 C           8.3147   -2.6733   32.4262 C.ar    1  UNL1        0.0160
     11 C           8.1347   -1.3764   33.1580 C.ar    1  UNL1        0.0587
     12 CL          9.3292   -0.5355   33.4988 Cl      1  UNL1       -0.0822
     13 C           6.7603   -0.9204   33.5491 C.ar    1  UNL1        0.0228
     14 C           5.5658   -1.7612   33.2083 C.ar    1  UNL1        0.0587
     15 CL          4.1913   -1.3051   33.5993 Cl      1  UNL1       -0.0822
     16 C           5.7457   -3.0581   32.4764 C.ar    1  UNL1        0.0160
     17 C           8.7469   -9.2876   27.6081 C.3     1  UNL1        0.0937
     18 C           7.9305  -10.4855   27.9932 C.3     1  UNL1        0.1082
     19 N           4.1992  -11.7962   27.6612 N.am    1  UNL1       -0.2921
     20 C           5.6709  -11.7671   27.9500 C.2     1  UNL1        0.3007
     21 O           6.3546  -12.9906   28.4843 O.2     1  UNL1       -0.2528
     22 N           6.4588  -10.5146   27.7044 N.am    1  UNL1       -0.2875
     23 H           3.7504  -10.9932   27.3105 H       1  UNL1        0.1508
     24 H           6.0100   -9.7116   27.3537 H       1  UNL1        0.1510
     25 C           3.7637  -13.5395   26.5339 C.3     1  UNL1        0.0197
     26 C           3.4113  -13.0487   27.9067 C.3     1  UNL1        0.0583
     27 C           3.0588  -12.5579   29.2797 C.3     1  UNL1        0.0197
     28 C           2.6234  -14.3012   28.1523 C.3     1  UNL1        0.0197
@<TRIPOS>BOND
     1    25    26    1
     2    26    27    1
     3    26    28    1
     4    26    19    1
     5    19    20   am
     6    20    21    2
     7    20    22   am
     8    22    18    1
     9    18    17    1
    10    17     1    1
    11     1     2    1
    12     2     3    1
    13     3     5    1
    14     5     6   am
    15     6     7    2
    16     6     9    1
    17     9    10   ar
    18    10    11   ar
    19    11    12    1
    20    11    13   ar
    21    13    14   ar
    22    14    15    1
    23    14    16   ar
    24     3     4    1
    25     4     1    1
    26    16     9   ar
    27    19    23    1
    28    22    24    1
    29     5     8    1
@<TRIPOS>MOLECULE
*****
 28 29 0 0 0
SMALL
GASTEIGER

@<TRIPOS>ATOM
      1 N          -4.7978  -19.9229   20.3575 N.3     1  UNL1       -0.2683
      2 C          -5.5653  -18.7783   19.7652 C.3     1  UNL1        0.0934
      3 C          -6.8255  -19.3004   20.3889 C.3     1  UNL1        0.1037
      4 C          -6.0581  -20.4451   20.9812 C.3     1  UNL1        0.0934
      5 N          -8.2593  -18.8602   20.4111 N.am    1  UNL1       -0.2997
      6 C          -8.8173  -18.1834   21.6278 C.2     1  UNL1        0.2459
      7 O          -7.9416  -17.9467   22.8224 O.2     1  UNL1       -0.2701
      8 H          -8.8341  -19.0156   19.6270 H       1  UNL1        0.1498
      9 C         -10.2512  -17.7432   21.6500 C.ar    1  UNL1        0.0550
     10 C         -11.1426  -18.1486   22.7861 C.ar    1  UNL1        0.0160
     11 C         -12.5764  -17.7085   22.8083 C.ar    1  UNL1        0.0587
     12 CL        -13.4680  -18.1138   23.9445 Cl      1  UNL1       -0.0822
     13 C         -13.1187  -16.8629   21.6943 C.ar    1  UNL1        0.0228
     14 C         -12.2272  -16.4575   20.5582 C.ar    1  UNL1        0.0587
     15 CL        -12.7695  -15.6120   19.4442 Cl      1  UNL1       -0.0822
     16 C         -10.7935  -16.8977   20.5360 C.ar    1  UNL1        0.0160
     17 C          -3.3640  -20.3631   20.3353 C.3     1  UNL1        0.0937
     18 C          -2.3472  -19.6491   21.1757 C.3     1  UNL1        0.1082
     19 N          -3.7597  -16.4882   23.1159 N.am    1  UNL1       -0.2921
     20 C          -3.5273  -17.9123   22.7058 C.2     1  UNL1        0.3007
     21 O          -4.2423  -19.0235   23.4157 O.2     1  UNL1       -0.2528
     22 N          -2.5797  -18.2251   21.5858 N.am    1  UNL1       -0.2875
     23 H          -3.2904  -15.7589   22.6500 H       1  UNL1        0.1508
     24 H          -2.1104  -17.4958   21.1199 H       1  UNL1        0.1510
     25 C          -5.5118  -15.3087   23.3131 C.3     1  UNL1        0.0197
     26 C          -4.7073  -16.1754   24.2358 C.3     1  UNL1        0.0583
     27 C          -3.9027  -17.0422   25.1587 C.3     1  UNL1        0.0197
     28 C          -5.6548  -15.8626   25.3558 C.3     1  UNL1        0.0197
@<TRIPOS>BOND
     1    25    26    1
     2    26    27    1
     3    26    28    1
     4    26    19    1
     5    19    20   am
     6    20    21    2
     7    20    22   am
     8    22    18    1
     9    18    17    1
    10    17     1    1
    11     1     2    1
    12     2     3    1
    13     3     5    1
    14     5     6   am
    15     6     7    2
    16     6     9    1
    17     9    10   ar
    18    10    11   ar
    19    11    12    1
    20    11    13   ar
    21    13    14   ar
    22    14    15    1
    23    14    16   ar
    24     3     4    1
    25     4     1    1
    26    16     9   ar
    27    19    23    1
    28    22    24    1
    29     5     8    1
@<TRIPOS>MOLECULE
*****
 28 29 0 0 0
SMALL
GASTEIGER

@<TRIPOS>ATOM
      1 N           8.0307   -8.2105   27.2304 N.3     1  UNL1       -0.2683
      2 C           7.1902   -7.8091   26.0546 C.3     1  UNL1        0.0934
      3 C           7.1145   -6.4088   26.5866 C.3     1  UNL1        0.1037
      4 C           7.9549   -6.8101   27.7625 C.3     1  UNL1        0.0934
      5 N           6.4666   -5.1348   26.1315 N.am    1  UNL1       -0.2997
      6 C           6.6216   -4.6807   24.7103 C.2     1  UNL1        0.2459
      7 O           7.4243   -5.5006   23.7442 O.2     1  UNL1       -0.2701
      8 H           5.9397   -4.5966   26.7655 H       1  UNL1        0.1498
      9 C           5.9737   -3.4066   24.2551 C.ar    1  UNL1        0.0550
     10 C           5.1441   -3.3919   23.0055 C.ar    1  UNL1        0.0160
     11 C           4.4963   -2.1179   22.5504 C.ar    1  UNL1        0.0587
     12 CL          3.6666   -2.1031   21.3008 Cl      1  UNL1       -0.0822
     13 C           4.6781   -0.8586   23.3449 C.ar    1  UNL1        0.0228
     14 C           5.5078   -0.8733   24.5944 C.ar    1  UNL1        0.0587
     15 CL          5.6896    0.3860   25.3889 Cl      1  UNL1       -0.0822
     16 C           6.1556   -2.1473   25.0495 C.ar    1  UNL1        0.0160
     17 C           8.6785   -9.4845   27.6856 C.3     1  UNL1        0.0937
     18 C           7.8310  -10.6575   28.0803 C.3     1  UNL1        0.1082
     19 N           4.0926  -11.9213   27.6583 N.am    1  UNL1       -0.2921
     20 C           5.5562  -11.9093   27.9866 C.2     1  UNL1        0.3007
     21 O           6.2087  -13.1370   28.5494 O.2     1  UNL1       -0.2528
     22 N           6.3673  -10.6695   27.7520 N.am    1  UNL1       -0.2875
     23 H           3.6644  -11.1154   27.2889 H       1  UNL1        0.1508
     24 H           5.9391   -9.8637   27.3826 H       1  UNL1        0.1510
     25 C           3.6843  -13.6797   26.5443 C.3     1  UNL1        0.0197
     26 C           3.2815  -13.1610   27.8929 C.3     1  UNL1        0.0583
     27 C           2.8787  -12.6424   29.2415 C.3     1  UNL1        0.0197
     28 C           2.4704  -14.4008   28.1275 C.3     1  UNL1        0.0197
@<TRIPOS>BOND
     1    25    26    1
     2    26    27    1
     3    26    28    1
     4    26    19    1
     5    19    20   am
     6    20    21    2
     7    20    22   am
     8    22    18    1
     9    18    17    1
    10    17     1    1
    11     1     2    1
    12     2     3    1
    13     3     5    1
    14     5     6   am
    15     6     7    2
    16     6     9    1
    17     9    10   ar
    18    10    11   ar
    19    11    12    1
    20    11    13   ar
    21    13    14   ar
    22    14    15    1
    23    14    16   ar
    24     3     4    1
    25     4     1    1
    26    16     9   ar
    27    19    23    1
    28    22    24    1
    29     5     8    1
@<TRIPOS>MOLECULE
*****
 28 29 0 0 0
SMALL
GASTEIGER

@<TRIPOS>ATOM
      1 N           8.0062   -8.3937   27.3358 N.3     1  UNL1       -0.2683
      2 C           7.9827   -7.0229   27.9444 C.3     1  UNL1        0.0934
      3 C           7.1156   -6.5386   26.8204 C.3     1  UNL1        0.1037
      4 C           7.1390   -7.9094   26.2117 C.3     1  UNL1        0.0934
      5 N           6.4857   -5.2269   26.4559 N.am    1  UNL1       -0.2997
      6 C           6.7440   -4.6195   25.1089 C.2     1  UNL1        0.2459
      7 O           7.6320   -5.3238   24.1264 O.2     1  UNL1       -0.2701
      8 H           5.9029   -4.7647   27.1007 H       1  UNL1        0.1498
      9 C           6.1142   -3.3078   24.7444 C.ar    1  UNL1        0.0550
     10 C           6.3799   -2.0905   25.5796 C.ar    1  UNL1        0.0160
     11 C           5.7501   -0.7789   25.2150 C.ar    1  UNL1        0.0587
     12 CL          6.0157    0.4385   26.0502 Cl      1  UNL1       -0.0822
     13 C           4.8546   -0.6846   24.0154 C.ar    1  UNL1        0.0228
     14 C           4.5889   -1.9019   23.1802 C.ar    1  UNL1        0.0587
     15 CL          3.6934   -1.8075   21.9806 Cl      1  UNL1       -0.0822
     16 C           5.2187   -3.2135   23.5448 C.ar    1  UNL1        0.0160
     17 C           8.6360   -9.7054   27.7002 C.3     1  UNL1        0.0937
     18 C           7.7722  -10.8779   28.0593 C.3     1  UNL1        0.1082
     19 N           3.9791  -12.0080   27.7663 N.am    1  UNL1       -0.2921
     20 C           5.4510  -12.0450   28.0532 C.2     1  UNL1        0.3007
     21 O           6.0735  -13.2861   28.6208 O.2     1  UNL1       -0.2528
     22 N           6.3003  -10.8409   27.7724 N.am    1  UNL1       -0.2875
     23 H           3.5705  -11.1935   27.3938 H       1  UNL1        0.1508
     24 H           5.8917  -10.0264   27.3998 H       1  UNL1        0.1510
     25 C           3.5054  -13.7879   26.7140 C.3     1  UNL1        0.0197
     26 C           3.1298  -13.2121   28.0471 C.3     1  UNL1        0.0583
     27 C           2.7541  -12.6363   29.3803 C.3     1  UNL1        0.0197
     28 C           2.2805  -14.4161   28.3279 C.3     1  UNL1        0.0197
@<TRIPOS>BOND
     1    25    26    1
     2    26    27    1
     3    26    28    1
     4    26    19    1
     5    19    20   am
     6    20    21    2
     7    20    22   am
     8    22    18    1
     9    18    17    1
    10    17     1    1
    11     1     2    1
    12     2     3    1
    13     3     5    1
    14     5     6   am
    15     6     7    2
    16     6     9    1
    17     9    10   ar
    18    10    11   ar
    19    11    12    1
    20    11    13   ar
    21    13    14   ar
    22    14    15    1
    23    14    16   ar
    24     3     4    1
    25     4     1    1
    26    16     9   ar
    27    19    23    1
    28    22    24    1
    29     5     8    1
@<TRIPOS>MOLECULE
*****
 28 29 0 0 0
SMALL
GASTEIGER

@<TRIPOS>ATOM
      1 N          -6.3267  -15.2533   26.1200 N.3     1  UNL1       -0.2683
      2 C          -6.5470  -15.0786   24.6466 C.3     1  UNL1        0.0934
      3 C          -5.2405  -15.7616   24.3702 C.3     1  UNL1        0.1037
      4 C          -5.0202  -15.9364   25.8436 C.3     1  UNL1        0.0934
      5 N          -4.4724  -16.1210   23.1329 N.am    1  UNL1       -0.2997
      6 C          -3.6953  -17.4028   23.0784 C.2     1  UNL1        0.2459
      7 O          -3.6863  -18.3253   24.2611 O.2     1  UNL1       -0.2701
      8 H          -4.4783  -15.5155   22.3566 H       1  UNL1        0.1498
      9 C          -2.9272  -17.7622   21.8410 C.ar    1  UNL1        0.0550
     10 C          -3.4487  -18.8213   20.9157 C.ar    1  UNL1        0.0160
     11 C          -2.6806  -19.1806   19.6784 C.ar    1  UNL1        0.0587
     12 CL         -3.2021  -20.2397   18.7529 Cl      1  UNL1       -0.0822
     13 C          -1.3910  -18.4809   19.3666 C.ar    1  UNL1        0.0228
     14 C          -0.8694  -17.4219   20.2920 C.ar    1  UNL1        0.0587
     15 CL          0.4202  -16.7222   19.9801 Cl      1  UNL1       -0.0822
     16 C          -1.6375  -17.0625   21.5292 C.ar    1  UNL1        0.0160
     17 C          -7.0947  -14.8940   27.3573 C.3     1  UNL1        0.0937
     18 C          -8.4376  -15.5117   27.6123 C.3     1  UNL1        0.1082
     19 N          -9.5949  -18.4831   25.2496 N.am    1  UNL1       -0.2921
     20 C          -9.3004  -17.0979   25.7442 C.2     1  UNL1        0.3007
     21 O          -9.5743  -15.9136   24.8652 O.2     1  UNL1       -0.2528
     22 N          -8.7321  -16.8969   27.1177 N.am    1  UNL1       -0.2875
     23 H          -9.4151  -19.2603   25.8265 H       1  UNL1        0.1508
     24 H          -8.5523  -17.6742   27.6946 H       1  UNL1        0.1510
     25 C          -8.7759  -18.7163   23.3068 C.3     1  UNL1        0.0197
     26 C         -10.1632  -18.6840   23.8761 C.3     1  UNL1        0.0583
     27 C         -11.5506  -18.6516   24.4454 C.3     1  UNL1        0.0197
     28 C         -10.7315  -18.8849   22.5026 C.3     1  UNL1        0.0197
@<TRIPOS>BOND
     1    25    26    1
     2    26    27    1
     3    26    28    1
     4    26    19    1
     5    19    20   am
     6    20    21    2
     7    20    22   am
     8    22    18    1
     9    18    17    1
    10    17     1    1
    11     1     2    1
    12     2     3    1
    13     3     5    1
    14     5     6   am
    15     6     7    2
    16     6     9    1
    17     9    10   ar
    18    10    11   ar
    19    11    12    1
    20    11    13   ar
    21    13    14   ar
    22    14    15    1
    23    14    16   ar
    24     3     4    1
    25     4     1    1
    26    16     9   ar
    27    19    23    1
    28    22    24    1
    29     5     8    1
@<TRIPOS>MOLECULE
*****
 28 29 0 0 0
SMALL
GASTEIGER

@<TRIPOS>ATOM
      1 N           8.8736   -7.4029   26.1455 N.3     1  UNL1       -0.2683
      2 C           9.0776   -5.9853   25.6995 C.3     1  UNL1        0.0934
      3 C           8.3224   -6.2740   24.4362 C.3     1  UNL1        0.1037
      4 C           8.1184   -7.6916   24.8821 C.3     1  UNL1        0.0934
      5 N           7.9326   -5.4758   23.2275 N.am    1  UNL1       -0.2997
      6 C           6.8865   -4.4067   23.3401 C.2     1  UNL1        0.2459
      7 O           6.2302   -4.1357   24.6614 O.2     1  UNL1       -0.2701
      8 H           8.3633   -5.6536   22.3602 H       1  UNL1        0.1498
      9 C           6.4967   -3.6084   22.1314 C.ar    1  UNL1        0.0550
     10 C           5.0979   -3.0834   21.9984 C.ar    1  UNL1        0.0160
     11 C           4.7081   -2.2853   20.7897 C.ar    1  UNL1        0.0587
     12 CL          3.3093   -1.7602   20.6568 Cl      1  UNL1       -0.0822
     13 C           5.7171   -2.0121   19.7140 C.ar    1  UNL1        0.0228
     14 C           7.1159   -2.5371   19.8469 C.ar    1  UNL1        0.0587
     15 CL          8.1250   -2.2639   18.7712 Cl      1  UNL1       -0.0822
     16 C           7.5057   -3.3353   21.0556 C.ar    1  UNL1        0.0160
     17 C           9.2634   -8.2011   27.3542 C.3     1  UNL1        0.0937
     18 C           8.6167   -9.5288   27.6166 C.3     1  UNL1        0.1082
     19 N           4.9919  -11.1444   27.6544 N.am    1  UNL1       -0.2921
     20 C           6.4824  -11.0044   27.7489 C.2     1  UNL1        0.3007
     21 O           7.3291  -12.2002   28.0701 O.2     1  UNL1       -0.2528
     22 N           7.1262   -9.6687   27.5221 N.am    1  UNL1       -0.2875
     23 H           4.4362  -10.3595   27.4436 H       1  UNL1        0.1508
     24 H           6.5704   -8.8839   27.3113 H       1  UNL1        0.1510
     25 C           4.4072  -12.7585   26.4084 C.3     1  UNL1        0.0197
     26 C           4.3481  -12.4801   27.8811 C.3     1  UNL1        0.0583
     27 C           4.2890  -12.2016   29.3539 C.3     1  UNL1        0.0197
     28 C           3.7044  -13.8158   28.1078 C.3     1  UNL1        0.0197
@<TRIPOS>BOND
     1    25    26    1
     2    26    27    1
     3    26    28    1
     4    26    19    1
     5    19    20   am
     6    20    21    2
     7    20    22   am
     8    22    18    1
     9    18    17    1
    10    17     1    1
    11     1     2    1
    12     2     3    1
    13     3     5    1
    14     5     6   am
    15     6     7    2
    16     6     9    1
    17     9    10   ar
    18    10    11   ar
    19    11    12    1
    20    11    13   ar
    21    13    14   ar
    22    14    15    1
    23    14    16   ar
    24     3     4    1
    25     4     1    1
    26    16     9   ar
    27    19    23    1
    28    22    24    1
    29     5     8    1
@<TRIPOS>MOLECULE
*****
 28 29 0 0 0
SMALL
GASTEIGER

@<TRIPOS>ATOM
      1 N         -11.4050  -19.0763   24.4526 N.3     1  UNL1       -0.2683
      2 C         -10.8255  -19.8899   23.3336 C.3     1  UNL1        0.0934
      3 C          -9.4465  -19.4531   23.7300 C.3     1  UNL1        0.1037
      4 C         -10.0258  -18.6395   24.8491 C.3     1  UNL1        0.0934
      5 N          -8.0615  -19.7195   23.2190 N.am    1  UNL1       -0.2997
      6 C          -7.2423  -18.5977   22.6529 C.2     1  UNL1        0.2459
      7 O          -7.8079  -17.2096   22.5977 O.2     1  UNL1       -0.2701
      8 H          -7.6902  -20.6305   23.2552 H       1  UNL1        0.1498
      9 C          -5.8573  -18.8641   22.1420 C.ar    1  UNL1        0.0550
     10 C          -5.6479  -19.8229   21.0076 C.ar    1  UNL1        0.0160
     11 C          -4.2630  -20.0892   20.4967 C.ar    1  UNL1        0.0587
     12 CL         -4.0536  -21.0480   19.3622 Cl      1  UNL1       -0.0822
     13 C          -3.0875  -19.3968   21.1202 C.ar    1  UNL1        0.0228
     14 C          -3.2969  -18.4380   22.2545 C.ar    1  UNL1        0.0587
     15 CL         -2.1214  -17.7456   22.8780 Cl      1  UNL1       -0.0822
     16 C          -4.6818  -18.1717   22.7655 C.ar    1  UNL1        0.0160
     17 C         -12.7898  -18.8099   24.9636 C.3     1  UNL1        0.0937
     18 C         -13.7719  -18.0606   24.1128 C.3     1  UNL1        0.1082
     19 N         -12.5894  -17.1827   20.4274 N.am    1  UNL1       -0.2921
     20 C         -12.7133  -17.1495   21.9220 C.2     1  UNL1        0.3007
     21 O         -11.9026  -16.1720   22.7202 O.2     1  UNL1       -0.2528
     22 N         -13.6480  -18.0938   22.6182 N.am    1  UNL1       -0.2875
     23 H         -13.1215  -17.8243   19.9035 H       1  UNL1        0.1508
     24 H         -14.1801  -18.7354   22.0943 H       1  UNL1        0.1510
     25 C         -12.8176  -15.3748   19.3415 C.3     1  UNL1        0.0197
     26 C         -11.6548  -16.2384   19.7312 C.3     1  UNL1        0.0583
     27 C         -10.4918  -17.1021   20.1209 C.3     1  UNL1        0.0197
     28 C         -10.7201  -15.2942   19.0350 C.3     1  UNL1        0.0197
@<TRIPOS>BOND
     1    25    26    1
     2    26    27    1
     3    26    28    1
     4    26    19    1
     5    19    20   am
     6    20    21    2
     7    20    22   am
     8    22    18    1
     9    18    17    1
    10    17     1    1
    11     1     2    1
    12     2     3    1
    13     3     5    1
    14     5     6   am
    15     6     7    2
    16     6     9    1
    17     9    10   ar
    18    10    11   ar
    19    11    12    1
    20    11    13   ar
    21    13    14   ar
    22    14    15    1
    23    14    16   ar
    24     3     4    1
    25     4     1    1
    26    16     9   ar
    27    19    23    1
    28    22    24    1
    29     5     8    1
@<TRIPOS>MOLECULE
*****
 28 29 0 0 0
SMALL
GASTEIGER

@<TRIPOS>ATOM
      1 N           8.2925   -7.2243   27.0888 N.3     1  UNL1       -0.2683
      2 C           8.7200   -5.8789   26.5817 C.3     1  UNL1        0.0934
      3 C           7.3516   -5.6604   26.0077 C.3     1  UNL1        0.1037
      4 C           6.9240   -7.0058   26.5148 C.3     1  UNL1        0.0934
      5 N           6.6862   -4.5545   25.2433 N.am    1  UNL1       -0.2997
      6 C           6.7908   -4.5081   23.7477 C.2     1  UNL1        0.2459
      7 O           7.5608   -5.5675   23.0164 O.2     1  UNL1       -0.2701
      8 H           6.1808   -3.8591   25.7232 H       1  UNL1        0.1498
      9 C           6.1254   -3.4022   22.9832 C.ar    1  UNL1        0.0550
     10 C           6.6516   -2.9983   21.6379 C.ar    1  UNL1        0.0160
     11 C           5.9862   -1.8924   20.8735 C.ar    1  UNL1        0.0587
     12 CL          6.5124   -1.4885   19.5281 Cl      1  UNL1       -0.0822
     13 C           4.7946   -1.1905   21.4544 C.ar    1  UNL1        0.0228
     14 C           4.2685   -1.5944   22.7998 C.ar    1  UNL1        0.0587
     15 CL          3.0769   -0.8925   23.3807 Cl      1  UNL1       -0.0822
     16 C           4.9339   -2.7003   23.5641 C.ar    1  UNL1        0.0160
     17 C           8.9578   -8.3302   27.8532 C.3     1  UNL1        0.0937
     18 C           8.3896   -9.7178   27.8119 C.3     1  UNL1        0.1082
     19 N           4.8163  -11.4320   27.6027 N.am    1  UNL1       -0.2921
     20 C           6.2761  -11.2272   27.8808 C.2     1  UNL1        0.3007
     21 O           7.0820  -12.3271   28.5059 O.2     1  UNL1       -0.2528
     22 N           6.9299   -9.9226   27.5338 N.am    1  UNL1       -0.2875
     23 H           4.2874  -10.7101   27.1924 H       1  UNL1        0.1508
     24 H           6.4009   -9.2007   27.1236 H       1  UNL1        0.1510
     25 C           3.8504  -12.2155   29.3211 C.3     1  UNL1        0.0197
     26 C           4.1626  -12.7367   27.9496 C.3     1  UNL1        0.0583
     27 C           4.4747  -13.2579   26.5781 C.3     1  UNL1        0.0197
     28 C           3.5088  -14.0413   28.2966 C.3     1  UNL1        0.0197
@<TRIPOS>BOND
     1    25    26    1
     2    26    27    1
     3    26    28    1
     4    26    19    1
     5    19    20   am
     6    20    21    2
     7    20    22   am
     8    22    18    1
     9    18    17    1
    10    17     1    1
    11     1     2    1
    12     2     3    1
    13     3     5    1
    14     5     6   am
    15     6     7    2
    16     6     9    1
    17     9    10   ar
    18    10    11   ar
    19    11    12    1
    20    11    13   ar
    21    13    14   ar
    22    14    15    1
    23    14    16   ar
    24     3     4    1
    25     4     1    1
    26    16     9   ar
    27    19    23    1
    28    22    24    1
    29     5     8    1
