@<TRIPOS>MOLECULE
*****
 42 46 0 0 0
SMALL
GASTEIGER

@<TRIPOS>ATOM
      1 C           1.1387   -0.0236   20.9353 C.ar    1  UNL1        0.0506
      2 C           1.6510   -0.9347   19.8595 C.ar    1  UNL1        0.0144
      3 C           2.8769   -1.7647   20.1007 C.ar    1  UNL1       -0.0030
      4 C           3.5904   -1.6836   21.4176 C.ar    1  UNL1       -0.0223
      5 C           3.0781   -0.7725   22.4934 C.ar    1  UNL1       -0.0030
      6 C           1.8522    0.0575   22.2522 C.ar    1  UNL1        0.0144
      7 C           4.8164   -2.5137   21.6587 C.3     1  UNL1        0.0257
      8 C           5.0110   -3.1979   22.9793 C.3     1  UNL1        0.0259
      9 C           6.2370   -4.0280   23.2204 C.3     1  UNL1        0.0937
     10 N           7.2682   -4.1739   22.1409 N.am    1  UNL1       -0.2795
     11 C           8.4941   -5.0040   22.3820 C.2     1  UNL1        0.2251
     12 O           9.5253   -5.1498   21.3025 O.2     1  UNL1       -0.2749
     13 C           7.0735   -3.4897   20.8203 C.3     1  UNL1        0.0937
     14 C           5.8476   -2.6596   20.5792 C.3     1  UNL1        0.0259
     15 C           8.6888   -5.6881   23.7026 C.3     1  UNL1        0.0767
     16 C           9.2470   -4.9254   24.8673 C.3     1  UNL1        0.0094
     17 C           9.4417   -5.6097   26.1880 C.3     1  UNL1        0.0060
     18 C           9.0781   -7.0566   26.3438 C.3     1  UNL1        0.0366
     19 C           8.5199   -7.8193   25.1790 C.3     1  UNL1        0.0060
     20 C           8.3252   -7.1351   23.8584 C.3     1  UNL1        0.0094
     21 C           9.2728   -7.7408   27.6643 C.2     1  UNL1        0.0500
     22 O           9.3976   -6.9280   28.9189 O.co2   1  UNL1       -0.5492
     23 O           9.3426   -9.2377   27.7304 O.co2   1  UNL1       -0.5492
     24 O           1.3753    2.9534   20.6490 O.2     1  UNL1       -0.2681
     25 C           0.0310    2.2950   20.5510 C.2     1  UNL1        0.2703
     26 N          -0.0873    0.8066   20.6941 N.am    1  UNL1       -0.2791
     27 H          -0.9695    0.3744   20.6298 H       1  UNL1        0.1552
     28 C          -1.1949    3.1251   20.3099 C.ar    1  UNL1        0.1763
     29 N          -2.4064    3.1852   21.1922 N.ar    1  UNL1       -0.2037
     30 C          -3.3849    4.1381   20.5718 C.ar    1  UNL1        0.2298
     31 O          -2.7779    4.6668   19.3060 O.2     1  UNL1       -0.4304
     32 C          -1.4245    4.0407   19.1442 C.ar    1  UNL1        0.2404
     33 C          -4.7334    4.4988   21.1207 C.ar    1  UNL1        0.0536
     34 C          -5.3206    3.7046   22.2496 C.ar    1  UNL1        0.0046
     35 C          -6.6691    4.0653   22.7985 C.ar    1  UNL1        0.0002
     36 C          -7.4304    5.2204   22.2186 C.ar    1  UNL1        0.0000
     37 C          -6.8431    6.0147   21.0897 C.ar    1  UNL1        0.0002
     38 C          -5.4946    5.6539   20.5408 C.ar    1  UNL1        0.0046
     39 C          -0.4684    4.2870   18.0149 C.3     1  UNL1        0.4528
     40 F           0.4876    4.5332   16.8856 F       1  UNL1       -0.1631
     41 F          -1.2256    3.3131   17.1615 F       1  UNL1       -0.1631
     42 F           0.2888    5.2609   18.8682 F       1  UNL1       -0.1631
@<TRIPOS>UNITY_ATOM_ATTR
22 1
charge -1
@<TRIPOS>BOND
     1    24    25    2
     2    25    26   am
     3    26     1    1
     4     1     2   ar
     5     2     3   ar
     6     3     4   ar
     7     4     7    1
     8     7     8    1
     9     8     9    1
    10     9    10    1
    11    10    11   am
    12    11    12    2
    13    15    11    1
    14    15    16    1
    15    16    17    1
    16    17    18    1
    17    18    21    1
    18    21    22   ar
    19    21    23   ar
    20    18    19    1
    21    19    20    1
    22    10    13    1
    23    13    14    1
    24     4     5   ar
    25     5     6   ar
    26    25    28    1
    27    28    29   ar
    28    29    30   ar
    29    30    33    1
    30    33    34   ar
    31    34    35   ar
    32    35    36   ar
    33    36    37   ar
    34    37    38   ar
    35    30    31   ar
    36    31    32   ar
    37    32    39    1
    38    39    40    1
    39    39    41    1
    40    39    42    1
    41     6     1   ar
    42    32    28   ar
    43    14     7    1
    44    38    33   ar
    45    20    15    1
    46    26    27    1
@<TRIPOS>MOLECULE
*****
 42 46 0 0 0
SMALL
GASTEIGER

@<TRIPOS>ATOM
      1 C           5.4893   -2.0642   28.3591 C.ar    1  UNL1        0.0506
      2 C           4.6612   -0.8384   28.6071 C.ar    1  UNL1        0.0144
      3 C           4.6993   -0.1662   29.9475 C.ar    1  UNL1       -0.0030
      4 C           5.5654   -0.7199   31.0399 C.ar    1  UNL1       -0.0223
      5 C           6.3935   -1.9457   30.7919 C.ar    1  UNL1       -0.0030
      6 C           6.3555   -2.6179   29.4515 C.ar    1  UNL1        0.0144
      7 C           5.6034   -0.0476   32.3803 C.3     1  UNL1        0.0257
      8 C           4.3595    0.0326   33.2147 C.3     1  UNL1        0.0259
      9 C           4.3975    0.7048   34.5551 C.3     1  UNL1        0.0937
     10 N           5.6795    1.2968   35.0612 N.am    1  UNL1       -0.2795
     11 C           5.7175    1.9690   36.4015 C.2     1  UNL1        0.2251
     12 O           6.9995    2.5610   36.9076 O.2     1  UNL1       -0.2749
     13 C           6.9235    1.2165   34.2268 C.3     1  UNL1        0.0937
     14 C           6.8854    0.5443   32.8864 C.3     1  UNL1        0.0259
     15 C           4.4736    2.0492   37.2359 C.3     1  UNL1        0.0767
     16 C           3.9969    0.8431   37.9895 C.3     1  UNL1        0.0094
     17 C           2.7529    0.9233   38.8238 C.3     1  UNL1        0.0060
     18 C           1.9857    2.2097   38.9046 C.3     1  UNL1        0.0366
     19 C           2.4624    3.4159   38.1510 C.3     1  UNL1        0.0060
     20 C           3.7063    3.3357   37.3167 C.3     1  UNL1        0.0094
     21 C           0.7417    2.2899   39.7389 C.2     1  UNL1        0.0500
     22 O          -0.6010    2.0735   39.1062 O.co2   1  UNL1       -0.5492
     23 O           0.8405    2.5866   41.2060 O.co2   1  UNL1       -0.5492
     24 O           7.7983   -1.7685   26.4667 O.2     1  UNL1       -0.2681
     25 C           6.6058   -2.5886   26.0725 C.2     1  UNL1        0.2703
     26 N           5.4513   -2.7364   27.0186 N.am    1  UNL1       -0.2791
     27 H           4.6686   -3.2747   26.7599 H       1  UNL1        0.1552
     28 C           6.5678   -3.2608   24.7320 C.ar    1  UNL1        0.1763
     29 N           5.9695   -2.6945   23.4785 N.ar    1  UNL1       -0.2037
     30 C           6.1533   -3.7010   22.3815 C.ar    1  UNL1        0.2298
     31 O           6.8652   -4.8893   22.9572 O.2     1  UNL1       -0.4304
     32 C           7.1214   -4.6172   24.4099 C.ar    1  UNL1        0.2404
     33 C           5.7041   -3.5465   20.9587 C.ar    1  UNL1        0.0536
     34 C           4.3748   -4.0921   20.5284 C.ar    1  UNL1        0.0046
     35 C           3.9256   -3.9375   19.1056 C.ar    1  UNL1        0.0002
     36 C           4.8057   -3.2373   18.1132 C.ar    1  UNL1        0.0000
     37 C           6.1351   -2.6916   18.5435 C.ar    1  UNL1        0.0002
     38 C           6.5842   -2.8462   19.9662 C.ar    1  UNL1        0.0046
     39 C           7.8101   -5.5394   25.3716 C.3     1  UNL1        0.4528
     40 F           8.4990   -6.4617   26.3333 F       1  UNL1       -0.1631
     41 F           9.1341   -5.1889   24.7596 F       1  UNL1       -0.1631
     42 F           6.4863   -5.8900   25.9836 F       1  UNL1       -0.1631
@<TRIPOS>UNITY_ATOM_ATTR
22 1
charge -1
@<TRIPOS>BOND
     1    24    25    2
     2    25    26   am
     3    26     1    1
     4     1     2   ar
     5     2     3   ar
     6     3     4   ar
     7     4     7    1
     8     7     8    1
     9     8     9    1
    10     9    10    1
    11    10    11   am
    12    11    12    2
    13    15    11    1
    14    15    16    1
    15    16    17    1
    16    17    18    1
    17    18    21    1
    18    21    22   ar
    19    21    23   ar
    20    18    19    1
    21    19    20    1
    22    10    13    1
    23    13    14    1
    24     4     5   ar
    25     5     6   ar
    26    25    28    1
    27    28    29   ar
    28    29    30   ar
    29    30    33    1
    30    33    34   ar
    31    34    35   ar
    32    35    36   ar
    33    36    37   ar
    34    37    38   ar
    35    30    31   ar
    36    31    32   ar
    37    32    39    1
    38    39    40    1
    39    39    41    1
    40    39    42    1
    41     6     1   ar
    42    32    28   ar
    43    14     7    1
    44    38    33   ar
    45    20    15    1
    46    26    27    1
@<TRIPOS>MOLECULE
*****
 42 46 0 0 0
SMALL
GASTEIGER

@<TRIPOS>ATOM
      1 C           2.2395    0.7757   30.2697 C.ar    1  UNL1        0.0506
      2 C           2.6004   -0.3525   29.3495 C.ar    1  UNL1        0.0144
      3 C           2.3016   -0.2491   27.8832 C.ar    1  UNL1       -0.0030
      4 C           1.6420    0.9824   27.3372 C.ar    1  UNL1       -0.0223
      5 C           1.2811    2.1106   28.2575 C.ar    1  UNL1       -0.0030
      6 C           1.5799    2.0072   29.7237 C.ar    1  UNL1        0.0144
      7 C           1.3432    1.0858   25.8708 C.3     1  UNL1        0.0257
      8 C           2.3132    0.5364   24.8673 C.3     1  UNL1        0.0259
      9 C           2.0144    0.6398   23.4009 C.3     1  UNL1        0.0937
     10 N           0.7456    1.2925   22.9382 N.am    1  UNL1       -0.2795
     11 C           0.4468    1.3959   21.4720 C.2     1  UNL1        0.2251
     12 O          -0.8220    2.0486   21.0093 O.2     1  UNL1       -0.2749
     13 C          -0.2244    1.8419   23.9419 C.3     1  UNL1        0.0937
     14 C           0.0744    1.7385   25.4082 C.3     1  UNL1        0.0259
     15 C           1.4168    0.8465   20.4684 C.3     1  UNL1        0.0767
     16 C           1.6484   -0.6329   20.3810 C.3     1  UNL1        0.0094
     17 C           2.6185   -1.1822   19.3773 C.3     1  UNL1        0.0060
     18 C           3.3569   -0.2521   18.4611 C.3     1  UNL1        0.0366
     19 C           3.1254    1.2273   18.5485 C.3     1  UNL1        0.0060
     20 C           2.1554    1.7766   19.5521 C.3     1  UNL1        0.0094
     21 C           4.3270   -0.8015   17.4575 C.2     1  UNL1        0.0500
     22 O           5.7727   -0.9642   17.8230 O.co2   1  UNL1       -0.5492
     23 O           3.8514   -1.1881   16.0885 O.co2   1  UNL1       -0.5492
     24 O           5.0451    1.1610   31.2598 O.2     1  UNL1       -0.2681
     25 C           3.9411    0.8650   32.2311 C.2     1  UNL1        0.2703
     26 N           2.5383    0.6723   31.7361 N.am    1  UNL1       -0.2791
     27 H           1.8137    0.4780   32.3736 H       1  UNL1        0.1552
     28 C           4.2399    0.7617   33.6975 C.ar    1  UNL1        0.1763
     29 N           4.0802    1.8576   34.7091 N.ar    1  UNL1       -0.2037
     30 C           4.4924    1.3176   36.0465 C.ar    1  UNL1        0.2298
     31 O           4.9068   -0.1122   35.8613 O.2     1  UNL1       -0.4304
     32 C           4.7507   -0.4557   34.4095 C.ar    1  UNL1        0.2404
     33 C           4.4905    2.0743   37.3416 C.ar    1  UNL1        0.0536
     34 C           3.2626    2.8203   37.7726 C.ar    1  UNL1        0.0046
     35 C           3.2608    3.5771   39.0676 C.ar    1  UNL1        0.0002
     36 C           4.4868    3.5878   39.9317 C.ar    1  UNL1        0.0000
     37 C           5.7147    2.8418   39.5008 C.ar    1  UNL1        0.0002
     38 C           5.7166    2.0851   38.2057 C.ar    1  UNL1        0.0046
     39 C           5.0524   -1.7834   33.7803 C.3     1  UNL1        0.4528
     40 F           5.3543   -3.1112   33.1510 F       1  UNL1       -0.1631
     41 F           6.3222   -1.2245   33.2098 F       1  UNL1       -0.1631
     42 F           3.7827   -2.3424   34.3507 F       1  UNL1       -0.1631
@<TRIPOS>UNITY_ATOM_ATTR
22 1
charge -1
@<TRIPOS>BOND
     1    24    25    2
     2    25    26   am
     3    26     1    1
     4     1     2   ar
     5     2     3   ar
     6     3     4   ar
     7     4     7    1
     8     7     8    1
     9     8     9    1
    10     9    10    1
    11    10    11   am
    12    11    12    2
    13    15    11    1
    14    15    16    1
    15    16    17    1
    16    17    18    1
    17    18    21    1
    18    21    22   ar
    19    21    23   ar
    20    18    19    1
    21    19    20    1
    22    10    13    1
    23    13    14    1
    24     4     5   ar
    25     5     6   ar
    26    25    28    1
    27    28    29   ar
    28    29    30   ar
    29    30    33    1
    30    33    34   ar
    31    34    35   ar
    32    35    36   ar
    33    36    37   ar
    34    37    38   ar
    35    30    31   ar
    36    31    32   ar
    37    32    39    1
    38    39    40    1
    39    39    41    1
    40    39    42    1
    41     6     1   ar
    42    32    28   ar
    43    14     7    1
    44    38    33   ar
    45    20    15    1
    46    26    27    1
@<TRIPOS>MOLECULE
*****
 42 46 0 0 0
SMALL
GASTEIGER

@<TRIPOS>ATOM
      1 C          -0.9097    2.2760   27.5569 C.ar    1  UNL1        0.0506
      2 C          -0.9618    0.8451   28.0038 C.ar    1  UNL1        0.0144
      3 C           0.0066    0.3456   29.0347 C.ar    1  UNL1       -0.0030
      4 C           1.0271    1.2771   29.6186 C.ar    1  UNL1       -0.0223
      5 C           1.0791    2.7080   29.1717 C.ar    1  UNL1       -0.0030
      6 C           0.1107    3.2074   28.1408 C.ar    1  UNL1        0.0144
      7 C           1.9955    0.7776   30.6495 C.3     1  UNL1        0.0257
      8 C           2.2411    1.5746   31.8963 C.3     1  UNL1        0.0259
      9 C           3.2095    1.0752   32.9272 C.3     1  UNL1        0.0937
     10 N           3.9324   -0.2213   32.7113 N.am    1  UNL1       -0.2795
     11 C           4.9007   -0.7208   33.7421 C.2     1  UNL1        0.2251
     12 O           5.6236   -2.0173   33.5262 O.2     1  UNL1       -0.2749
     13 C           3.6867   -1.0184   31.4645 C.3     1  UNL1        0.0937
     14 C           2.7183   -0.5189   30.4336 C.3     1  UNL1        0.0259
     15 C           5.1463    0.0762   34.9889 C.3     1  UNL1        0.0767
     16 C           6.2141    1.1295   35.0076 C.3     1  UNL1        0.0094
     17 C           6.4597    1.9265   36.2544 C.3     1  UNL1        0.0060
     18 C           5.6374    1.6702   37.4825 C.3     1  UNL1        0.0366
     19 C           4.5696    0.6169   37.4638 C.3     1  UNL1        0.0060
     20 C           4.3241   -0.1801   36.2170 C.3     1  UNL1        0.0094
     21 C           5.8830    2.4672   38.7292 C.2     1  UNL1        0.0500
     22 O           7.0279    3.4346   38.7876 O.co2   1  UNL1       -0.5492
     23 O           4.9837    2.2968   39.9176 O.co2   1  UNL1       -0.5492
     24 O          -0.0646    2.4958   24.6868 O.2     1  UNL1       -0.2681
     25 C          -1.4556    2.8854   25.0910 C.2     1  UNL1        0.2703
     26 N          -1.8782    2.7754   26.5260 N.am    1  UNL1       -0.2791
     27 H          -2.7911    3.0311   26.7912 H       1  UNL1        0.1552
     28 C          -2.4240    3.3848   24.0600 C.ar    1  UNL1        0.1763
     29 N          -2.3575    3.1180   22.5855 N.ar    1  UNL1       -0.2037
     30 C          -3.5213    3.8071   21.9368 C.ar    1  UNL1        0.2298
     31 O          -4.3071    4.4998   23.0105 O.2     1  UNL1       -0.4304
     32 C          -3.6289    4.2388   24.3227 C.ar    1  UNL1        0.2404
     33 C          -3.8429    3.8040   20.4717 C.ar    1  UNL1        0.0536
     34 C          -5.2395    3.5086   20.0110 C.ar    1  UNL1        0.0046
     35 C          -5.5611    3.5056   18.5459 C.ar    1  UNL1        0.0002
     36 C          -4.4861    3.7979   17.5415 C.ar    1  UNL1        0.0000
     37 C          -3.0895    4.0933   18.0022 C.ar    1  UNL1        0.0002
     38 C          -2.7679    4.0963   19.4673 C.ar    1  UNL1        0.0046
     39 C          -4.0769    4.7432   25.6624 C.3     1  UNL1        0.4528
     40 F          -4.5250    5.2475   27.0022 F       1  UNL1       -0.1631
     41 F          -5.0883    3.6380   25.7403 F       1  UNL1       -0.1631
     42 F          -3.0656    5.8483   25.5847 F       1  UNL1       -0.1631
@<TRIPOS>UNITY_ATOM_ATTR
22 1
charge -1
@<TRIPOS>BOND
     1    24    25    2
     2    25    26   am
     3    26     1    1
     4     1     2   ar
     5     2     3   ar
     6     3     4   ar
     7     4     7    1
     8     7     8    1
     9     8     9    1
    10     9    10    1
    11    10    11   am
    12    11    12    2
    13    15    11    1
    14    15    16    1
    15    16    17    1
    16    17    18    1
    17    18    21    1
    18    21    22   ar
    19    21    23   ar
    20    18    19    1
    21    19    20    1
    22    10    13    1
    23    13    14    1
    24     4     5   ar
    25     5     6   ar
    26    25    28    1
    27    28    29   ar
    28    29    30   ar
    29    30    33    1
    30    33    34   ar
    31    34    35   ar
    32    35    36   ar
    33    36    37   ar
    34    37    38   ar
    35    30    31   ar
    36    31    32   ar
    37    32    39    1
    38    39    40    1
    39    39    41    1
    40    39    42    1
    41     6     1   ar
    42    32    28   ar
    43    14     7    1
    44    38    33   ar
    45    20    15    1
    46    26    27    1
@<TRIPOS>MOLECULE
*****
 42 46 0 0 0
SMALL
GASTEIGER

@<TRIPOS>ATOM
      1 C          -0.3019    3.0019   26.7900 C.ar    1  UNL1        0.0506
      2 C          -0.3716    4.3362   27.4716 C.ar    1  UNL1        0.0144
      3 C           0.2514    4.5212   28.8235 C.ar    1  UNL1       -0.0030
      4 C           0.9442    3.3719   29.4937 C.ar    1  UNL1       -0.0223
      5 C           1.0139    2.0376   28.8121 C.ar    1  UNL1       -0.0030
      6 C           0.3908    1.8526   27.4602 C.ar    1  UNL1        0.0144
      7 C           1.5673    3.5570   30.8456 C.3     1  UNL1        0.0257
      8 C           1.0081    2.8333   32.0345 C.3     1  UNL1        0.0259
      9 C           1.6312    3.0184   33.3865 C.3     1  UNL1        0.0937
     10 N           2.8134    3.9272   33.5493 N.am    1  UNL1       -0.2795
     11 C           3.4364    4.1123   34.9012 C.2     1  UNL1        0.2251
     12 O           4.6186    5.0210   35.0641 O.2     1  UNL1       -0.2749
     13 C           3.3725    4.6509   32.3603 C.3     1  UNL1        0.0937
     14 C           2.7494    4.4658   31.0085 C.3     1  UNL1        0.0259
     15 C           2.8773    3.3886   36.0901 C.3     1  UNL1        0.0767
     16 C           3.4151    2.0404   36.4686 C.3     1  UNL1        0.0094
     17 C           2.8559    1.3168   37.6576 C.3     1  UNL1        0.0060
     18 C           1.7590    1.9412   38.4681 C.3     1  UNL1        0.0366
     19 C           1.2212    3.2894   38.0895 C.3     1  UNL1        0.0060
     20 C           1.7804    4.0131   36.9006 C.3     1  UNL1        0.0094
     21 C           1.1999    1.2176   39.6570 C.2     1  UNL1        0.0500
     22 O           0.7461    1.9901   40.8601 O.co2   1  UNL1       -0.5492
     23 O           1.0944   -0.2787   39.6429 O.co2   1  UNL1       -0.5492
     24 O           1.1576    3.9046   24.3293 O.2     1  UNL1       -0.2681
     25 C          -0.1952    3.2681   24.2078 C.2     1  UNL1        0.2703
     26 N          -0.9250    2.8168   25.4381 N.am    1  UNL1       -0.2791
     27 H          -1.8129    2.3991   25.3583 H       1  UNL1        0.1552
     28 C          -0.8183    3.0830   22.8559 C.ar    1  UNL1        0.1763
     29 N          -2.1602    3.5971   22.4258 N.ar    1  UNL1       -0.2037
     30 C          -2.3801    3.1832   21.0008 C.ar    1  UNL1        0.2298
     31 O          -1.1741    2.4134   20.5503 O.2     1  UNL1       -0.4304
     32 C          -0.2088    2.3515   21.6968 C.ar    1  UNL1        0.2404
     33 C          -3.5931    3.4860   20.1719 C.ar    1  UNL1        0.0536
     34 C          -4.9608    3.3858   20.7795 C.ar    1  UNL1        0.0046
     35 C          -6.1738    3.6886   19.9506 C.ar    1  UNL1        0.0002
     36 C          -6.0189    4.0915   18.5141 C.ar    1  UNL1        0.0000
     37 C          -4.6511    4.1917   17.9065 C.ar    1  UNL1        0.0002
     38 C          -3.4382    3.8889   18.7354 C.ar    1  UNL1        0.0046
     39 C           1.1307    1.6766   21.6862 C.3     1  UNL1        0.4528
     40 F           2.4701    1.0015   21.6756 F       1  UNL1       -0.1631
     41 F           0.4750    0.3700   22.0227 F       1  UNL1       -0.1631
     42 F           1.7864    2.9830   21.3498 F       1  UNL1       -0.1631
@<TRIPOS>UNITY_ATOM_ATTR
22 1
charge -1
@<TRIPOS>BOND
     1    24    25    2
     2    25    26   am
     3    26     1    1
     4     1     2   ar
     5     2     3   ar
     6     3     4   ar
     7     4     7    1
     8     7     8    1
     9     8     9    1
    10     9    10    1
    11    10    11   am
    12    11    12    2
    13    15    11    1
    14    15    16    1
    15    16    17    1
    16    17    18    1
    17    18    21    1
    18    21    22   ar
    19    21    23   ar
    20    18    19    1
    21    19    20    1
    22    10    13    1
    23    13    14    1
    24     4     5   ar
    25     5     6   ar
    26    25    28    1
    27    28    29   ar
    28    29    30   ar
    29    30    33    1
    30    33    34   ar
    31    34    35   ar
    32    35    36   ar
    33    36    37   ar
    34    37    38   ar
    35    30    31   ar
    36    31    32   ar
    37    32    39    1
    38    39    40    1
    39    39    41    1
    40    39    42    1
    41     6     1   ar
    42    32    28   ar
    43    14     7    1
    44    38    33   ar
    45    20    15    1
    46    26    27    1
@<TRIPOS>MOLECULE
*****
 42 46 0 0 0
SMALL
GASTEIGER

@<TRIPOS>ATOM
      1 C           4.3940    0.0883   29.0968 C.ar    1  UNL1        0.0506
      2 C           4.4508   -1.2178   28.3615 C.ar    1  UNL1        0.0144
      3 C           4.1587   -1.2639   26.8910 C.ar    1  UNL1       -0.0030
      4 C           3.8097   -0.0038   26.1558 C.ar    1  UNL1       -0.0223
      5 C           3.7529    1.3023   26.8911 C.ar    1  UNL1       -0.0030
      6 C           4.0451    1.3484   28.3616 C.ar    1  UNL1        0.0144
      7 C           3.5175   -0.0500   24.6852 C.3     1  UNL1        0.0257
      8 C           3.0184    1.1767   23.9808 C.3     1  UNL1        0.0259
      9 C           2.7262    1.1306   22.5102 C.3     1  UNL1        0.0937
     10 N           2.9332   -0.1423   21.7441 N.am    1  UNL1       -0.2795
     11 C           2.6411   -0.1885   20.2735 C.2     1  UNL1        0.2251
     12 O           2.8480   -1.4613   19.5074 O.2     1  UNL1       -0.2749
     13 C           3.4323   -1.3690   22.4485 C.3     1  UNL1        0.0937
     14 C           3.7245   -1.3228   23.9190 C.3     1  UNL1        0.0259
     15 C           2.1420    1.0382   19.5692 C.3     1  UNL1        0.0767
     16 C           3.1154    2.0624   19.0660 C.3     1  UNL1        0.0094
     17 C           2.6162    3.2892   18.3616 C.3     1  UNL1        0.0060
     18 C           1.1437    3.4916   18.1605 C.3     1  UNL1        0.0366
     19 C           0.1702    2.4673   18.6637 C.3     1  UNL1        0.0060
     20 C           0.6693    1.2406   19.3681 C.3     1  UNL1        0.0094
     21 C           0.6446    4.7182   17.4562 C.2     1  UNL1        0.0500
     22 O           1.2585    6.0547   17.7513 O.co2   1  UNL1       -0.5492
     23 O          -0.4685    4.6085   16.4566 O.co2   1  UNL1       -0.5492
     24 O           2.2382   -0.5716   31.0760 O.2     1  UNL1       -0.2681
     25 C           3.6083   -0.1955   31.5569 C.2     1  UNL1        0.2703
     26 N           4.6862    0.1345   30.5674 N.am    1  UNL1       -0.2791
     27 H           5.5855    0.3813   30.8831 H       1  UNL1        0.1552
     28 C           3.9005   -0.1494   33.0275 C.ar    1  UNL1        0.1763
     29 N           3.5286    0.9603   33.9659 N.ar    1  UNL1       -0.2037
     30 C           4.0141    0.5907   35.3362 C.ar    1  UNL1        0.2298
     31 O           4.6861   -0.7473   35.2447 O.2     1  UNL1       -0.4304
     32 C           4.6158   -1.2046   33.8179 C.ar    1  UNL1        0.2404
     33 C           3.8555    1.4145   36.5797 C.ar    1  UNL1        0.0536
     34 C           4.8243    1.2548   37.7138 C.ar    1  UNL1        0.0046
     35 C           4.6657    2.0786   38.9572 C.ar    1  UNL1        0.0002
     36 C           3.5383    3.0620   39.0666 C.ar    1  UNL1        0.0000
     37 C           2.5696    3.2216   37.9326 C.ar    1  UNL1        0.0002
     38 C           2.7282    2.3979   36.6891 C.ar    1  UNL1        0.0046
     39 C           5.1646   -2.4913   33.2764 C.3     1  UNL1        0.4528
     40 F           5.7132   -3.7781   32.7349 F       1  UNL1       -0.1631
     41 F           3.9626   -3.2228   33.7964 F       1  UNL1       -0.1631
     42 F           6.3665   -1.7600   32.7564 F       1  UNL1       -0.1631
@<TRIPOS>UNITY_ATOM_ATTR
22 1
charge -1
@<TRIPOS>BOND
     1    24    25    2
     2    25    26   am
     3    26     1    1
     4     1     2   ar
     5     2     3   ar
     6     3     4   ar
     7     4     7    1
     8     7     8    1
     9     8     9    1
    10     9    10    1
    11    10    11   am
    12    11    12    2
    13    15    11    1
    14    15    16    1
    15    16    17    1
    16    17    18    1
    17    18    21    1
    18    21    22   ar
    19    21    23   ar
    20    18    19    1
    21    19    20    1
    22    10    13    1
    23    13    14    1
    24     4     5   ar
    25     5     6   ar
    26    25    28    1
    27    28    29   ar
    28    29    30   ar
    29    30    33    1
    30    33    34   ar
    31    34    35   ar
    32    35    36   ar
    33    36    37   ar
    34    37    38   ar
    35    30    31   ar
    36    31    32   ar
    37    32    39    1
    38    39    40    1
    39    39    41    1
    40    39    42    1
    41     6     1   ar
    42    32    28   ar
    43    14     7    1
    44    38    33   ar
    45    20    15    1
    46    26    27    1
@<TRIPOS>MOLECULE
*****
 42 46 0 0 0
SMALL
GASTEIGER

@<TRIPOS>ATOM
      1 C           0.7261    2.5184   28.9167 C.ar    1  UNL1        0.0506
      2 C           0.4605    3.9545   28.5749 C.ar    1  UNL1        0.0144
      3 C          -0.5776    4.3017   27.5494 C.ar    1  UNL1       -0.0030
      4 C          -1.3500    3.2128   26.8656 C.ar    1  UNL1       -0.0223
      5 C          -1.0844    1.7766   27.2073 C.ar    1  UNL1       -0.0030
      6 C          -0.0463    1.4294   28.2329 C.ar    1  UNL1        0.0144
      7 C          -2.3882    3.5601   25.8400 C.3     1  UNL1        0.0257
      8 C          -2.0236    3.5936   24.3854 C.3     1  UNL1        0.0259
      9 C          -3.0618    3.9409   23.3598 C.3     1  UNL1        0.0937
     10 N          -4.4644    4.2546   23.7889 N.am    1  UNL1       -0.2795
     11 C          -5.5025    4.6019   22.7634 C.2     1  UNL1        0.2251
     12 O          -6.9052    4.9156   23.1926 O.2     1  UNL1       -0.2749
     13 C          -4.8289    4.2211   25.2436 C.3     1  UNL1        0.0937
     14 C          -3.7908    3.8738   26.2691 C.3     1  UNL1        0.0259
     15 C          -5.1380    4.6354   21.3088 C.3     1  UNL1        0.0767
     16 C          -4.5531    5.8805   20.7107 C.3     1  UNL1        0.0094
     17 C          -4.1886    5.9140   19.2560 C.3     1  UNL1        0.0060
     18 C          -4.4089    4.7025   18.3995 C.3     1  UNL1        0.0366
     19 C          -4.9938    3.4574   18.9977 C.3     1  UNL1        0.0060
     20 C          -5.3583    3.4239   20.4523 C.3     1  UNL1        0.0094
     21 C          -4.0444    4.7360   16.9449 C.2     1  UNL1        0.0500
     22 O          -3.9008    3.4549   16.1779 O.co2   1  UNL1       -0.5492
     23 O          -3.8233    6.0506   16.2572 O.co2   1  UNL1       -0.5492
     24 O          -0.1086    1.7222   31.6860 O.2     1  UNL1       -0.2681
     25 C           1.3469    1.7730   31.3269 C.2     1  UNL1        0.2703
     26 N           1.7643    2.1711   29.9422 N.am    1  UNL1       -0.2791
     27 H           2.7196    2.2044   29.7065 H       1  UNL1        0.1552
     28 C           2.3851    1.4257   32.3525 C.ar    1  UNL1        0.1763
     29 N           2.4491    1.9526   33.7554 N.ar    1  UNL1       -0.2037
     30 C           3.6450    1.3431   34.4252 C.ar    1  UNL1        0.2298
     31 O           4.3199    0.4396   33.4361 O.2     1  UNL1       -0.4304
     32 C           3.5412    0.4907   32.1551 C.ar    1  UNL1        0.2404
     33 C           4.0882    1.5932   35.8363 C.ar    1  UNL1        0.0536
     34 C           5.5508    1.6394   36.1661 C.ar    1  UNL1        0.0046
     35 C           5.9939    1.8895   37.5771 C.ar    1  UNL1        0.0002
     36 C           4.9744    2.0935   38.6583 C.ar    1  UNL1        0.0000
     37 C           3.5119    2.0473   38.3285 C.ar    1  UNL1        0.0002
     38 C           3.0687    1.7972   36.9175 C.ar    1  UNL1        0.0046
     39 C           3.8622   -0.2612   30.8976 C.3     1  UNL1        0.4528
     40 F           4.1832   -1.0132   29.6400 F       1  UNL1       -0.1631
     41 F           2.7362   -1.2117   31.1784 F       1  UNL1       -0.1631
     42 F           4.9882    0.6891   30.6167 F       1  UNL1       -0.1631
@<TRIPOS>UNITY_ATOM_ATTR
22 1
charge -1
@<TRIPOS>BOND
     1    24    25    2
     2    25    26   am
     3    26     1    1
     4     1     2   ar
     5     2     3   ar
     6     3     4   ar
     7     4     7    1
     8     7     8    1
     9     8     9    1
    10     9    10    1
    11    10    11   am
    12    11    12    2
    13    15    11    1
    14    15    16    1
    15    16    17    1
    16    17    18    1
    17    18    21    1
    18    21    22   ar
    19    21    23   ar
    20    18    19    1
    21    19    20    1
    22    10    13    1
    23    13    14    1
    24     4     5   ar
    25     5     6   ar
    26    25    28    1
    27    28    29   ar
    28    29    30   ar
    29    30    33    1
    30    33    34   ar
    31    34    35   ar
    32    35    36   ar
    33    36    37   ar
    34    37    38   ar
    35    30    31   ar
    36    31    32   ar
    37    32    39    1
    38    39    40    1
    39    39    41    1
    40    39    42    1
    41     6     1   ar
    42    32    28   ar
    43    14     7    1
    44    38    33   ar
    45    20    15    1
    46    26    27    1
@<TRIPOS>MOLECULE
*****
 42 46 0 0 0
SMALL
GASTEIGER

@<TRIPOS>ATOM
      1 C          -0.0018    1.8540   26.3362 C.ar    1  UNL1        0.0506
      2 C           1.4665    1.7361   26.0534 C.ar    1  UNL1        0.0144
      3 C           2.4340    1.5362   27.1821 C.ar    1  UNL1       -0.0030
      4 C           1.9331    1.4541   28.5936 C.ar    1  UNL1       -0.0223
      5 C           0.4647    1.5720   28.8764 C.ar    1  UNL1       -0.0030
      6 C          -0.5027    1.7719   27.7477 C.ar    1  UNL1        0.0144
      7 C           2.9006    1.2542   29.7224 C.3     1  UNL1        0.0257
      8 C           2.4555    1.4687   31.1386 C.3     1  UNL1        0.0259
      9 C           3.4231    1.2688   32.2674 C.3     1  UNL1        0.0937
     10 N           4.8357    0.8543   31.9797 N.am    1  UNL1       -0.2795
     11 C           5.8032    0.6544   33.1084 C.2     1  UNL1        0.2251
     12 O           7.2158    0.2400   32.8208 O.2     1  UNL1       -0.2749
     13 C           5.2808    0.6398   30.5634 C.3     1  UNL1        0.0937
     14 C           4.3132    0.8398   29.4348 C.3     1  UNL1        0.0259
     15 C           5.3581    0.8689   34.5246 C.3     1  UNL1        0.0767
     16 C           5.3329    2.2534   35.1014 C.3     1  UNL1        0.0094
     17 C           4.8878    2.4679   36.5177 C.3     1  UNL1        0.0060
     18 C           4.4679    1.2979   37.3572 C.3     1  UNL1        0.0366
     19 C           4.4930   -0.0865   36.7805 C.3     1  UNL1        0.0060
     20 C           4.9381   -0.3011   35.3642 C.3     1  UNL1        0.0094
     21 C           4.0228    1.5124   38.7735 C.2     1  UNL1        0.0500
     22 O           2.7175    0.9423   39.2440 O.co2   1  UNL1       -0.5492
     23 O           4.8829    2.2971   39.7193 O.co2   1  UNL1       -0.5492
     24 O          -0.5170    4.6114   25.2727 O.2     1  UNL1       -0.2681
     25 C          -1.2269    3.4326   24.6758 C.2     1  UNL1        0.2703
     26 N          -0.9694    2.0539   25.2075 N.am    1  UNL1       -0.2791
     27 H          -1.4353    1.2802   24.8157 H       1  UNL1        0.1552
     28 C          -2.1945    3.6325   23.5470 C.ar    1  UNL1        0.1763
     29 N          -1.8726    3.5473   22.0844 N.ar    1  UNL1       -0.2037
     30 C          -3.1329    3.8149   21.3162 C.ar    1  UNL1        0.2298
     31 O          -4.2336    4.0655   22.3040 O.2     1  UNL1       -0.4304
     32 C          -3.6536    3.9528   23.6827 C.ar    1  UNL1        0.2404
     33 C          -3.2687    3.8293   19.8224 C.ar    1  UNL1        0.0536
     34 C          -2.0525    3.9962   18.9603 C.ar    1  UNL1        0.0046
     35 C          -2.1883    4.0107   17.4666 C.ar    1  UNL1        0.0002
     36 C          -3.5402    3.8583   16.8349 C.ar    1  UNL1        0.0000
     37 C          -4.7564    3.6914   17.6970 C.ar    1  UNL1        0.0002
     38 C          -4.6206    3.6769   19.1907 C.ar    1  UNL1        0.0046
     39 C          -4.4013    4.1293   24.9710 C.3     1  UNL1        0.4528
     40 F          -5.1491    4.3057   26.2593 F       1  UNL1       -0.1631
     41 F          -5.0759    2.8060   24.7608 F       1  UNL1       -0.1631
     42 F          -3.7268    5.4524   25.1813 F       1  UNL1       -0.1631
@<TRIPOS>UNITY_ATOM_ATTR
22 1
charge -1
@<TRIPOS>BOND
     1    24    25    2
     2    25    26   am
     3    26     1    1
     4     1     2   ar
     5     2     3   ar
     6     3     4   ar
     7     4     7    1
     8     7     8    1
     9     8     9    1
    10     9    10    1
    11    10    11   am
    12    11    12    2
    13    15    11    1
    14    15    16    1
    15    16    17    1
    16    17    18    1
    17    18    21    1
    18    21    22   ar
    19    21    23   ar
    20    18    19    1
    21    19    20    1
    22    10    13    1
    23    13    14    1
    24     4     5   ar
    25     5     6   ar
    26    25    28    1
    27    28    29   ar
    28    29    30   ar
    29    30    33    1
    30    33    34   ar
    31    34    35   ar
    32    35    36   ar
    33    36    37   ar
    34    37    38   ar
    35    30    31   ar
    36    31    32   ar
    37    32    39    1
    38    39    40    1
    39    39    41    1
    40    39    42    1
    41     6     1   ar
    42    32    28   ar
    43    14     7    1
    44    38    33   ar
    45    20    15    1
    46    26    27    1
@<TRIPOS>MOLECULE
*****
 42 46 0 0 0
SMALL
GASTEIGER

@<TRIPOS>ATOM
      1 C           1.5806    1.2727   27.3349 C.ar    1  UNL1        0.0506
      2 C           2.6098    1.0005   28.3916 C.ar    1  UNL1        0.0144
      3 C           2.4999    1.6616   29.7335 C.ar    1  UNL1       -0.0030
      4 C           1.3607    2.5949   30.0187 C.ar    1  UNL1       -0.0223
      5 C           0.3315    2.8671   28.9620 C.ar    1  UNL1       -0.0030
      6 C           0.4415    2.2060   27.6201 C.ar    1  UNL1        0.0144
      7 C           1.2508    3.2560   31.3607 C.3     1  UNL1        0.0257
      8 C           2.1978    2.8805   32.4616 C.3     1  UNL1        0.0259
      9 C           2.0879    3.5416   33.8036 C.3     1  UNL1        0.0937
     10 N           1.0308    4.5782   34.0447 N.am    1  UNL1       -0.2795
     11 C           0.9209    5.2393   35.3866 C.2     1  UNL1        0.2251
     12 O          -0.1362    6.2759   35.6276 O.2     1  UNL1       -0.2749
     13 C           0.0837    4.9537   32.9437 C.3     1  UNL1        0.0937
     14 C           0.1937    4.2926   31.6018 C.3     1  UNL1        0.0259
     15 C           1.8679    4.8638   36.4875 C.3     1  UNL1        0.0767
     16 C           1.5581    3.6972   37.3780 C.3     1  UNL1        0.0094
     17 C           2.5053    3.3217   38.4790 C.3     1  UNL1        0.0060
     18 C           3.7622    4.1128   38.6893 C.3     1  UNL1        0.0366
     19 C           4.0720    5.2794   37.7987 C.3     1  UNL1        0.0060
     20 C           3.1250    5.6549   36.6979 C.3     1  UNL1        0.0094
     21 C           4.7093    3.7373   39.7902 C.2     1  UNL1        0.0500
     22 O           5.2216    4.7883   40.7299 O.co2   1  UNL1       -0.5492
     23 O           5.1441    2.3108   39.9514 O.co2   1  UNL1       -0.5492
     24 O           3.1033    2.6112   25.1235 O.2     1  UNL1       -0.2681
     25 C           2.4519    1.2808   24.8872 C.2     1  UNL1        0.2703
     26 N           1.6906    0.6116   25.9929 N.am    1  UNL1       -0.2791
     27 H           1.2631   -0.2616   25.8378 H       1  UNL1        0.1552
     28 C           2.5618    0.6197   23.5452 C.ar    1  UNL1        0.1763
     29 N           3.3344   -0.6288   23.2382 N.ar    1  UNL1       -0.2037
     30 C           3.1686   -0.9291   21.7778 C.ar    1  UNL1        0.2298
     31 O           2.2935    0.1339   21.1825 O.2     1  UNL1       -0.4304
     32 C           1.9185    1.0911   22.2748 C.ar    1  UNL1        0.2404
     33 C           3.7719   -2.0887   21.0421 C.ar    1  UNL1        0.0536
     34 C           3.1754   -2.5455   19.7438 C.ar    1  UNL1        0.0046
     35 C           3.7787   -3.7051   19.0081 C.ar    1  UNL1        0.0002
     36 C           4.9784   -4.4080   19.5707 C.ar    1  UNL1        0.0000
     37 C           5.5749   -3.9512   20.8690 C.ar    1  UNL1        0.0002
     38 C           4.9716   -2.7916   21.6047 C.ar    1  UNL1        0.0046
     39 C           1.0524    2.3063   22.1233 C.3     1  UNL1        0.4528
     40 F           0.1863    3.5215   21.9719 F       1  UNL1       -0.1631
     41 F           2.2770    3.1659   22.0161 F       1  UNL1       -0.1631
     42 F          -0.1723    1.4468   22.2305 F       1  UNL1       -0.1631
@<TRIPOS>UNITY_ATOM_ATTR
22 1
charge -1
@<TRIPOS>BOND
     1    24    25    2
     2    25    26   am
     3    26     1    1
     4     1     2   ar
     5     2     3   ar
     6     3     4   ar
     7     4     7    1
     8     7     8    1
     9     8     9    1
    10     9    10    1
    11    10    11   am
    12    11    12    2
    13    15    11    1
    14    15    16    1
    15    16    17    1
    16    17    18    1
    17    18    21    1
    18    21    22   ar
    19    21    23   ar
    20    18    19    1
    21    19    20    1
    22    10    13    1
    23    13    14    1
    24     4     5   ar
    25     5     6   ar
    26    25    28    1
    27    28    29   ar
    28    29    30   ar
    29    30    33    1
    30    33    34   ar
    31    34    35   ar
    32    35    36   ar
    33    36    37   ar
    34    37    38   ar
    35    30    31   ar
    36    31    32   ar
    37    32    39    1
    38    39    40    1
    39    39    41    1
    40    39    42    1
    41     6     1   ar
    42    32    28   ar
    43    14     7    1
    44    38    33   ar
    45    20    15    1
    46    26    27    1
