@<TRIPOS>MOLECULE
*****
 45 48 0 0 0
SMALL
GASTEIGER

@<TRIPOS>ATOM
      1 N           6.0234   -2.6429   19.7807 N.am    1  UNL1       -0.2724
      2 C           6.0500   -3.4425   21.0495 C.2     1  UNL1        0.2491
      3 O           4.8726   -4.2924   21.4252 O.2     1  UNL1       -0.2727
      4 C           7.2009   -1.7929   19.4050 C.3     1  UNL1        0.1111
      5 C           7.2246   -0.3392   19.7737 C.3     1  UNL1        0.0939
      6 N           7.1254    0.7076   18.7039 N.3     1  UNL1       -0.2712
      7 C           7.5244    2.6167   20.4203 C.3     1  UNL1        0.0188
      8 C           7.0349    2.1571   19.0790 C.3     1  UNL1        0.0722
      9 C           7.1168    0.3048   17.2590 C.3     1  UNL1        0.0722
     10 C           6.9633    1.3468   16.1909 C.3     1  UNL1        0.0188
     11 C           4.8194   -2.6933   18.8875 C.3     1  UNL1        0.1202
     12 C           3.7671   -1.6288   18.9864 C.ar    1  UNL1       -0.0023
     13 C           3.8009   -0.4522   18.0566 C.ar    1  UNL1       -0.0026
     14 C           2.7487    0.6122   18.1555 C.ar    1  UNL1       -0.0003
     15 C           1.6627    0.5000   19.1841 C.ar    1  UNL1       -0.0000
     16 C           1.6289   -0.6766   20.1139 C.ar    1  UNL1       -0.0003
     17 C           2.6811   -1.7410   20.0150 C.ar    1  UNL1       -0.0026
     18 C           0.6104    1.5645   19.2830 C.ar    1  UNL1       -0.0000
     19 C          -0.2201    1.6849   20.5262 C.ar    1  UNL1       -0.0001
     20 C          -1.2724    2.7494   20.6250 C.ar    1  UNL1        0.0039
     21 C          -1.4940    3.6935   19.4806 C.ar    1  UNL1        0.0714
     22 C          -0.6634    3.5730   18.2373 C.ar    1  UNL1        0.0039
     23 C           0.3888    2.5085   18.1385 C.ar    1  UNL1       -0.0001
     24 C          -2.5462    4.7579   19.5794 C.3     1  UNL1        0.4186
     25 F          -3.5984    5.8224   19.6782 F       1  UNL1       -0.1659
     26 F          -3.0828    4.1121   20.8223 F       1  UNL1       -0.1659
     27 F          -2.0095    5.4037   18.3365 F       1  UNL1       -0.1659
     28 C           7.2541   -3.3921   21.9427 C.3     1  UNL1        0.1934
     29 N           7.2729   -4.1763   23.2212 N.ar    1  UNL1       -0.2969
     30 C           7.8909   -5.5428   23.2538 C.ar    1  UNL1        0.0942
     31 C           7.9097   -6.3271   24.5323 C.ar    1  UNL1        0.1326
     32 CL          8.5276   -7.6935   24.5650 Cl      1  UNL1       -0.0756
     33 C           7.3105   -5.7449   25.7782 C.ar    1  UNL1        0.2930
     34 O           7.3293   -6.5292   27.0567 O.2     1  UNL1       -0.2641
     35 N           6.6926   -4.3785   25.7455 N.ar    1  UNL1       -0.1837
     36 C           6.6738   -3.5942   24.4670 C.ar    1  UNL1        0.1751
     37 S           6.0559   -2.2279   24.4344 S.3     1  UNL1       -0.0724
     38 C           4.5915   -2.0736   24.1479 C.3     1  UNL1        0.0913
     39 C           4.0765   -0.8042   23.5370 C.ar    1  UNL1       -0.0108
     40 C           2.7544   -0.2450   23.9722 C.ar    1  UNL1       -0.0011
     41 C           2.2393    1.0245   23.3612 C.ar    1  UNL1        0.0293
     42 C           3.0463    1.7347   22.3151 C.ar    1  UNL1        0.1401
     43 F           2.5313    3.0041   21.7041 F       1  UNL1       -0.2042
     44 C           4.3684    1.1754   21.8799 C.ar    1  UNL1        0.0293
     45 C           4.8835   -0.0940   22.4909 C.ar    1  UNL1       -0.0011
@<TRIPOS>BOND
     1     7     8    1
     2     8     6    1
     3     6     9    1
     4     9    10    1
     5     6     5    1
     6     5     4    1
     7     4     1    1
     8     1    11    1
     9    11    12    1
    10    12    13   ar
    11    13    14   ar
    12    14    15   ar
    13    15    18    1
    14    18    19   ar
    15    19    20   ar
    16    20    21   ar
    17    21    24    1
    18    24    25    1
    19    24    26    1
    20    24    27    1
    21    21    22   ar
    22    22    23   ar
    23    15    16   ar
    24    16    17   ar
    25     1     2   am
    26     2     3    2
    27     2    28    1
    28    28    29    1
    29    29    30   ar
    30    30    31   ar
    31    31    32    1
    32    31    33   ar
    33    33    34    2
    34    33    35   ar
    35    35    36   ar
    36    36    37    1
    37    37    38    1
    38    38    39    1
    39    39    40   ar
    40    40    41   ar
    41    41    42   ar
    42    42    43    1
    43    42    44   ar
    44    44    45   ar
    45    17    12   ar
    46    36    29   ar
    47    45    39   ar
    48    23    18   ar
@<TRIPOS>MOLECULE
*****
 45 48 0 0 0
SMALL
GASTEIGER

@<TRIPOS>ATOM
      1 N           3.6460    0.7220   29.2940 N.am    1  UNL1       -0.2724
      2 C           5.0440    0.8546   29.8212 C.2     1  UNL1        0.2491
      3 O           6.0839    1.5758   29.0160 O.2     1  UNL1       -0.2727
      4 C           2.6060    0.0008   30.0993 C.3     1  UNL1        0.1111
      5 C           1.2307   -0.2040   29.5368 C.3     1  UNL1        0.0939
      6 N           0.1368    0.7714   29.8563 N.3     1  UNL1       -0.2712
      7 C          -1.6149   -0.7966   28.7504 C.3     1  UNL1        0.0188
      8 C          -1.2546    0.5301   29.3505 C.3     1  UNL1        0.0722
      9 C           0.4343    1.9881   30.6816 C.3     1  UNL1        0.0722
     10 C           0.8851    3.2543   30.0155 C.3     1  UNL1        0.0188
     11 C           3.2879    1.3105   27.9616 C.3     1  UNL1        0.1202
     12 C           3.4575    0.4975   26.7125 C.ar    1  UNL1       -0.0023
     13 C           4.1402   -0.8368   26.7731 C.ar    1  UNL1       -0.0026
     14 C           4.3098   -1.6498   25.5240 C.ar    1  UNL1       -0.0003
     15 C           3.7969   -1.1285   24.2144 C.ar    1  UNL1       -0.0000
     16 C           3.1142    0.2057   24.1538 C.ar    1  UNL1       -0.0003
     17 C           2.9446    1.0187   25.4029 C.ar    1  UNL1       -0.0026
     18 C           3.9666   -1.9416   22.9653 C.ar    1  UNL1       -0.0000
     19 C           3.4139   -1.4411   21.6638 C.ar    1  UNL1       -0.0001
     20 C           3.5836   -2.2542   20.4147 C.ar    1  UNL1        0.0039
     21 C           4.3060   -3.5677   20.4672 C.ar    1  UNL1        0.0714
     22 C           4.8587   -4.0682   21.7688 C.ar    1  UNL1        0.0039
     23 C           4.6889   -3.2551   23.0178 C.ar    1  UNL1       -0.0001
     24 C           4.4757   -4.3808   19.2182 C.3     1  UNL1        0.4186
     25 F           4.6454   -5.1939   17.9691 F       1  UNL1       -0.1659
     26 F           3.4397   -5.3489   19.7076 F       1  UNL1       -0.1659
     27 F           5.5116   -3.4127   18.7287 F       1  UNL1       -0.1659
     28 C           5.4021    0.2661   31.1537 C.3     1  UNL1        0.1934
     29 N           5.8029   -1.1759   31.2533 N.ar    1  UNL1       -0.2969
     30 C           6.2445   -1.9181   30.0268 C.ar    1  UNL1        0.0942
     31 C           6.6453   -3.3601   30.1264 C.ar    1  UNL1        0.1326
     32 CL          7.0869   -4.1022   28.8999 Cl      1  UNL1       -0.0756
     33 C           6.6047   -4.0599   31.4525 C.ar    1  UNL1        0.2930
     34 O           7.0056   -5.5019   31.5521 O.2     1  UNL1       -0.2641
     35 N           6.1632   -3.3178   32.6790 N.ar    1  UNL1       -0.1837
     36 C           5.7623   -1.8758   32.5794 C.ar    1  UNL1        0.1751
     37 S           5.3208   -1.1337   33.8058 S.3     1  UNL1       -0.0724
     38 C           6.3341   -0.4443   34.6708 C.3     1  UNL1        0.0913
     39 C           5.8923    0.3005   35.8955 C.ar    1  UNL1       -0.0108
     40 C           4.5023    0.1125   36.4269 C.ar    1  UNL1       -0.0011
     41 C           4.0604    0.8573   37.6517 C.ar    1  UNL1        0.0293
     42 C           5.0085    1.7901   38.3450 C.ar    1  UNL1        0.1401
     43 F           4.5667    2.5349   39.5698 F       1  UNL1       -0.2042
     44 C           6.3986    1.9781   37.8136 C.ar    1  UNL1        0.0293
     45 C           6.8405    1.2333   36.5888 C.ar    1  UNL1       -0.0011
@<TRIPOS>BOND
     1     7     8    1
     2     8     6    1
     3     6     9    1
     4     9    10    1
     5     6     5    1
     6     5     4    1
     7     4     1    1
     8     1    11    1
     9    11    12    1
    10    12    13   ar
    11    13    14   ar
    12    14    15   ar
    13    15    18    1
    14    18    19   ar
    15    19    20   ar
    16    20    21   ar
    17    21    24    1
    18    24    25    1
    19    24    26    1
    20    24    27    1
    21    21    22   ar
    22    22    23   ar
    23    15    16   ar
    24    16    17   ar
    25     1     2   am
    26     2     3    2
    27     2    28    1
    28    28    29    1
    29    29    30   ar
    30    30    31   ar
    31    31    32    1
    32    31    33   ar
    33    33    34    2
    34    33    35   ar
    35    35    36   ar
    36    36    37    1
    37    37    38    1
    38    38    39    1
    39    39    40   ar
    40    40    41   ar
    41    41    42   ar
    42    42    43    1
    43    42    44   ar
    44    44    45   ar
    45    17    12   ar
    46    36    29   ar
    47    45    39   ar
    48    23    18   ar
@<TRIPOS>MOLECULE
*****
 45 48 0 0 0
SMALL
GASTEIGER

@<TRIPOS>ATOM
      1 N           2.8663    0.8793   29.4477 N.am    1  UNL1       -0.2724
      2 C           3.7354    0.5361   30.6211 C.2     1  UNL1        0.2491
      3 O           5.2097    0.8067   30.5671 O.2     1  UNL1       -0.2727
      4 C           1.3919    0.6087   29.5019 C.3     1  UNL1        0.1111
      5 C           0.4182    1.7492   29.4675 C.3     1  UNL1        0.0939
      6 N          -0.0724    2.2771   28.1521 N.3     1  UNL1       -0.2712
      7 C           1.2468    4.5153   28.1642 C.3     1  UNL1        0.0188
      8 C          -0.0056    3.7473   27.8618 C.3     1  UNL1        0.0722
      9 C          -0.6300    1.3348   27.1267 C.3     1  UNL1        0.0722
     10 C          -0.2828    1.5117   25.6782 C.3     1  UNL1        0.0188
     11 C           3.4716    1.4931   28.2202 C.3     1  UNL1        0.1202
     12 C           3.6074    0.6826   26.9654 C.ar    1  UNL1       -0.0023
     13 C           3.2989    1.3027   25.6349 C.ar    1  UNL1       -0.0026
     14 C           3.4347    0.4922   24.3801 C.ar    1  UNL1       -0.0003
     15 C           3.8790   -0.9385   24.4558 C.ar    1  UNL1       -0.0000
     16 C           4.1874   -1.5587   25.7863 C.ar    1  UNL1       -0.0003
     17 C           4.0516   -0.7481   27.0410 C.ar    1  UNL1       -0.0026
     18 C           4.0147   -1.7491   23.2009 C.ar    1  UNL1       -0.0000
     19 C           3.4161   -1.2520   21.9185 C.ar    1  UNL1       -0.0001
     20 C           3.5519   -2.0626   20.6637 C.ar    1  UNL1        0.0039
     21 C           4.2863   -3.3702   20.6912 C.ar    1  UNL1        0.0714
     22 C           4.8850   -3.8672   21.9737 C.ar    1  UNL1        0.0039
     23 C           4.7492   -3.0567   23.2285 C.ar    1  UNL1       -0.0001
     24 C           4.4221   -4.1807   19.4365 C.3     1  UNL1        0.4186
     25 F           4.5579   -4.9912   18.1817 F       1  UNL1       -0.1659
     26 F           5.8641   -4.4388   19.7592 F       1  UNL1       -0.1659
     27 F           2.9802   -3.9226   19.1137 F       1  UNL1       -0.1659
     28 C           3.1300   -0.0778   31.8487 C.3     1  UNL1        0.1934
     29 N           3.3245    0.5726   33.1863 N.ar    1  UNL1       -0.2969
     30 C           2.5460    1.8046   33.5416 C.ar    1  UNL1        0.0942
     31 C           2.7406    2.4550   34.8792 C.ar    1  UNL1        0.1326
     32 CL          1.9621    3.6870   35.2344 Cl      1  UNL1       -0.0756
     33 C           3.7136    1.8733   35.8615 C.ar    1  UNL1        0.2930
     34 O           3.9081    2.5237   37.1991 O.2     1  UNL1       -0.2641
     35 N           4.4920    0.6414   35.5062 N.ar    1  UNL1       -0.1837
     36 C           4.2975   -0.0090   34.1686 C.ar    1  UNL1        0.1751
     37 S           5.0759   -1.2410   33.8134 S.3     1  UNL1       -0.0724
     38 C           6.4856   -1.1197   33.3149 C.3     1  UNL1        0.0913
     39 C           7.1557   -2.2950   32.6671 C.ar    1  UNL1       -0.0108
     40 C           6.3335   -3.4464   32.1690 C.ar    1  UNL1       -0.0011
     41 C           7.0036   -4.6217   31.5212 C.ar    1  UNL1        0.0293
     42 C           8.4959   -4.6455   31.3715 C.ar    1  UNL1        0.1401
     43 F           9.1660   -5.8208   30.7237 F       1  UNL1       -0.2042
     44 C           9.3181   -3.4940   31.8696 C.ar    1  UNL1        0.0293
     45 C           8.6480   -2.3188   32.5174 C.ar    1  UNL1       -0.0011
@<TRIPOS>BOND
     1     7     8    1
     2     8     6    1
     3     6     9    1
     4     9    10    1
     5     6     5    1
     6     5     4    1
     7     4     1    1
     8     1    11    1
     9    11    12    1
    10    12    13   ar
    11    13    14   ar
    12    14    15   ar
    13    15    18    1
    14    18    19   ar
    15    19    20   ar
    16    20    21   ar
    17    21    24    1
    18    24    25    1
    19    24    26    1
    20    24    27    1
    21    21    22   ar
    22    22    23   ar
    23    15    16   ar
    24    16    17   ar
    25     1     2   am
    26     2     3    2
    27     2    28    1
    28    28    29    1
    29    29    30   ar
    30    30    31   ar
    31    31    32    1
    32    31    33   ar
    33    33    34    2
    34    33    35   ar
    35    35    36   ar
    36    36    37    1
    37    37    38    1
    38    38    39    1
    39    39    40   ar
    40    40    41   ar
    41    41    42   ar
    42    42    43    1
    43    42    44   ar
    44    44    45   ar
    45    17    12   ar
    46    36    29   ar
    47    45    39   ar
    48    23    18   ar
@<TRIPOS>MOLECULE
*****
 45 48 0 0 0
SMALL
GASTEIGER

@<TRIPOS>ATOM
      1 N           3.2519    1.2702   29.1464 N.am    1  UNL1       -0.2724
      2 C           2.8086    0.2571   30.1598 C.2     1  UNL1        0.2491
      3 O           1.5573   -0.5371   29.9286 O.2     1  UNL1       -0.2727
      4 C           4.5032    2.0644   29.3777 C.3     1  UNL1        0.1111
      5 C           4.4172    3.4542   29.9355 C.3     1  UNL1        0.0939
      6 N           3.7748    3.6880   31.2706 N.3     1  UNL1       -0.2712
      7 C           1.5595    3.0386   32.4626 C.3     1  UNL1        0.0188
      8 C           2.2816    3.7821   31.3783 C.3     1  UNL1        0.0722
      9 C           4.6256    3.8276   32.4981 C.3     1  UNL1        0.0722
     10 C           5.7166    2.8351   32.7713 C.3     1  UNL1        0.0188
     11 C           2.4438    1.4893   27.9018 C.3     1  UNL1        0.1202
     12 C           2.7381    0.6910   26.6664 C.ar    1  UNL1       -0.0023
     13 C           3.6534   -0.4951   26.7401 C.ar    1  UNL1       -0.0026
     14 C           3.9476   -1.2933   25.5047 C.ar    1  UNL1       -0.0003
     15 C           3.3265   -0.9054   24.1956 C.ar    1  UNL1       -0.0000
     16 C           2.4113    0.2806   24.1218 C.ar    1  UNL1       -0.0003
     17 C           2.1171    1.0788   25.3572 C.ar    1  UNL1       -0.0026
     18 C           3.6208   -1.7037   22.9602 C.ar    1  UNL1       -0.0000
     19 C           3.1029   -1.2445   21.6295 C.ar    1  UNL1       -0.0001
     20 C           3.3971   -2.0428   20.3940 C.ar    1  UNL1        0.0039
     21 C           4.2093   -3.3003   20.4894 C.ar    1  UNL1        0.0714
     22 C           4.7273   -3.7594   21.8202 C.ar    1  UNL1        0.0039
     23 C           4.4330   -2.9612   23.0555 C.ar    1  UNL1       -0.0001
     24 C           4.5036   -4.0985   19.2540 C.3     1  UNL1        0.4186
     25 F           4.7979   -4.8968   18.0187 F       1  UNL1       -0.1659
     26 F           3.0550   -4.4738   19.1515 F       1  UNL1       -0.1659
     27 F           5.9523   -3.7232   19.3566 F       1  UNL1       -0.1659
     28 C           3.6167    0.0381   31.4045 C.3     1  UNL1        0.1934
     29 N           4.6525   -1.0461   31.4451 N.ar    1  UNL1       -0.2969
     30 C           5.3280   -1.4857   30.1799 C.ar    1  UNL1        0.0942
     31 C           6.3639   -2.5699   30.2205 C.ar    1  UNL1        0.1326
     32 CL          7.0393   -3.0095   28.9555 Cl      1  UNL1       -0.0756
     33 C           6.7243   -3.2143   31.5262 C.ar    1  UNL1        0.2930
     34 O           7.7601   -4.2985   31.5668 O.2     1  UNL1       -0.2641
     35 N           6.0488   -2.7747   32.7913 N.ar    1  UNL1       -0.1837
     36 C           5.0129   -1.6905   32.7507 C.ar    1  UNL1        0.1751
     37 S           4.3375   -1.2509   34.0158 S.3     1  UNL1       -0.0724
     38 C           5.1153   -0.5104   35.0630 C.3     1  UNL1        0.0913
     39 C           4.4363    0.5253   35.9094 C.ar    1  UNL1       -0.0108
     40 C           4.6992    0.5777   37.3852 C.ar    1  UNL1       -0.0011
     41 C           4.0201    1.6134   38.2316 C.ar    1  UNL1        0.0293
     42 C           3.0782    2.5966   37.6021 C.ar    1  UNL1        0.1401
     43 F           2.3992    3.6322   38.4484 F       1  UNL1       -0.2042
     44 C           2.8154    2.5440   36.1262 C.ar    1  UNL1        0.0293
     45 C           3.4944    1.5084   35.2799 C.ar    1  UNL1       -0.0011
@<TRIPOS>BOND
     1     7     8    1
     2     8     6    1
     3     6     9    1
     4     9    10    1
     5     6     5    1
     6     5     4    1
     7     4     1    1
     8     1    11    1
     9    11    12    1
    10    12    13   ar
    11    13    14   ar
    12    14    15   ar
    13    15    18    1
    14    18    19   ar
    15    19    20   ar
    16    20    21   ar
    17    21    24    1
    18    24    25    1
    19    24    26    1
    20    24    27    1
    21    21    22   ar
    22    22    23   ar
    23    15    16   ar
    24    16    17   ar
    25     1     2   am
    26     2     3    2
    27     2    28    1
    28    28    29    1
    29    29    30   ar
    30    30    31   ar
    31    31    32    1
    32    31    33   ar
    33    33    34    2
    34    33    35   ar
    35    35    36   ar
    36    36    37    1
    37    37    38    1
    38    38    39    1
    39    39    40   ar
    40    40    41   ar
    41    41    42   ar
    42    42    43    1
    43    42    44   ar
    44    44    45   ar
    45    17    12   ar
    46    36    29   ar
    47    45    39   ar
    48    23    18   ar
@<TRIPOS>MOLECULE
*****
 45 48 0 0 0
SMALL
GASTEIGER

@<TRIPOS>ATOM
      1 N           7.4016   -3.0266   29.1469 N.am    1  UNL1       -0.2724
      2 C           6.7155   -4.0010   28.2360 C.2     1  UNL1        0.2491
      3 O           6.2044   -5.3027   28.7784 O.2     1  UNL1       -0.2727
      4 C           7.9128   -1.7248   28.6043 C.3     1  UNL1        0.1111
      5 C           7.0477   -0.5004   28.6534 C.3     1  UNL1        0.0939
      6 N           5.5893   -0.5986   28.3167 N.3     1  UNL1       -0.2712
      7 C           3.8902   -1.0796   26.4110 C.3     1  UNL1        0.0188
      8 C           5.1305   -0.3945   26.9033 C.3     1  UNL1        0.0722
      9 C           4.5897   -0.9009   29.3935 C.3     1  UNL1        0.0722
     10 C           3.9290    0.2201   30.1397 C.3     1  UNL1        0.0188
     11 C           7.5766   -3.3538   30.6002 C.3     1  UNL1        0.1202
     12 C           6.8892   -2.5241   31.6439 C.ar    1  UNL1       -0.0023
     13 C           5.5990   -2.9954   32.2467 C.ar    1  UNL1       -0.0026
     14 C           4.9117   -2.1657   33.2903 C.ar    1  UNL1       -0.0003
     15 C           5.5144   -0.8648   33.7311 C.ar    1  UNL1       -0.0000
     16 C           6.8045   -0.3935   33.1283 C.ar    1  UNL1       -0.0003
     17 C           7.4919   -1.2232   32.0847 C.ar    1  UNL1       -0.0026
     18 C           4.8270   -0.0351   34.7747 C.ar    1  UNL1       -0.0000
     19 C           5.0908   -0.2901   36.2291 C.ar    1  UNL1       -0.0001
     20 C           4.4033    0.5396   37.2728 C.ar    1  UNL1        0.0039
     21 C           3.4521    1.6242   36.8620 C.ar    1  UNL1        0.0714
     22 C           3.1884    1.8792   35.4074 C.ar    1  UNL1        0.0039
     23 C           3.8758    1.0495   34.3639 C.ar    1  UNL1       -0.0001
     24 C           2.7647    2.4539   37.9055 C.3     1  UNL1        0.4186
     25 F           2.0773    3.2835   38.9491 F       1  UNL1       -0.1659
     26 F           3.3578    1.5927   38.9809 F       1  UNL1       -0.1659
     27 F           2.1716    3.3151   36.8301 F       1  UNL1       -0.1659
     28 C           6.5406   -3.6737   26.7826 C.3     1  UNL1        0.1934
     29 N           7.0778   -4.6029   25.7346 N.ar    1  UNL1       -0.2969
     30 C           7.8399   -5.8298   26.1396 C.ar    1  UNL1        0.0942
     31 C           8.3770   -6.7590   25.0917 C.ar    1  UNL1        0.1326
     32 CL          9.1391   -7.9858   25.4966 Cl      1  UNL1       -0.0756
     33 C           8.1521   -6.4612   23.6388 C.ar    1  UNL1        0.2930
     34 O           8.6892   -7.3903   22.5909 O.2     1  UNL1       -0.2641
     35 N           7.3900   -5.2343   23.2339 N.ar    1  UNL1       -0.1837
     36 C           6.8528   -4.3051   24.2818 C.ar    1  UNL1        0.1751
     37 S           6.0908   -3.0783   23.8769 S.3     1  UNL1       -0.0724
     38 C           4.7151   -3.2084   23.2932 C.3     1  UNL1        0.0913
     39 C           4.4723   -2.8478   21.8576 C.ar    1  UNL1       -0.0108
     40 C           3.6165   -1.6643   21.5161 C.ar    1  UNL1       -0.0011
     41 C           3.3736   -1.3037   20.0804 C.ar    1  UNL1        0.0293
     42 C           3.9867   -2.1266   18.9864 C.ar    1  UNL1        0.1401
     43 F           3.7439   -1.7660   17.5508 F       1  UNL1       -0.2042
     44 C           4.8426   -3.3102   19.3280 C.ar    1  UNL1        0.0293
     45 C           5.0854   -3.6708   20.7636 C.ar    1  UNL1       -0.0011
@<TRIPOS>BOND
     1     7     8    1
     2     8     6    1
     3     6     9    1
     4     9    10    1
     5     6     5    1
     6     5     4    1
     7     4     1    1
     8     1    11    1
     9    11    12    1
    10    12    13   ar
    11    13    14   ar
    12    14    15   ar
    13    15    18    1
    14    18    19   ar
    15    19    20   ar
    16    20    21   ar
    17    21    24    1
    18    24    25    1
    19    24    26    1
    20    24    27    1
    21    21    22   ar
    22    22    23   ar
    23    15    16   ar
    24    16    17   ar
    25     1     2   am
    26     2     3    2
    27     2    28    1
    28    28    29    1
    29    29    30   ar
    30    30    31   ar
    31    31    32    1
    32    31    33   ar
    33    33    34    2
    34    33    35   ar
    35    35    36   ar
    36    36    37    1
    37    37    38    1
    38    38    39    1
    39    39    40   ar
    40    40    41   ar
    41    41    42   ar
    42    42    43    1
    43    42    44   ar
    44    44    45   ar
    45    17    12   ar
    46    36    29   ar
    47    45    39   ar
    48    23    18   ar
@<TRIPOS>MOLECULE
*****
 45 48 0 0 0
SMALL
GASTEIGER

@<TRIPOS>ATOM
      1 N           1.1555    3.5658   26.1188 N.am    1  UNL1       -0.2724
      2 C          -0.3303    3.3821   26.0246 C.2     1  UNL1        0.2491
      3 O          -0.9374    2.0353   26.2842 O.2     1  UNL1       -0.2727
      4 C           1.7626    4.9127   25.8591 C.3     1  UNL1        0.1111
      5 C           3.2195    5.0260   25.5208 C.3     1  UNL1        0.0939
      6 N           3.7295    4.4949   24.2139 N.3     1  UNL1       -0.2712
      7 C           5.2214    2.7191   23.0430 C.3     1  UNL1        0.0188
      8 C           4.9832    3.6721   24.1766 C.3     1  UNL1        0.0722
      9 C           2.9858    4.7866   22.9444 C.3     1  UNL1        0.0722
     10 C           2.6998    6.2058   22.5518 C.3     1  UNL1        0.0188
     11 C           2.0340    2.4027   26.4727 C.3     1  UNL1        0.1202
     12 C           2.3923    1.3880   25.4276 C.ar    1  UNL1       -0.0023
     13 C           1.7956    1.4827   24.0546 C.ar    1  UNL1       -0.0026
     14 C           2.1539    0.4681   23.0096 C.ar    1  UNL1       -0.0003
     15 C           3.1089   -0.6412   23.3375 C.ar    1  UNL1       -0.0000
     16 C           3.7056   -0.7358   24.7104 C.ar    1  UNL1       -0.0003
     17 C           3.3473    0.2788   25.7554 C.ar    1  UNL1       -0.0026
     18 C           3.4671   -1.6558   22.2924 C.ar    1  UNL1       -0.0000
     19 C           3.0006   -1.4731   20.8786 C.ar    1  UNL1       -0.0001
     20 C           3.3588   -2.4877   19.8334 C.ar    1  UNL1        0.0039
     21 C           4.1837   -3.6851   20.2022 C.ar    1  UNL1        0.0714
     22 C           4.6503   -3.8678   21.6161 C.ar    1  UNL1        0.0039
     23 C           4.2920   -2.8532   22.6611 C.ar    1  UNL1       -0.0001
     24 C           4.5420   -4.6997   19.1572 C.3     1  UNL1        0.4186
     25 F           4.9002   -5.7143   18.1121 F       1  UNL1       -0.1659
     26 F           3.4425   -5.5940   19.6484 F       1  UNL1       -0.1659
     27 F           5.6414   -3.8054   18.6659 F       1  UNL1       -0.1659
     28 C          -1.2088    4.5453   25.6706 C.3     1  UNL1        0.1934
     29 N          -2.3681    4.3532   24.7383 N.ar    1  UNL1       -0.2969
     30 C          -3.7721    4.4556   25.2563 C.ar    1  UNL1        0.0942
     31 C          -4.9313    4.2635   24.3240 C.ar    1  UNL1        0.1326
     32 CL         -6.3353    4.3659   24.8419 Cl      1  UNL1       -0.0756
     33 C          -4.6865    3.9690   22.8736 C.ar    1  UNL1        0.2930
     34 O          -5.8458    3.7769   21.9413 O.2     1  UNL1       -0.2641
     35 N          -3.2826    3.8666   22.3557 N.ar    1  UNL1       -0.1837
     36 C          -2.1233    4.0587   23.2880 C.ar    1  UNL1        0.1751
     37 S          -0.7193    3.9563   22.7701 S.3     1  UNL1       -0.0724
     38 C          -0.4223    4.2879   21.3377 C.3     1  UNL1        0.0913
     39 C           0.2523    3.2773   20.4582 C.ar    1  UNL1       -0.0108
     40 C          -0.1725    1.8395   20.5054 C.ar    1  UNL1       -0.0011
     41 C           0.5021    0.8288   19.6259 C.ar    1  UNL1        0.0293
     42 C           1.6015    1.2559   18.6993 C.ar    1  UNL1        0.1401
     43 F           2.2761    0.2453   17.8198 F       1  UNL1       -0.2042
     44 C           2.0264    2.6938   18.6521 C.ar    1  UNL1        0.0293
     45 C           1.3518    3.7044   19.5315 C.ar    1  UNL1       -0.0011
@<TRIPOS>BOND
     1     7     8    1
     2     8     6    1
     3     6     9    1
     4     9    10    1
     5     6     5    1
     6     5     4    1
     7     4     1    1
     8     1    11    1
     9    11    12    1
    10    12    13   ar
    11    13    14   ar
    12    14    15   ar
    13    15    18    1
    14    18    19   ar
    15    19    20   ar
    16    20    21   ar
    17    21    24    1
    18    24    25    1
    19    24    26    1
    20    24    27    1
    21    21    22   ar
    22    22    23   ar
    23    15    16   ar
    24    16    17   ar
    25     1     2   am
    26     2     3    2
    27     2    28    1
    28    28    29    1
    29    29    30   ar
    30    30    31   ar
    31    31    32    1
    32    31    33   ar
    33    33    34    2
    34    33    35   ar
    35    35    36   ar
    36    36    37    1
    37    37    38    1
    38    38    39    1
    39    39    40   ar
    40    40    41   ar
    41    41    42   ar
    42    42    43    1
    43    42    44   ar
    44    44    45   ar
    45    17    12   ar
    46    36    29   ar
    47    45    39   ar
    48    23    18   ar
@<TRIPOS>MOLECULE
*****
 45 48 0 0 0
SMALL
GASTEIGER

@<TRIPOS>ATOM
      1 N           7.5135   -4.0210   29.8214 N.am    1  UNL1       -0.2724
      2 C           7.6260   -2.9363   28.7915 C.2     1  UNL1        0.2491
      3 O           8.1967   -1.6012   29.1677 O.2     1  UNL1       -0.2727
      4 C           6.9427   -5.3563   29.4452 C.3     1  UNL1        0.1111
      5 C           7.8486   -6.5411   29.2857 C.3     1  UNL1        0.0939
      6 N           8.1780   -7.0543   27.9153 N.3     1  UNL1       -0.2712
      7 C           7.6799   -6.9223   25.3688 C.3     1  UNL1        0.0188
      8 C           7.2038   -6.8669   26.7901 C.3     1  UNL1        0.0722
      9 C           9.4815   -7.7547   27.6699 C.3     1  UNL1        0.0722
     10 C           9.5257   -9.2522   27.5946 C.3     1  UNL1        0.0188
     11 C           7.9718   -3.7706   31.2276 C.3     1  UNL1        0.1202
     12 C           7.1876   -2.8549   32.1201 C.ar    1  UNL1       -0.0023
     13 C           5.7354   -3.1246   32.3814 C.ar    1  UNL1       -0.0026
     14 C           4.9513   -2.2089   33.2739 C.ar    1  UNL1       -0.0003
     15 C           5.6194   -1.0235   33.9052 C.ar    1  UNL1       -0.0000
     16 C           7.0716   -0.7538   33.6439 C.ar    1  UNL1       -0.0003
     17 C           7.8557   -1.6695   32.7514 C.ar    1  UNL1       -0.0026
     18 C           4.8352   -0.1077   34.7977 C.ar    1  UNL1       -0.0000
     19 C           3.9261    0.9248   34.2001 C.ar    1  UNL1       -0.0001
     20 C           3.1419    1.8405   35.0927 C.ar    1  UNL1        0.0039
     21 C           3.2669    1.7236   36.5829 C.ar    1  UNL1        0.0714
     22 C           4.1761    0.6910   37.1805 C.ar    1  UNL1        0.0039
     23 C           4.9603   -0.2247   36.2879 C.ar    1  UNL1       -0.0001
     24 C           2.4828    2.6393   37.4754 C.3     1  UNL1        0.4186
     25 F           1.6987    3.5549   38.3680 F       1  UNL1       -0.1659
     26 F           2.0906    3.4636   36.2852 F       1  UNL1       -0.1659
     27 F           2.8750    1.8150   38.6656 F       1  UNL1       -0.1659
     28 C           7.1676   -3.1868   27.3853 C.3     1  UNL1        0.1934
     29 N           6.0105   -2.4143   26.8248 N.ar    1  UNL1       -0.2969
     30 C           4.9866   -1.8222   27.7475 C.ar    1  UNL1        0.0942
     31 C           3.8294   -1.0497   27.1870 C.ar    1  UNL1        0.1326
     32 CL          2.8056   -0.4576   28.1096 Cl      1  UNL1       -0.0756
     33 C           3.6961   -0.8693   25.7038 C.ar    1  UNL1        0.2930
     34 O           2.5389   -0.0968   25.1433 O.2     1  UNL1       -0.2641
     35 N           4.7199   -1.4614   24.7812 N.ar    1  UNL1       -0.1837
     36 C           5.8771   -2.2339   25.3417 C.ar    1  UNL1        0.1751
     37 S           6.9009   -2.8260   24.4192 S.3     1  UNL1       -0.0724
     38 C           6.5234   -3.9530   23.5040 C.3     1  UNL1        0.0913
     39 C           6.0955   -3.6643   22.0956 C.ar    1  UNL1       -0.0108
     40 C           4.6596   -3.8368   21.6978 C.ar    1  UNL1       -0.0011
     41 C           4.2316   -3.5481   20.2894 C.ar    1  UNL1        0.0293
     42 C           5.2397   -3.0869   19.2789 C.ar    1  UNL1        0.1401
     43 F           4.8118   -2.7982   17.8705 F       1  UNL1       -0.2042
     44 C           6.6757   -2.9143   19.6768 C.ar    1  UNL1        0.0293
     45 C           7.1035   -3.2030   21.0851 C.ar    1  UNL1       -0.0011
@<TRIPOS>BOND
     1     7     8    1
     2     8     6    1
     3     6     9    1
     4     9    10    1
     5     6     5    1
     6     5     4    1
     7     4     1    1
     8     1    11    1
     9    11    12    1
    10    12    13   ar
    11    13    14   ar
    12    14    15   ar
    13    15    18    1
    14    18    19   ar
    15    19    20   ar
    16    20    21   ar
    17    21    24    1
    18    24    25    1
    19    24    26    1
    20    24    27    1
    21    21    22   ar
    22    22    23   ar
    23    15    16   ar
    24    16    17   ar
    25     1     2   am
    26     2     3    2
    27     2    28    1
    28    28    29    1
    29    29    30   ar
    30    30    31   ar
    31    31    32    1
    32    31    33   ar
    33    33    34    2
    34    33    35   ar
    35    35    36   ar
    36    36    37    1
    37    37    38    1
    38    38    39    1
    39    39    40   ar
    40    40    41   ar
    41    41    42   ar
    42    42    43    1
    43    42    44   ar
    44    44    45   ar
    45    17    12   ar
    46    36    29   ar
    47    45    39   ar
    48    23    18   ar
@<TRIPOS>MOLECULE
*****
 45 48 0 0 0
SMALL
GASTEIGER

@<TRIPOS>ATOM
      1 N           3.1594    1.5262   29.0730 N.am    1  UNL1       -0.2724
      2 C           4.2903    0.9833   29.8955 C.2     1  UNL1        0.2491
      3 O           5.6900    1.0107   29.3569 O.2     1  UNL1       -0.2727
      4 C           1.7597    1.4988   29.6116 C.3     1  UNL1        0.1111
      5 C           0.6539    2.1800   28.8612 C.3     1  UNL1        0.0939
      6 N          -0.1539    1.4132   27.8565 N.3     1  UNL1       -0.2712
      7 C          -1.8356   -0.0031   29.2407 C.3     1  UNL1        0.0188
      8 C          -0.7372    0.0806   28.2227 C.3     1  UNL1        0.0722
      9 C          -0.3783    1.9789   26.4855 C.3     1  UNL1        0.0722
     10 C           0.0176    1.1882   25.2738 C.3     1  UNL1        0.0188
     11 C           3.4283    2.0964   27.7119 C.3     1  UNL1        0.1202
     12 C           3.5571    1.1838   26.5284 C.ar    1  UNL1       -0.0023
     13 C           3.5685   -0.3031   26.7257 C.ar    1  UNL1       -0.0026
     14 C           3.6973   -1.2157   25.5422 C.ar    1  UNL1       -0.0003
     15 C           3.8148   -0.6413   24.1615 C.ar    1  UNL1       -0.0000
     16 C           3.8035    0.8456   23.9643 C.ar    1  UNL1       -0.0003
     17 C           3.6746    1.7581   25.1477 C.ar    1  UNL1       -0.0026
     18 C           3.9437   -1.5540   22.9781 C.ar    1  UNL1       -0.0000
     19 C           3.3651   -1.1514   21.6540 C.ar    1  UNL1       -0.0001
     20 C           3.4940   -2.0641   20.4705 C.ar    1  UNL1        0.0039
     21 C           4.2014   -3.3793   20.6112 C.ar    1  UNL1        0.0714
     22 C           4.7800   -3.7818   21.9353 C.ar    1  UNL1        0.0039
     23 C           4.6511   -2.8692   23.1187 C.ar    1  UNL1       -0.0001
     24 C           4.3303   -4.2919   19.4278 C.3     1  UNL1        0.4186
     25 F           4.4591   -5.2045   18.2444 F       1  UNL1       -0.1659
     26 F           2.8777   -4.0894   19.1135 F       1  UNL1       -0.1659
     27 F           5.7829   -4.4944   19.7421 F       1  UNL1       -0.1659
     28 C           4.0214    0.4131   31.2566 C.3     1  UNL1        0.1934
     29 N           4.6659    1.0231   32.4660 N.ar    1  UNL1       -0.2969
     30 C           4.0299    2.2026   33.1402 C.ar    1  UNL1        0.0942
     31 C           4.6744    2.8126   34.3495 C.ar    1  UNL1        0.1326
     32 CL          4.0385    3.9920   35.0237 Cl      1  UNL1       -0.0756
     33 C           5.9548    2.2431   34.8847 C.ar    1  UNL1        0.2930
     34 O           6.5992    2.8531   36.0941 O.2     1  UNL1       -0.2641
     35 N           6.5906    1.0637   34.2105 N.ar    1  UNL1       -0.1837
     36 C           5.9462    0.4537   33.0012 C.ar    1  UNL1        0.1751
     37 S           6.5821   -0.7258   32.3270 S.3     1  UNL1       -0.0724
     38 C           6.0922   -2.1125   32.6221 C.3     1  UNL1        0.0913
     39 C           6.4178   -3.2381   31.6858 C.ar    1  UNL1       -0.0108
     40 C           6.7268   -4.6012   32.2304 C.ar    1  UNL1       -0.0011
     41 C           7.0525   -5.7269   31.2941 C.ar    1  UNL1        0.0293
     42 C           7.0692   -5.4895   29.8131 C.ar    1  UNL1        0.1401
     43 F           7.3949   -6.6152   28.8767 F       1  UNL1       -0.2042
     44 C           6.7602   -4.1264   29.2684 C.ar    1  UNL1        0.0293
     45 C           6.4346   -3.0008   30.2048 C.ar    1  UNL1       -0.0011
@<TRIPOS>BOND
     1     7     8    1
     2     8     6    1
     3     6     9    1
     4     9    10    1
     5     6     5    1
     6     5     4    1
     7     4     1    1
     8     1    11    1
     9    11    12    1
    10    12    13   ar
    11    13    14   ar
    12    14    15   ar
    13    15    18    1
    14    18    19   ar
    15    19    20   ar
    16    20    21   ar
    17    21    24    1
    18    24    25    1
    19    24    26    1
    20    24    27    1
    21    21    22   ar
    22    22    23   ar
    23    15    16   ar
    24    16    17   ar
    25     1     2   am
    26     2     3    2
    27     2    28    1
    28    28    29    1
    29    29    30   ar
    30    30    31   ar
    31    31    32    1
    32    31    33   ar
    33    33    34    2
    34    33    35   ar
    35    35    36   ar
    36    36    37    1
    37    37    38    1
    38    38    39    1
    39    39    40   ar
    40    40    41   ar
    41    41    42   ar
    42    42    43    1
    43    42    44   ar
    44    44    45   ar
    45    17    12   ar
    46    36    29   ar
    47    45    39   ar
    48    23    18   ar
@<TRIPOS>MOLECULE
*****
 45 48 0 0 0
SMALL
GASTEIGER

@<TRIPOS>ATOM
      1 N           1.8013    1.9108   28.2682 N.am    1  UNL1       -0.2724
      2 C           2.6024    1.4571   29.4524 C.2     1  UNL1        0.2491
      3 O           4.1010    1.4577   29.3888 O.2     1  UNL1       -0.2727
      4 C           0.3026    1.9102   28.3318 C.3     1  UNL1        0.1111
      5 C          -0.4984    1.4712   27.1420 C.3     1  UNL1        0.0939
      6 N          -1.0738    2.4931   26.2068 N.3     1  UNL1       -0.2712
      7 C          -1.0872    4.9129   27.1527 C.3     1  UNL1        0.0188
      8 C          -1.8262    3.6702   26.7531 C.3     1  UNL1        0.0722
      9 C          -0.8969    2.3379   24.7254 C.3     1  UNL1        0.0722
     10 C          -1.2154    3.4814   23.8082 C.3     1  UNL1        0.0188
     11 C           2.4988    2.3652   27.0204 C.3     1  UNL1        0.1202
     12 C           2.7743    1.3874   25.9167 C.ar    1  UNL1       -0.0023
     13 C           2.4992    1.7675   24.4920 C.ar    1  UNL1       -0.0026
     14 C           2.7746    0.7897   23.3884 C.ar    1  UNL1       -0.0003
     15 C           3.3251   -0.5682   23.7094 C.ar    1  UNL1       -0.0000
     16 C           3.6002   -0.9483   25.1341 C.ar    1  UNL1       -0.0003
     17 C           3.3248    0.0295   26.2377 C.ar    1  UNL1       -0.0026
     18 C           3.6006   -1.5460   22.6057 C.ar    1  UNL1       -0.0000
     19 C           3.1283   -1.2562   21.2118 C.ar    1  UNL1       -0.0001
     20 C           3.4037   -2.2340   20.1081 C.ar    1  UNL1        0.0039
     21 C           4.1515   -3.5015   20.3984 C.ar    1  UNL1        0.0714
     22 C           4.6237   -3.7913   21.7923 C.ar    1  UNL1        0.0039
     23 C           4.3483   -2.8135   22.8960 C.ar    1  UNL1       -0.0001
     24 C           4.4269   -4.4793   19.2947 C.3     1  UNL1        0.4186
     25 F           4.7023   -5.4571   18.1911 F       1  UNL1       -0.1659
     26 F           2.9716   -4.4794   18.9316 F       1  UNL1       -0.1659
     27 F           5.8823   -4.4792   19.6579 F       1  UNL1       -0.1659
     28 C           1.9048    1.0027   30.7002 C.3     1  UNL1        0.1934
     29 N           2.7031    0.6570   31.9222 N.ar    1  UNL1       -0.2969
     30 C           3.5147   -0.6041   31.9558 C.ar    1  UNL1        0.0942
     31 C           4.3130   -0.9498   33.1778 C.ar    1  UNL1        0.1326
     32 CL          5.1246   -2.2107   33.2116 Cl      1  UNL1       -0.0756
     33 C           4.2996   -0.0344   34.3661 C.ar    1  UNL1        0.2930
     34 O           5.0979   -0.3801   35.5881 O.2     1  UNL1       -0.2641
     35 N           3.4880    1.2266   34.3324 N.ar    1  UNL1       -0.1837
     36 C           2.6898    1.5723   33.1104 C.ar    1  UNL1        0.1751
     37 S           1.8782    2.8333   33.0767 S.3     1  UNL1       -0.0724
     38 C           2.2976    4.0174   33.8966 C.3     1  UNL1        0.0913
     39 C           1.2601    4.9078   34.5135 C.ar    1  UNL1       -0.0108
     40 C           0.1688    5.4883   33.6638 C.ar    1  UNL1       -0.0011
     41 C          -0.8688    6.3788   34.2808 C.ar    1  UNL1        0.0293
     42 C          -0.8149    6.6888   35.7474 C.ar    1  UNL1        0.1401
     43 F          -1.8524    7.5793   36.3643 F       1  UNL1       -0.2042
     44 C           0.2765    6.1083   36.5971 C.ar    1  UNL1        0.0293
     45 C           1.3140    5.2178   35.9801 C.ar    1  UNL1       -0.0011
@<TRIPOS>BOND
     1     7     8    1
     2     8     6    1
     3     6     9    1
     4     9    10    1
     5     6     5    1
     6     5     4    1
     7     4     1    1
     8     1    11    1
     9    11    12    1
    10    12    13   ar
    11    13    14   ar
    12    14    15   ar
    13    15    18    1
    14    18    19   ar
    15    19    20   ar
    16    20    21   ar
    17    21    24    1
    18    24    25    1
    19    24    26    1
    20    24    27    1
    21    21    22   ar
    22    22    23   ar
    23    15    16   ar
    24    16    17   ar
    25     1     2   am
    26     2     3    2
    27     2    28    1
    28    28    29    1
    29    29    30   ar
    30    30    31   ar
    31    31    32    1
    32    31    33   ar
    33    33    34    2
    34    33    35   ar
    35    35    36   ar
    36    36    37    1
    37    37    38    1
    38    38    39    1
    39    39    40   ar
    40    40    41   ar
    41    41    42   ar
    42    42    43    1
    43    42    44   ar
    44    44    45   ar
    45    17    12   ar
    46    36    29   ar
    47    45    39   ar
    48    23    18   ar
