@<TRIPOS>MOLECULE
*****
 27 30 0 0 0
SMALL
GASTEIGER

@<TRIPOS>ATOM
      1 C          -6.4388  -18.7674   21.1139 C.3     1  UNL1        0.1910
      2 C          -7.7618  -19.0788   20.4792 C.3     1  UNL1        0.0423
      3 C          -9.0353  -18.7008   21.1758 C.3     1  UNL1        0.0412
      4 C         -10.3583  -19.0121   20.5411 C.3     1  UNL1        0.0672
      5 S         -11.6318  -18.6341   21.2376 S.3     1  UNL1       -0.0807
      6 C         -11.5823  -17.9447   22.5689 C.2     1  UNL1        0.1482
      7 N         -12.8559  -17.5666   23.2654 N.pl3   1  UNL1       -0.3380
      8 N         -10.2594  -17.6333   23.2036 N.2     1  UNL1       -0.2484
      9 C          -8.9858  -18.0113   22.5070 C.3     1  UNL1        0.1352
     10 C          -7.6629  -17.7000   23.1417 C.3     1  UNL1        0.1692
     11 O          -6.3894  -18.0780   22.4452 O.3     1  UNL1       -0.3446
     12 H         -13.7242  -17.7710   22.8489 H       1  UNL1        0.1442
     13 H         -12.8235  -17.1141   24.1392 H       1  UNL1        0.1442
     14 C          -8.9364  -17.3219   23.8383 C.ar    1  UNL1        0.0278
     15 C          -8.6172  -15.8581   23.9135 C.ar    1  UNL1        0.0021
     16 C          -8.5678  -15.1687   25.2447 C.ar    1  UNL1        0.0295
     17 C          -8.8376  -15.9431   26.5008 C.ar    1  UNL1        0.1424
     18 F          -8.7882  -15.2536   27.8321 F       1  UNL1       -0.2041
     19 C          -9.1567  -17.4067   26.4256 C.ar    1  UNL1        0.0590
     20 C          -9.2062  -18.0962   25.0943 C.ar    1  UNL1        0.1402
     21 F          -9.5253  -19.5599   25.0191 F       1  UNL1       -0.2044
     22 C          -1.7365  -18.4623   18.7314 C.3     1  UNL1        0.0556
     23 C          -3.0039  -19.0052   19.3222 C.ar    1  UNL1        0.0997
     24 C          -3.4071  -20.4493   19.3688 C.ar    1  UNL1        0.1958
     25 O          -4.7429  -20.5360   20.0456 O.2     1  UNL1       -0.4331
     26 C          -5.1653  -19.1455   20.4173 C.ar    1  UNL1        0.2327
     27 N          -4.0905  -18.1995   19.9703 N.ar    1  UNL1       -0.2144
@<TRIPOS>BOND
     1    22    23    1
     2    23    24   ar
     3    24    25   ar
     4    25    26   ar
     5     1    26    1
     6     1     2    1
     7     3     2    1
     8     3     4    1
     9     4     5    1
    10     5     6    1
    11     6     7    1
    12     6     8    2
    13     8     9    1
    14     9    14    1
    15    14    15   ar
    16    15    16   ar
    17    16    17   ar
    18    17    18    1
    19    17    19   ar
    20    19    20   ar
    21    20    21    1
    22     9    10    1
    23    10    11    1
    24    26    27   ar
    25    27    23   ar
    26    11     1    1
    27     9     3    1
    28    20    14   ar
    29     7    12    1
    30     7    13    1
@<TRIPOS>MOLECULE
*****
 27 30 0 0 0
SMALL
GASTEIGER

@<TRIPOS>ATOM
      1 C          -6.0598  -19.0469   21.1542 C.3     1  UNL1        0.1910
      2 C          -6.5762  -19.8536   22.3085 C.3     1  UNL1        0.0423
      3 C          -8.0131  -19.7360   22.7224 C.3     1  UNL1        0.0412
      4 C          -8.5296  -20.5428   23.8768 C.3     1  UNL1        0.0672
      5 S          -9.9665  -20.4251   24.2907 S.3     1  UNL1       -0.0807
      6 C         -10.8870  -19.5007   23.5504 C.2     1  UNL1        0.1482
      7 N         -12.3240  -19.3830   23.9644 N.pl3   1  UNL1       -0.3380
      8 N         -10.3706  -18.6939   22.3961 N.2     1  UNL1       -0.2484
      9 C          -8.9336  -18.8115   21.9821 C.3     1  UNL1        0.1352
     10 C          -8.4172  -18.0048   20.8278 C.3     1  UNL1        0.1692
     11 O          -6.9803  -18.1224   20.4139 O.3     1  UNL1       -0.3446
     12 H         -12.6629  -19.9125   24.7220 H       1  UNL1        0.1442
     13 H         -12.9282  -18.7763   23.4785 H       1  UNL1        0.1442
     14 C          -9.8541  -17.8871   21.2417 C.ar    1  UNL1        0.0278
     15 C          -9.9805  -16.4545   21.6681 C.ar    1  UNL1        0.0021
     16 C         -10.9010  -15.5301   20.9278 C.ar    1  UNL1        0.0295
     17 C         -11.6951  -16.0383   19.7611 C.ar    1  UNL1        0.1424
     18 F         -12.6156  -15.1138   19.0207 F       1  UNL1       -0.2041
     19 C         -11.5687  -17.4708   19.3347 C.ar    1  UNL1        0.0590
     20 C         -10.6482  -18.3952   20.0751 C.ar    1  UNL1        0.1402
     21 F         -10.5218  -19.8278   19.6488 F       1  UNL1       -0.2044
     22 C          -1.4115  -18.1169   18.8283 C.3     1  UNL1        0.0556
     23 C          -2.4862  -18.7371   19.6712 C.ar    1  UNL1        0.0997
     24 C          -2.3369  -19.9541   20.5353 C.ar    1  UNL1        0.1958
     25 O          -3.6574  -20.2182   21.1960 O.2     1  UNL1       -0.4331
     26 C          -4.6228  -19.1645   20.7402 C.ar    1  UNL1        0.2327
     27 N          -3.8990  -18.2491   19.7979 N.ar    1  UNL1       -0.2144
@<TRIPOS>BOND
     1    22    23    1
     2    23    24   ar
     3    24    25   ar
     4    25    26   ar
     5     1    26    1
     6     1     2    1
     7     3     2    1
     8     3     4    1
     9     4     5    1
    10     5     6    1
    11     6     7    1
    12     6     8    2
    13     8     9    1
    14     9    14    1
    15    14    15   ar
    16    15    16   ar
    17    16    17   ar
    18    17    18    1
    19    17    19   ar
    20    19    20   ar
    21    20    21    1
    22     9    10    1
    23    10    11    1
    24    26    27   ar
    25    27    23   ar
    26    11     1    1
    27     9     3    1
    28    20    14   ar
    29     7    12    1
    30     7    13    1
@<TRIPOS>MOLECULE
*****
 27 30 0 0 0
SMALL
GASTEIGER

@<TRIPOS>ATOM
      1 C          -4.6590  -17.7485   22.4555 C.3     1  UNL1        0.1910
      2 C          -4.3805  -16.9680   23.7057 C.3     1  UNL1        0.0423
      3 C          -5.5176  -16.4346   24.5258 C.3     1  UNL1        0.0412
      4 C          -5.2391  -15.6540   25.7761 C.3     1  UNL1        0.0672
      5 S          -6.3762  -15.1206   26.5961 S.3     1  UNL1       -0.0807
      6 C          -7.7918  -15.3677   26.1659 C.2     1  UNL1        0.1482
      7 N          -8.9289  -14.8343   26.9860 N.pl3   1  UNL1       -0.3380
      8 N          -8.0703  -16.1482   24.9156 N.2     1  UNL1       -0.2484
      9 C          -6.9331  -16.6817   24.0955 C.3     1  UNL1        0.1352
     10 C          -7.2116  -17.4622   22.8453 C.3     1  UNL1        0.1692
     11 O          -6.0746  -17.9956   22.0252 O.3     1  UNL1       -0.3446
     12 H          -8.7461  -14.3220   27.8066 H       1  UNL1        0.1442
     13 H          -9.8580  -14.9965   26.7036 H       1  UNL1        0.1442
     14 C          -8.3487  -16.9288   23.6653 C.ar    1  UNL1        0.0278
     15 C          -9.1399  -18.0390   24.2912 C.ar    1  UNL1        0.0021
     16 C         -10.5554  -18.2861   23.8609 C.ar    1  UNL1        0.0295
     17 C         -11.1799  -17.4230   22.8048 C.ar    1  UNL1        0.1424
     18 F         -12.5954  -17.6701   22.3746 F       1  UNL1       -0.2041
     19 C         -10.3887  -16.3129   22.1790 C.ar    1  UNL1        0.0590
     20 C          -8.9731  -16.0658   22.6092 C.ar    1  UNL1        0.1402
     21 F          -8.1820  -14.9557   21.9834 F       1  UNL1       -0.2044
     22 C          -0.2384  -18.0280   19.5811 C.3     1  UNL1        0.0556
     23 C          -1.4900  -18.4104   20.3142 C.ar    1  UNL1        0.0997
     24 C          -2.0543  -19.7952   20.4326 C.ar    1  UNL1        0.1958
     25 O          -3.3100  -19.7158   21.2491 O.2     1  UNL1       -0.4331
     26 C          -3.5219  -18.2819   21.6354 C.ar    1  UNL1        0.2327
     27 N          -2.3971  -17.4752   21.0575 N.ar    1  UNL1       -0.2144
@<TRIPOS>BOND
     1    22    23    1
     2    23    24   ar
     3    24    25   ar
     4    25    26   ar
     5     1    26    1
     6     1     2    1
     7     3     2    1
     8     3     4    1
     9     4     5    1
    10     5     6    1
    11     6     7    1
    12     6     8    2
    13     8     9    1
    14     9    14    1
    15    14    15   ar
    16    15    16   ar
    17    16    17   ar
    18    17    18    1
    19    17    19   ar
    20    19    20   ar
    21    20    21    1
    22     9    10    1
    23    10    11    1
    24    26    27   ar
    25    27    23   ar
    26    11     1    1
    27     9     3    1
    28    20    14   ar
    29     7    12    1
    30     7    13    1
@<TRIPOS>MOLECULE
*****
 27 30 0 0 0
SMALL
GASTEIGER

@<TRIPOS>ATOM
      1 C          -4.9981  -18.9852   20.9945 C.3     1  UNL1        0.1910
      2 C          -5.8995  -19.2878   19.8345 C.3     1  UNL1        0.0423
      3 C          -7.3864  -19.3220   20.0291 C.3     1  UNL1        0.0412
      4 C          -8.2880  -19.6247   18.8690 C.3     1  UNL1        0.0672
      5 S          -9.7749  -19.6589   19.0637 S.3     1  UNL1       -0.0807
      6 C         -10.3603  -19.3906   20.4185 C.2     1  UNL1        0.1482
      7 N         -11.8473  -19.4249   20.6131 N.pl3   1  UNL1       -0.3380
      8 N          -9.4588  -19.0880   21.5785 N.2     1  UNL1       -0.2484
      9 C          -7.9718  -19.0537   21.3839 C.3     1  UNL1        0.1352
     10 C          -7.0704  -18.7512   22.5439 C.3     1  UNL1        0.1692
     11 O          -5.5835  -18.7169   22.3492 O.3     1  UNL1       -0.3446
     12 H         -12.4389  -19.6235   19.8517 H       1  UNL1        0.1442
     13 H         -12.2315  -19.2488   21.5022 H       1  UNL1        0.1442
     14 C          -8.5573  -18.7854   22.7386 C.ar    1  UNL1        0.0278
     15 C          -9.0386  -19.9252   23.5868 C.ar    1  UNL1        0.0021
     16 C          -9.6240  -19.6569   24.9415 C.ar    1  UNL1        0.0295
     17 C          -9.7281  -18.2488   25.4480 C.ar    1  UNL1        0.1424
     18 F         -10.3136  -17.9805   26.8028 F       1  UNL1       -0.2041
     19 C          -9.2468  -17.1091   24.5999 C.ar    1  UNL1        0.0590
     20 C          -8.6614  -17.3774   23.2452 C.ar    1  UNL1        0.1402
     21 F          -8.1801  -16.2378   22.3970 F       1  UNL1       -0.2044
     22 C          -0.1038  -17.2812   19.9826 C.3     1  UNL1        0.0556
     23 C          -1.2615  -18.1677   20.3347 C.ar    1  UNL1        0.0997
     24 C          -1.1844  -19.6287   20.6660 C.ar    1  UNL1        0.1958
     25 O          -2.5748  -20.1127   20.9534 O.2     1  UNL1       -0.4331
     26 C          -3.5111  -18.9509   20.7999 C.ar    1  UNL1        0.2327
     27 N          -2.6994  -17.7488   20.4175 N.ar    1  UNL1       -0.2144
@<TRIPOS>BOND
     1    22    23    1
     2    23    24   ar
     3    24    25   ar
     4    25    26   ar
     5     1    26    1
     6     1     2    1
     7     3     2    1
     8     3     4    1
     9     4     5    1
    10     5     6    1
    11     6     7    1
    12     6     8    2
    13     8     9    1
    14     9    14    1
    15    14    15   ar
    16    15    16   ar
    17    16    17   ar
    18    17    18    1
    19    17    19   ar
    20    19    20   ar
    21    20    21    1
    22     9    10    1
    23    10    11    1
    24    26    27   ar
    25    27    23   ar
    26    11     1    1
    27     9     3    1
    28    20    14   ar
    29     7    12    1
    30     7    13    1
@<TRIPOS>MOLECULE
*****
 27 30 0 0 0
SMALL
GASTEIGER

@<TRIPOS>ATOM
      1 C           3.5330   -0.8610   24.6722 C.3     1  UNL1        0.1910
      2 C           4.2097   -2.0860   24.1324 C.3     1  UNL1        0.0423
      3 C           4.1941   -2.3633   22.6583 C.3     1  UNL1        0.0412
      4 C           4.8707   -3.5884   22.1184 C.3     1  UNL1        0.0672
      5 S           4.8551   -3.8657   20.6444 S.3     1  UNL1       -0.0807
      6 C           4.1629   -2.9180   19.7102 C.2     1  UNL1        0.1482
      7 N           4.1473   -3.1954   18.2361 N.pl3   1  UNL1       -0.3380
      8 N           3.4863   -1.6930   20.2501 N.2     1  UNL1       -0.2484
      9 C           3.5018   -1.4156   21.7242 C.3     1  UNL1        0.1352
     10 C           2.8252   -0.1906   22.2640 C.3     1  UNL1        0.1692
     11 O           2.8408    0.0867   23.7381 O.3     1  UNL1       -0.3446
     12 H           4.5914   -3.9994   17.8818 H       1  UNL1        0.1442
     13 H           3.6930   -2.5734   17.6230 H       1  UNL1        0.1442
     14 C           2.8096   -0.4680   20.7900 C.ar    1  UNL1        0.0278
     15 C           1.3469   -0.6336   20.5015 C.ar    1  UNL1        0.0021
     16 C           0.6547    0.3141   19.5674 C.ar    1  UNL1        0.0295
     17 C           1.4251    1.4274   18.9216 C.ar    1  UNL1        0.1424
     18 F           0.7329    2.3751   17.9875 F       1  UNL1       -0.2041
     19 C           2.8877    1.5931   19.2101 C.ar    1  UNL1        0.0590
     20 C           3.5800    0.6454   20.1443 C.ar    1  UNL1        0.1402
     21 F           5.0426    0.8110   20.4327 F       1  UNL1       -0.2044
     22 C           3.7670    1.6607   29.3055 C.3     1  UNL1        0.0556
     23 C           3.6561    0.5754   28.2760 C.ar    1  UNL1        0.0997
     24 C           3.4890   -0.8893   28.5534 C.ar    1  UNL1        0.1958
     25 O           3.4226   -1.6056   27.2371 O.2     1  UNL1       -0.4331
     26 C           3.5486   -0.5837   26.1463 C.ar    1  UNL1        0.2327
     27 N           3.6930    0.7642   26.7884 N.ar    1  UNL1       -0.2144
@<TRIPOS>BOND
     1    22    23    1
     2    23    24   ar
     3    24    25   ar
     4    25    26   ar
     5     1    26    1
     6     1     2    1
     7     3     2    1
     8     3     4    1
     9     4     5    1
    10     5     6    1
    11     6     7    1
    12     6     8    2
    13     8     9    1
    14     9    14    1
    15    14    15   ar
    16    15    16   ar
    17    16    17   ar
    18    17    18    1
    19    17    19   ar
    20    19    20   ar
    21    20    21    1
    22     9    10    1
    23    10    11    1
    24    26    27   ar
    25    27    23   ar
    26    11     1    1
    27     9     3    1
    28    20    14   ar
    29     7    12    1
    30     7    13    1
@<TRIPOS>MOLECULE
*****
 27 30 0 0 0
SMALL
GASTEIGER

@<TRIPOS>ATOM
      1 C           6.3373   -3.6612   22.6150 C.3     1  UNL1        0.1910
      2 C           7.1268   -3.4819   21.3523 C.3     1  UNL1        0.0423
      3 C           6.6243   -2.5641   20.2776 C.3     1  UNL1        0.0412
      4 C           7.4138   -2.3848   19.0148 C.3     1  UNL1        0.0672
      5 S           6.9113   -1.4670   17.9400 S.3     1  UNL1       -0.0807
      6 C           5.6192   -0.7286   18.1279 C.2     1  UNL1        0.1482
      7 N           5.1167    0.1891   17.0531 N.pl3   1  UNL1       -0.3380
      8 N           4.8297   -0.9079   19.3906 N.2     1  UNL1       -0.2484
      9 C           5.3322   -1.8257   20.4655 C.3     1  UNL1        0.1352
     10 C           4.5427   -2.0050   21.7282 C.3     1  UNL1        0.1692
     11 O           5.0453   -2.9228   22.8030 O.3     1  UNL1       -0.3446
     12 H           5.6349    0.3068   16.2243 H       1  UNL1        0.1442
     13 H           4.2686    0.6738   17.1764 H       1  UNL1        0.1442
     14 C           4.0402   -1.0873   20.6534 C.ar    1  UNL1        0.0278
     15 C           4.0224    0.2163   21.3954 C.ar    1  UNL1        0.0021
     16 C           2.7303    0.9547   21.5833 C.ar    1  UNL1        0.0295
     17 C           1.4560    0.3895   21.0293 C.ar    1  UNL1        0.1424
     18 F           0.1640    1.1279   21.2172 F       1  UNL1       -0.2041
     19 C           1.4739   -0.9140   20.2874 C.ar    1  UNL1        0.0590
     20 C           2.7659   -1.6524   20.0995 C.ar    1  UNL1        0.1402
     21 F           2.7838   -2.9559   19.3575 F       1  UNL1       -0.2044
     22 C           8.7395   -7.6639   25.0826 C.3     1  UNL1        0.0556
     23 C           7.9440   -6.4188   24.8241 C.ar    1  UNL1        0.0997
     24 C           7.2823   -5.5635   25.8637 C.ar    1  UNL1        0.1958
     25 O           6.5999   -4.4265   25.1627 O.2     1  UNL1       -0.4331
     26 C           6.8399   -4.5789   23.6899 C.ar    1  UNL1        0.2327
     27 N           7.6706   -5.8102   23.4806 N.ar    1  UNL1       -0.2144
@<TRIPOS>BOND
     1    22    23    1
     2    23    24   ar
     3    24    25   ar
     4    25    26   ar
     5     1    26    1
     6     1     2    1
     7     3     2    1
     8     3     4    1
     9     4     5    1
    10     5     6    1
    11     6     7    1
    12     6     8    2
    13     8     9    1
    14     9    14    1
    15    14    15   ar
    16    15    16   ar
    17    16    17   ar
    18    17    18    1
    19    17    19   ar
    20    19    20   ar
    21    20    21    1
    22     9    10    1
    23    10    11    1
    24    26    27   ar
    25    27    23   ar
    26    11     1    1
    27     9     3    1
    28    20    14   ar
    29     7    12    1
    30     7    13    1
@<TRIPOS>MOLECULE
*****
 27 30 0 0 0
SMALL
GASTEIGER

@<TRIPOS>ATOM
      1 C           2.2513    0.0596   30.2717 C.3     1  UNL1        0.1910
      2 C           3.3871   -0.6750   29.6234 C.3     1  UNL1        0.0423
      3 C           4.6368   -0.9613   30.4021 C.3     1  UNL1        0.0412
      4 C           5.7727   -1.6960   29.7539 C.3     1  UNL1        0.0672
      5 S           7.0223   -1.9823   30.5325 S.3     1  UNL1       -0.0807
      6 C           7.1362   -1.5340   31.9594 C.2     1  UNL1        0.1482
      7 N           8.3859   -1.8203   32.7381 N.pl3   1  UNL1       -0.3380
      8 N           6.0004   -0.7994   32.6077 N.2     1  UNL1       -0.2484
      9 C           4.7506   -0.5130   31.8290 C.3     1  UNL1        0.1352
     10 C           3.6148    0.2216   32.4773 C.3     1  UNL1        0.1692
     11 O           2.3652    0.5079   31.6986 O.3     1  UNL1       -0.3446
     12 H           9.1314   -2.3024   32.3126 H       1  UNL1        0.1442
     13 H           8.4606   -1.5261   33.6746 H       1  UNL1        0.1442
     14 C           4.8645   -0.0647   33.2559 C.ar    1  UNL1        0.0278
     15 C           5.3304    1.3261   33.5702 C.ar    1  UNL1        0.0021
     16 C           5.4442    1.7744   34.9971 C.ar    1  UNL1        0.0295
     17 C           5.0922    0.8319   36.1097 C.ar    1  UNL1        0.1424
     18 F           5.2060    1.2802   37.5366 F       1  UNL1       -0.2041
     19 C           4.6263   -0.5588   35.7954 C.ar    1  UNL1        0.0590
     20 C           4.5124   -1.0071   34.3685 C.ar    1  UNL1        0.1402
     21 F           4.0465   -2.3978   34.0542 F       1  UNL1       -0.2044
     22 C          -1.2402    2.3602   27.0471 C.3     1  UNL1        0.0556
     23 C          -0.6033    1.4034   28.0109 C.ar    1  UNL1        0.0997
     24 C          -1.2398    0.1695   28.5788 C.ar    1  UNL1        0.1958
     25 O          -0.2480   -0.4840   29.4948 O.2     1  UNL1       -0.4331
     26 C           1.0016    0.3459   29.4930 C.ar    1  UNL1        0.2327
     27 N           0.7820    1.5123   28.5759 N.ar    1  UNL1       -0.2144
@<TRIPOS>BOND
     1    22    23    1
     2    23    24   ar
     3    24    25   ar
     4    25    26   ar
     5     1    26    1
     6     1     2    1
     7     3     2    1
     8     3     4    1
     9     4     5    1
    10     5     6    1
    11     6     7    1
    12     6     8    2
    13     8     9    1
    14     9    14    1
    15    14    15   ar
    16    15    16   ar
    17    16    17   ar
    18    17    18    1
    19    17    19   ar
    20    19    20   ar
    21    20    21    1
    22     9    10    1
    23    10    11    1
    24    26    27   ar
    25    27    23   ar
    26    11     1    1
    27     9     3    1
    28    20    14   ar
    29     7    12    1
    30     7    13    1
@<TRIPOS>MOLECULE
*****
 27 30 0 0 0
SMALL
GASTEIGER

@<TRIPOS>ATOM
      1 C           2.2624    0.2165   30.4825 C.3     1  UNL1        0.1910
      2 C           2.2756    1.0001   31.7614 C.3     1  UNL1        0.0423
      3 C           3.3578    0.7659   32.7733 C.3     1  UNL1        0.0412
      4 C           3.3710    1.5495   34.0523 C.3     1  UNL1        0.0672
      5 S           4.4532    1.3153   35.0642 S.3     1  UNL1       -0.0807
      6 C           5.5222    0.2975   34.7972 C.2     1  UNL1        0.1482
      7 N           6.6044    0.0633   35.8092 N.pl3   1  UNL1       -0.3380
      8 N           5.5090   -0.4861   33.5182 N.2     1  UNL1       -0.2484
      9 C           4.4267   -0.2519   32.5062 C.3     1  UNL1        0.1352
     10 C           4.4136   -1.0355   31.2273 C.3     1  UNL1        0.1692
     11 O           3.3314   -0.8013   30.2154 O.3     1  UNL1       -0.3446
     12 H           6.6130    0.5776   36.6486 H       1  UNL1        0.1442
     13 H           7.3060   -0.6048   35.6339 H       1  UNL1        0.1442
     14 C           5.4957   -1.2698   32.2392 C.ar    1  UNL1        0.0278
     15 C           6.7455   -0.8715   31.5113 C.ar    1  UNL1        0.0021
     16 C           7.8144   -1.8893   31.2443 C.ar    1  UNL1        0.0295
     17 C           7.6337   -3.3054   31.7051 C.ar    1  UNL1        0.1424
     18 F           8.7027   -4.3232   31.4380 F       1  UNL1       -0.2041
     19 C           6.3840   -3.7035   32.4329 C.ar    1  UNL1        0.0590
     20 C           5.3150   -2.6857   32.6999 C.ar    1  UNL1        0.1402
     21 F           4.0654   -3.0839   33.4277 F       1  UNL1       -0.2044
     22 C          -0.2378    1.4400   25.9954 C.3     1  UNL1        0.0556
     23 C           0.0310    1.0131   27.4081 C.ar    1  UNL1        0.0997
     24 C          -1.0014    0.6091   28.4186 C.ar    1  UNL1        0.1958
     25 O          -0.2911    0.2615   29.6932 O.2     1  UNL1       -0.4331
     26 C           1.1802    0.4507   29.4705 C.ar    1  UNL1        0.2327
     27 N           1.3792    0.9152   28.0582 N.ar    1  UNL1       -0.2144
@<TRIPOS>BOND
     1    22    23    1
     2    23    24   ar
     3    24    25   ar
     4    25    26   ar
     5     1    26    1
     6     1     2    1
     7     3     2    1
     8     3     4    1
     9     4     5    1
    10     5     6    1
    11     6     7    1
    12     6     8    2
    13     8     9    1
    14     9    14    1
    15    14    15   ar
    16    15    16   ar
    17    16    17   ar
    18    17    18    1
    19    17    19   ar
    20    19    20   ar
    21    20    21    1
    22     9    10    1
    23    10    11    1
    24    26    27   ar
    25    27    23   ar
    26    11     1    1
    27     9     3    1
    28    20    14   ar
    29     7    12    1
    30     7    13    1
@<TRIPOS>MOLECULE
*****
 27 30 0 0 0
SMALL
GASTEIGER

@<TRIPOS>ATOM
      1 C           3.6225   -0.4028   24.0952 C.3     1  UNL1        0.1910
      2 C           3.8515    0.8675   23.3312 C.3     1  UNL1        0.0423
      3 C           4.2098    0.8131   21.8757 C.3     1  UNL1        0.0412
      4 C           4.4389    2.0835   21.1116 C.3     1  UNL1        0.0672
      5 S           4.7972    2.0291   19.6561 S.3     1  UNL1       -0.0807
      6 C           4.9264    0.7043   18.9645 C.2     1  UNL1        0.1482
      7 N           5.2847    0.6499   17.5089 N.pl3   1  UNL1       -0.3380
      8 N           4.6973   -0.5661   19.7285 N.2     1  UNL1       -0.2484
      9 C           4.3390   -0.5117   21.1841 C.3     1  UNL1        0.1352
     10 C           4.1099   -1.7820   21.9481 C.3     1  UNL1        0.1692
     11 O           3.7517   -1.7276   23.4036 O.3     1  UNL1       -0.3446
     12 H           5.4351    1.4837   17.0075 H       1  UNL1        0.1442
     13 H           5.3695   -0.2196   17.0550 H       1  UNL1        0.1442
     14 C           4.4682   -1.8365   20.4925 C.ar    1  UNL1        0.0278
     15 C           5.7910   -2.5435   20.4673 C.ar    1  UNL1        0.0021
     16 C           5.9202   -3.8682   19.7757 C.ar    1  UNL1        0.0295
     17 C           4.7266   -4.4860   19.1094 C.ar    1  UNL1        0.1424
     18 F           4.8558   -5.8108   18.4178 F       1  UNL1       -0.2041
     19 C           3.4040   -3.7790   19.1347 C.ar    1  UNL1        0.0590
     20 C           3.2748   -2.4542   19.8263 C.ar    1  UNL1        0.1402
     21 F           1.9521   -1.7472   19.8516 F       1  UNL1       -0.2044
     22 C           1.5666    1.1432   28.7065 C.3     1  UNL1        0.0556
     23 C           2.3192    0.3621   27.6704 C.ar    1  UNL1        0.0997
     24 C           3.1065   -0.8918   27.9110 C.ar    1  UNL1        0.1958
     25 O           3.6905   -1.3310   26.6010 O.2     1  UNL1       -0.4331
     26 C           3.2642   -0.3485   25.5508 C.ar    1  UNL1        0.2327
     27 N           2.4167    0.6979   26.2117 N.ar    1  UNL1       -0.2144
@<TRIPOS>BOND
     1    22    23    1
     2    23    24   ar
     3    24    25   ar
     4    25    26   ar
     5     1    26    1
     6     1     2    1
     7     3     2    1
     8     3     4    1
     9     4     5    1
    10     5     6    1
    11     6     7    1
    12     6     8    2
    13     8     9    1
    14     9    14    1
    15    14    15   ar
    16    15    16   ar
    17    16    17   ar
    18    17    18    1
    19    17    19   ar
    20    19    20   ar
    21    20    21    1
    22     9    10    1
    23    10    11    1
    24    26    27   ar
    25    27    23   ar
    26    11     1    1
    27     9     3    1
    28    20    14   ar
    29     7    12    1
    30     7    13    1
