@<TRIPOS>MOLECULE
*****
 30 33 0 0 0
SMALL
GASTEIGER

@<TRIPOS>ATOM
      1 C          -9.0112  -17.3122   23.3776 C.ar    1  UNL1        0.1194
      2 N          -8.4447  -15.9510   23.6537 N.ar    1  UNL1       -0.2208
      3 C          -6.9822  -15.6911   23.4458 C.ar    1  UNL1        0.2002
      4 N          -6.0860  -16.7923   22.9618 N.ar    1  UNL1       -0.2058
      5 C          -6.6525  -18.1535   22.6857 C.ar    1  UNL1        0.1695
      6 C          -8.1151  -18.4135   22.8936 C.ar    1  UNL1        0.1835
      7 O          -8.6816  -19.7746   22.6175 O.3     1  UNL1       -0.5020
      8 H          -8.1219  -20.4625   22.3151 H       1  UNL1        0.2924
      9 C         -14.8617  -18.3520   24.2091 C.3     1  UNL1        0.0310
     10 C         -13.3991  -18.0920   24.0012 C.ar    1  UNL1       -0.0218
     11 C         -12.3822  -18.8321   24.8186 C.ar    1  UNL1       -0.0042
     12 C         -10.9196  -18.5721   24.6108 C.ar    1  UNL1        0.0013
     13 C         -10.4738  -17.5722   23.5854 C.ar    1  UNL1        0.0208
     14 C         -11.4907  -16.8321   22.7680 C.ar    1  UNL1        0.0013
     15 C         -12.9533  -17.0920   22.9758 C.ar    1  UNL1       -0.0042
     16 N          -5.7564  -19.2548   22.2017 N.pl3   1  UNL1       -0.2948
     17 H          -6.0788  -20.1850   22.1957 H       1  UNL1        0.1537
     18 C          -4.3691  -18.9387   21.7268 C.ar    1  UNL1        0.0599
     19 C          -3.2472  -18.8187   22.7153 C.ar    1  UNL1        0.0157
     20 C          -1.8599  -18.5027   22.2405 C.ar    1  UNL1        0.0085
     21 C          -1.5945  -18.3067   20.7771 C.ar    1  UNL1        0.0823
     22 C          -2.7163  -18.4267   19.7888 C.ar    1  UNL1        0.0430
     23 C          -4.1037  -18.7428   20.2636 C.ar    1  UNL1        0.0712
     24 CL         -5.2256  -18.8628   19.2752 Cl      1  UNL1       -0.0811
     25 C          -2.1554  -18.1827   18.4191 C.3     1  UNL1        0.2277
     26 N          -0.6870  -17.9119   18.5611 N.pl3   1  UNL1       -0.2153
     27 C          -0.3402  -17.9885   20.0184 C.2     1  UNL1        0.3122
     28 N           1.0216  -17.7830   20.6127 N.2     1  UNL1       -0.0993
     29 H          -0.0607  -17.7178   17.8266 H       1  UNL1        0.2926
     30 H           1.7873  -17.5768   20.0292 H       1  UNL1        0.3633
@<TRIPOS>BOND
     1     9    10    1
     2    10    11   ar
     3    11    12   ar
     4    12    13   ar
     5    13     1    1
     6     1     2   ar
     7     2     3   ar
     8     3     4   ar
     9     4     5   ar
    10     5    16    1
    11    16    18    1
    12    18    19   ar
    13    19    20   ar
    14    20    21   ar
    15    21    22   ar
    16    22    23   ar
    17    23    24    1
    18    22    25    1
    19    25    26    1
    20    26    27    1
    21    27    28    2
    22     5     6   ar
    23     6     7    1
    24    13    14   ar
    25    14    15   ar
    26    15    10   ar
    27     6     1   ar
    28    23    18   ar
    29    27    21    1
    30    16    17    1
    31    26    29    1
    32    28    30    1
    33     7     8    1
@<TRIPOS>MOLECULE
*****
 30 33 0 0 0
SMALL
GASTEIGER

@<TRIPOS>ATOM
      1 C          -9.0978  -17.2214   23.4137 C.ar    1  UNL1        0.1194
      2 N          -8.5773  -15.8363   23.6595 N.ar    1  UNL1       -0.2208
      3 C          -7.1218  -15.5352   23.4574 C.ar    1  UNL1        0.2002
      4 N          -6.1868  -16.6193   23.0095 N.ar    1  UNL1       -0.2058
      5 C          -6.7073  -18.0044   22.7637 C.ar    1  UNL1        0.1695
      6 C          -8.1628  -18.3055   22.9658 C.ar    1  UNL1        0.1835
      7 O          -8.6833  -19.6906   22.7201 O.3     1  UNL1       -0.5020
      8 H          -8.0993  -20.3678   22.4403 H       1  UNL1        0.2924
      9 C         -14.9198  -18.4258   24.2221 C.3     1  UNL1        0.0310
     10 C         -13.4643  -18.1247   24.0200 C.ar    1  UNL1       -0.0218
     11 C         -13.0405  -17.1434   22.9677 C.ar    1  UNL1       -0.0042
     12 C         -11.5850  -16.8423   22.7656 C.ar    1  UNL1        0.0013
     13 C         -10.5533  -17.5225   23.6158 C.ar    1  UNL1        0.0208
     14 C         -10.9771  -18.5038   24.6681 C.ar    1  UNL1        0.0013
     15 C         -12.4325  -18.8050   24.8702 C.ar    1  UNL1       -0.0042
     16 N          -5.7723  -19.0885   22.3159 N.pl3   1  UNL1       -0.2948
     17 H          -5.8786  -20.0041   22.6616 H       1  UNL1        0.1537
     18 C          -4.6752  -18.7774   21.3413 C.ar    1  UNL1        0.0599
     19 C          -4.8849  -19.0153   19.8751 C.ar    1  UNL1        0.0157
     20 C          -3.7879  -18.7042   18.9006 C.ar    1  UNL1        0.0085
     21 C          -2.4812  -18.1553   19.3922 C.ar    1  UNL1        0.0823
     22 C          -2.2717  -17.9175   20.8582 C.ar    1  UNL1        0.0430
     23 C          -3.3687  -18.2286   21.8329 C.ar    1  UNL1        0.0712
     24 CL         -3.1592  -17.9907   23.2990 Cl      1  UNL1       -0.0811
     25 C          -0.8871  -17.3719   21.0460 C.3     1  UNL1        0.2277
     26 N          -0.2410  -17.2725   19.6961 N.pl3   1  UNL1       -0.2153
     27 C          -1.2262  -17.7567   18.6738 C.2     1  UNL1        0.3122
     28 N          -0.9967  -17.8294   17.1933 N.2     1  UNL1       -0.0993
     29 H           0.6698  -16.9466   19.5130 H       1  UNL1        0.2926
     30 H          -0.1344  -17.5431   16.8142 H       1  UNL1        0.3633
@<TRIPOS>BOND
     1     9    10    1
     2    10    11   ar
     3    11    12   ar
     4    12    13   ar
     5    13     1    1
     6     1     2   ar
     7     2     3   ar
     8     3     4   ar
     9     4     5   ar
    10     5    16    1
    11    16    18    1
    12    18    19   ar
    13    19    20   ar
    14    20    21   ar
    15    21    22   ar
    16    22    23   ar
    17    23    24    1
    18    22    25    1
    19    25    26    1
    20    26    27    1
    21    27    28    2
    22     5     6   ar
    23     6     7    1
    24    13    14   ar
    25    14    15   ar
    26    15    10   ar
    27     6     1   ar
    28    23    18   ar
    29    27    21    1
    30    16    17    1
    31    26    29    1
    32    28    30    1
    33     7     8    1
@<TRIPOS>MOLECULE
*****
 30 33 0 0 0
SMALL
GASTEIGER

@<TRIPOS>ATOM
      1 C          -9.7904  -19.2554   21.3616 C.ar    1  UNL1        0.1194
      2 N          -9.9364  -19.2026   19.8697 N.ar    1  UNL1       -0.2208
      3 C          -8.7633  -19.5181   18.9897 C.ar    1  UNL1        0.2002
      4 N          -7.4442  -19.8862   19.6017 N.ar    1  UNL1       -0.2058
      5 C          -7.2982  -19.9389   21.0937 C.ar    1  UNL1        0.1695
      6 C          -8.4713  -19.6235   21.9736 C.ar    1  UNL1        0.1835
      7 O          -8.3254  -19.6762   23.4655 O.3     1  UNL1       -0.5020
      8 H          -7.5015  -19.9062   23.8479 H       1  UNL1        0.2924
      9 C         -14.4829  -17.9936   24.8814 C.3     1  UNL1        0.0310
     10 C         -13.3098  -18.3090   24.0015 C.ar    1  UNL1       -0.0218
     11 C         -12.1558  -19.0986   24.5445 C.ar    1  UNL1       -0.0042
     12 C         -10.9827  -19.4140   23.6645 C.ar    1  UNL1        0.0013
     13 C         -10.9635  -18.9399   22.2416 C.ar    1  UNL1        0.0208
     14 C         -12.1175  -18.1503   21.6986 C.ar    1  UNL1        0.0013
     15 C         -13.2906  -17.8349   22.5784 C.ar    1  UNL1       -0.0042
     16 N          -5.9791  -20.3071   21.7056 N.pl3   1  UNL1       -0.2948
     17 H          -5.9408  -20.9754   22.4275 H       1  UNL1        0.1537
     18 C          -4.7185  -19.6570   21.2178 C.ar    1  UNL1        0.0599
     19 C          -4.0004  -20.2145   20.0246 C.ar    1  UNL1        0.0157
     20 C          -2.7397  -19.5644   19.5367 C.ar    1  UNL1        0.0085
     21 C          -2.1971  -18.3568   20.2420 C.ar    1  UNL1        0.0823
     22 C          -2.9152  -17.7993   21.4350 C.ar    1  UNL1        0.0430
     23 C          -4.1759  -18.4494   21.9230 C.ar    1  UNL1        0.0712
     24 CL         -4.8940  -17.8920   23.1161 Cl      1  UNL1       -0.0811
     25 C          -2.1469  -16.6070   21.9231 C.3     1  UNL1        0.2277
     26 N          -0.9541  -16.4276   21.0316 N.pl3   1  UNL1       -0.2153
     27 C          -0.9850  -17.5091   19.9926 C.2     1  UNL1        0.3122
     28 N           0.0196  -17.7078   18.8966 N.2     1  UNL1       -0.0993
     29 H          -0.2707  -15.7237   21.1140 H       1  UNL1        0.2926
     30 H           0.7860  -17.0953   18.8144 H       1  UNL1        0.3633
@<TRIPOS>BOND
     1     9    10    1
     2    10    11   ar
     3    11    12   ar
     4    12    13   ar
     5    13     1    1
     6     1     2   ar
     7     2     3   ar
     8     3     4   ar
     9     4     5   ar
    10     5    16    1
    11    16    18    1
    12    18    19   ar
    13    19    20   ar
    14    20    21   ar
    15    21    22   ar
    16    22    23   ar
    17    23    24    1
    18    22    25    1
    19    25    26    1
    20    26    27    1
    21    27    28    2
    22     5     6   ar
    23     6     7    1
    24    13    14   ar
    25    14    15   ar
    26    15    10   ar
    27     6     1   ar
    28    23    18   ar
    29    27    21    1
    30    16    17    1
    31    26    29    1
    32    28    30    1
    33     7     8    1
@<TRIPOS>MOLECULE
*****
 30 33 0 0 0
SMALL
GASTEIGER

@<TRIPOS>ATOM
      1 C         -13.7975   -8.0290   17.4157 C.ar    1  UNL1        0.1194
      2 N         -12.8980   -8.4613   16.2959 N.ar    1  UNL1       -0.2208
      3 C         -11.5343   -7.8535   16.1520 C.ar    1  UNL1        0.2002
      4 N         -11.0699   -6.8134   17.1280 N.ar    1  UNL1       -0.2058
      5 C         -11.9694   -6.3811   18.2479 C.ar    1  UNL1        0.1695
      6 C         -13.3331   -6.9889   18.3918 C.ar    1  UNL1        0.1835
      7 O         -14.2326   -6.5567   19.5116 O.3     1  UNL1       -0.5020
      8 H         -13.9426   -5.9070   20.1213 H       1  UNL1        0.2924
      9 C         -19.2525  -10.4604   17.9911 C.3     1  UNL1        0.0310
     10 C         -17.8888   -9.8526   17.8473 C.ar    1  UNL1       -0.0218
     11 C         -17.7317   -8.5058   17.2057 C.ar    1  UNL1       -0.0042
     12 C         -16.3680   -7.8980   17.0619 C.ar    1  UNL1        0.0013
     13 C         -15.1612   -8.6369   17.5596 C.ar    1  UNL1        0.0208
     14 C         -15.3182   -9.9836   18.2011 C.ar    1  UNL1        0.0013
     15 C         -16.6819  -10.5915   18.3450 C.ar    1  UNL1       -0.0042
     16 N         -11.5051   -5.3410   19.2240 N.pl3   1  UNL1       -0.2948
     17 H         -10.9815   -5.6065   20.0143 H       1  UNL1        0.1537
     18 C         -11.8384   -3.8964   18.9958 C.ar    1  UNL1        0.0599
     19 C         -13.0510   -3.2954   19.6426 C.ar    1  UNL1        0.0157
     20 C         -13.3844   -1.8508   19.4144 C.ar    1  UNL1        0.0085
     21 C         -12.5051   -1.0073   18.5394 C.ar    1  UNL1        0.0823
     22 C         -11.2925   -1.6084   17.8927 C.ar    1  UNL1        0.0430
     23 C         -10.9591   -3.0530   18.1209 C.ar    1  UNL1        0.0712
     24 CL         -9.7466   -3.6541   17.4741 Cl      1  UNL1       -0.0811
     25 C         -10.6181   -0.5378   17.0872 C.3     1  UNL1        0.2277
     26 N         -11.4138    0.7249   17.2361 N.pl3   1  UNL1       -0.2153
     27 C         -12.5801    0.4348   18.1336 C.2     1  UNL1        0.3122
     28 N         -13.6359    1.4147   18.5519 N.2     1  UNL1       -0.0993
     29 H         -11.2069    1.5920   16.8181 H       1  UNL1        0.2926
     30 H         -13.5990    2.3448   18.2313 H       1  UNL1        0.3633
@<TRIPOS>BOND
     1     9    10    1
     2    10    11   ar
     3    11    12   ar
     4    12    13   ar
     5    13     1    1
     6     1     2   ar
     7     2     3   ar
     8     3     4   ar
     9     4     5   ar
    10     5    16    1
    11    16    18    1
    12    18    19   ar
    13    19    20   ar
    14    20    21   ar
    15    21    22   ar
    16    22    23   ar
    17    23    24    1
    18    22    25    1
    19    25    26    1
    20    26    27    1
    21    27    28    2
    22     5     6   ar
    23     6     7    1
    24    13    14   ar
    25    14    15   ar
    26    15    10   ar
    27     6     1   ar
    28    23    18   ar
    29    27    21    1
    30    16    17    1
    31    26    29    1
    32    28    30    1
    33     7     8    1
@<TRIPOS>MOLECULE
*****
 30 33 0 0 0
SMALL
GASTEIGER

@<TRIPOS>ATOM
      1 C          -9.8411  -19.3328   21.4008 C.ar    1  UNL1        0.1194
      2 N         -10.0113  -19.3242   19.9105 N.ar    1  UNL1       -0.2208
      3 C          -8.8500  -19.6566   19.0211 C.ar    1  UNL1        0.2002
      4 N          -7.5186  -19.9976   19.6221 N.ar    1  UNL1       -0.2058
      5 C          -7.3484  -20.0061   21.1123 C.ar    1  UNL1        0.1695
      6 C          -8.5097  -19.6737   22.0017 C.ar    1  UNL1        0.1835
      7 O          -8.3396  -19.6822   23.4920 O.3     1  UNL1       -0.5020
      8 H          -7.5079  -19.8952   23.8674 H       1  UNL1        0.2924
      9 C         -14.4861  -18.0032   24.9584 C.3     1  UNL1        0.0310
     10 C         -13.3249  -18.3356   24.0690 C.ar    1  UNL1       -0.0218
     11 C         -13.3227  -17.8848   22.6384 C.ar    1  UNL1       -0.0042
     12 C         -12.1615  -18.2171   21.7490 C.ar    1  UNL1        0.0013
     13 C         -11.0023  -19.0004   22.2902 C.ar    1  UNL1        0.0208
     14 C         -11.0045  -19.4512   23.7208 C.ar    1  UNL1        0.0013
     15 C         -12.1657  -19.1189   24.6102 C.ar    1  UNL1       -0.0042
     16 N          -6.0170  -20.3471   21.7132 N.pl3   1  UNL1       -0.2948
     17 H          -5.9008  -21.1918   22.2054 H       1  UNL1        0.1537
     18 C          -4.8625  -19.4010   21.5643 C.ar    1  UNL1        0.0599
     19 C          -4.6418  -18.3212   22.5818 C.ar    1  UNL1        0.0157
     20 C          -3.4873  -17.3751   22.4328 C.ar    1  UNL1        0.0085
     21 C          -2.5536  -17.5089   21.2664 C.ar    1  UNL1        0.0823
     22 C          -2.7744  -18.5887   20.2490 C.ar    1  UNL1        0.0430
     23 C          -3.9289  -19.5348   20.3979 C.ar    1  UNL1        0.0712
     24 CL         -4.1498  -20.6147   19.3805 Cl      1  UNL1       -0.0811
     25 C          -1.6961  -18.4764   19.2124 C.3     1  UNL1        0.2277
     26 N          -0.8089  -17.3272   19.5891 N.pl3   1  UNL1       -0.2153
     27 C          -1.3388  -16.7292   20.8586 C.2     1  UNL1        0.3122
     28 N          -0.7563  -15.5573   21.5916 N.2     1  UNL1       -0.0993
     29 H          -0.0176  -17.0194   19.0907 H       1  UNL1        0.2926
     30 H           0.0478  -15.1088   21.2429 H       1  UNL1        0.3633
@<TRIPOS>BOND
     1     9    10    1
     2    10    11   ar
     3    11    12   ar
     4    12    13   ar
     5    13     1    1
     6     1     2   ar
     7     2     3   ar
     8     3     4   ar
     9     4     5   ar
    10     5    16    1
    11    16    18    1
    12    18    19   ar
    13    19    20   ar
    14    20    21   ar
    15    21    22   ar
    16    22    23   ar
    17    23    24    1
    18    22    25    1
    19    25    26    1
    20    26    27    1
    21    27    28    2
    22     5     6   ar
    23     6     7    1
    24    13    14   ar
    25    14    15   ar
    26    15    10   ar
    27     6     1   ar
    28    23    18   ar
    29    27    21    1
    30    16    17    1
    31    26    29    1
    32    28    30    1
    33     7     8    1
@<TRIPOS>MOLECULE
*****
 30 33 0 0 0
SMALL
GASTEIGER

@<TRIPOS>ATOM
      1 C         -14.6540   -7.6615   18.0916 C.ar    1  UNL1        0.1194
      2 N         -13.4096   -8.1265   17.3952 N.ar    1  UNL1       -0.2208
      3 C         -12.1176   -7.3918   17.5980 C.ar    1  UNL1        0.2002
      4 N         -12.0702   -6.1922   18.4973 N.ar    1  UNL1       -0.2058
      5 C         -13.3146   -5.7273   19.1937 C.ar    1  UNL1        0.1695
      6 C         -14.6066   -6.4619   18.9909 C.ar    1  UNL1        0.1835
      7 O         -15.8511   -5.9970   19.6873 O.3     1  UNL1       -0.5020
      8 H         -15.8215   -5.2477   20.2490 H       1  UNL1        0.2924
      9 C         -19.8218  -10.6002   17.2803 C.3     1  UNL1        0.0310
     10 C         -18.5299   -9.8656   17.4832 C.ar    1  UNL1       -0.0218
     11 C         -18.2395   -8.6259   16.6901 C.ar    1  UNL1       -0.0042
     12 C         -16.9476   -7.8912   16.8930 C.ar    1  UNL1        0.0013
     13 C         -15.9460   -8.3962   17.8888 C.ar    1  UNL1        0.0208
     14 C         -16.2363   -9.6359   18.6818 C.ar    1  UNL1        0.0013
     15 C         -17.5282  -10.3705   18.4791 C.ar    1  UNL1       -0.0042
     16 N         -13.2672   -4.5276   20.0930 N.pl3   1  UNL1       -0.2948
     17 H         -13.3396   -4.6404   21.0683 H       1  UNL1        0.1537
     18 C         -13.1094   -3.1562   19.5063 C.ar    1  UNL1        0.0599
     19 C         -11.7550   -2.6760   19.0759 C.ar    1  UNL1        0.0157
     20 C         -11.5972   -1.3045   18.4892 C.ar    1  UNL1        0.0085
     21 C         -12.7937   -0.4134   18.3328 C.ar    1  UNL1        0.0823
     22 C         -14.1479   -0.8937   18.7631 C.ar    1  UNL1        0.0430
     23 C         -14.3058   -2.2652   19.3499 C.ar    1  UNL1        0.0712
     24 CL        -15.6601   -2.7455   19.7802 Cl      1  UNL1       -0.0811
     25 C         -15.1367    0.2002   18.4880 C.3     1  UNL1        0.2277
     26 N         -14.3936    1.3565   17.8877 N.pl3   1  UNL1       -0.2153
     27 C         -12.9455    0.9774   17.7917 C.2     1  UNL1        0.3122
     28 N         -11.8427    1.8378   17.2498 N.2     1  UNL1       -0.0993
     29 H         -14.7871    2.2139   17.6061 H       1  UNL1        0.2926
     30 H         -12.0429    2.7420   16.9156 H       1  UNL1        0.3633
@<TRIPOS>BOND
     1     9    10    1
     2    10    11   ar
     3    11    12   ar
     4    12    13   ar
     5    13     1    1
     6     1     2   ar
     7     2     3   ar
     8     3     4   ar
     9     4     5   ar
    10     5    16    1
    11    16    18    1
    12    18    19   ar
    13    19    20   ar
    14    20    21   ar
    15    21    22   ar
    16    22    23   ar
    17    23    24    1
    18    22    25    1
    19    25    26    1
    20    26    27    1
    21    27    28    2
    22     5     6   ar
    23     6     7    1
    24    13    14   ar
    25    14    15   ar
    26    15    10   ar
    27     6     1   ar
    28    23    18   ar
    29    27    21    1
    30    16    17    1
    31    26    29    1
    32    28    30    1
    33     7     8    1
@<TRIPOS>MOLECULE
*****
 30 33 0 0 0
SMALL
GASTEIGER

@<TRIPOS>ATOM
      1 C           3.8405   -2.2900   19.6788 C.ar    1  UNL1        0.1194
      2 N           3.5360   -3.5899   18.9951 N.ar    1  UNL1       -0.2208
      3 C           4.4279   -4.7768   19.2091 C.ar    1  UNL1        0.2002
      4 N           5.6243   -4.6638   20.1069 N.ar    1  UNL1       -0.2058
      5 C           5.9288   -3.3638   20.7905 C.ar    1  UNL1        0.1695
      6 C           5.0369   -2.1769   20.5765 C.ar    1  UNL1        0.1835
      7 O           5.3413   -0.8770   21.2601 O.3     1  UNL1       -0.5020
      8 H           6.0887   -0.8063   21.8209 H       1  UNL1        0.2924
      9 C           0.2730    2.4577   18.8226 C.3     1  UNL1        0.0310
     10 C           1.1649    1.2708   19.0366 C.ar    1  UNL1       -0.0218
     11 C           0.7996    0.2321   20.0553 C.ar    1  UNL1       -0.0042
     12 C           1.6915   -0.9548   20.2694 C.ar    1  UNL1        0.0013
     13 C           2.9486   -1.1031   19.4648 C.ar    1  UNL1        0.0208
     14 C           3.3140   -0.0644   18.4461 C.ar    1  UNL1        0.0013
     15 C           2.4222    1.1225   18.2320 C.ar    1  UNL1       -0.0042
     16 N           7.1252   -3.2508   21.6883 N.pl3   1  UNL1       -0.2948
     17 H           7.8310   -2.5945   21.4874 H       1  UNL1        0.1537
     18 C           7.2461   -4.1376   22.8919 C.ar    1  UNL1        0.0599
     19 C           6.5366   -3.7771   24.1634 C.ar    1  UNL1        0.0157
     20 C           6.6575   -4.6639   25.3671 C.ar    1  UNL1        0.0085
     21 C           7.4880   -5.9113   25.2993 C.ar    1  UNL1        0.0823
     22 C           8.1974   -6.2718   24.0279 C.ar    1  UNL1        0.0430
     23 C           8.0765   -5.3849   22.8241 C.ar    1  UNL1        0.0712
     24 CL          8.7860   -5.7454   21.5526 Cl      1  UNL1       -0.0811
     25 C           8.9391   -7.5550   24.2587 C.3     1  UNL1        0.2277
     26 N           8.6879   -7.9876   25.6728 N.pl3   1  UNL1       -0.2153
     27 C           7.7911   -6.9717   26.3160 C.2     1  UNL1        0.3122
     28 N           7.2861   -7.0097   27.7279 N.2     1  UNL1       -0.0993
     29 H           9.0484   -8.7963   26.1032 H       1  UNL1        0.2926
     30 H           7.5419   -7.7515   28.3224 H       1  UNL1        0.3633
@<TRIPOS>BOND
     1     9    10    1
     2    10    11   ar
     3    11    12   ar
     4    12    13   ar
     5    13     1    1
     6     1     2   ar
     7     2     3   ar
     8     3     4   ar
     9     4     5   ar
    10     5    16    1
    11    16    18    1
    12    18    19   ar
    13    19    20   ar
    14    20    21   ar
    15    21    22   ar
    16    22    23   ar
    17    23    24    1
    18    22    25    1
    19    25    26    1
    20    26    27    1
    21    27    28    2
    22     5     6   ar
    23     6     7    1
    24    13    14   ar
    25    14    15   ar
    26    15    10   ar
    27     6     1   ar
    28    23    18   ar
    29    27    21    1
    30    16    17    1
    31    26    29    1
    32    28    30    1
    33     7     8    1
