@<TRIPOS>MOLECULE
*****
 27 30 0 0 0
SMALL
GASTEIGER

@<TRIPOS>ATOM
      1 C          -6.7745  -20.1854   20.7953 C.ar    1  UNL1        0.0016
      2 C          -7.2565  -20.3405   22.2073 C.ar    1  UNL1        0.0005
      3 C          -8.5775  -19.7598   22.6169 C.ar    1  UNL1        0.0338
      4 C          -9.4165  -19.0240   21.6146 C.ar    1  UNL1        0.1287
      5 N          -8.9344  -18.8689   20.2026 N.ar    1  UNL1       -0.2297
      6 C          -7.6135  -19.4496   19.7929 C.ar    1  UNL1        0.0963
      7 N         -10.7374  -18.4433   22.0243 N.pl3   1  UNL1       -0.3144
      8 H         -11.3779  -18.1450   21.3386 H       1  UNL1        0.1485
      9 C         -11.0825  -18.3170   23.4785 C.3     1  UNL1        0.1169
     10 C         -10.1497  -17.6032   24.4114 C.ar    1  UNL1        0.0166
     11 C          -9.6105  -16.2524   24.0448 C.ar    1  UNL1        0.0014
     12 C          -8.6777  -15.5386   24.9777 C.ar    1  UNL1        0.0305
     13 C          -8.2840  -16.1757   26.2774 C.ar    1  UNL1        0.1383
     14 CL         -7.3512  -15.4619   27.2103 Cl      1  UNL1       -0.0613
     15 N          -8.8232  -17.5266   26.6441 N.ar    1  UNL1       -0.2327
     16 C          -9.7560  -18.2403   25.7111 C.ar    1  UNL1        0.0972
     17 C          -5.4535  -20.7661   20.3857 C.3     1  UNL1        0.0580
     18 CL         -4.5537  -16.5495   24.4109 Cl      1  UNL1       -0.0826
     19 C          -3.9044  -17.0815   23.1677 C.2     1  UNL1        0.0866
     20 C          -2.6349  -16.4634   22.6614 C.2     1  UNL1        0.2432
     21 N          -1.9856  -16.9954   21.4182 N.2     1  UNL1       -0.0302
     22 C          -2.6057  -18.1455   20.6815 C.2     1  UNL1        0.3717
     23 N          -2.1974  -18.8781   19.4379 N.2     1  UNL1       -0.0311
     24 C          -3.2145  -19.9490   19.1757 C.2     1  UNL1        0.2319
     25 C          -4.2514  -19.8782   20.2573 C.2     1  UNL1        0.0328
     26 C          -3.8751  -18.7635   21.1879 C.2     1  UNL1        0.0716
     27 C          -4.5244  -18.2315   22.4310 C.3     1  UNL1        0.0758
@<TRIPOS>BOND
     1    18    19    1
     2    19    20    2
     3    20    21    1
     4    21    22    2
     5    22    23    1
     6    23    24    2
     7    24    25    1
     8    25    17    1
     9    17     1    1
    10     1     2   ar
    11     2     3   ar
    12     3     4   ar
    13     4     7    1
    14     7     9    1
    15     9    10    1
    16    10    11   ar
    17    11    12   ar
    18    12    13   ar
    19    13    14    1
    20    13    15   ar
    21    15    16   ar
    22     4     5   ar
    23     5     6   ar
    24    25    26    2
    25    26    27    1
    26    27    19    1
    27    26    22    1
    28     6     1   ar
    29    16    10   ar
    30     7     8    1
@<TRIPOS>MOLECULE
*****
 27 30 0 0 0
SMALL
GASTEIGER

@<TRIPOS>ATOM
      1 C         -10.1715  -17.6768   24.4132 C.ar    1  UNL1        0.0016
      2 C          -9.7362  -16.2949   24.0252 C.ar    1  UNL1        0.0005
      3 C          -8.8151  -15.5197   24.9200 C.ar    1  UNL1        0.0338
      4 C          -8.3292  -16.1265   26.2028 C.ar    1  UNL1        0.1287
      5 N          -8.7646  -17.5086   26.5908 N.ar    1  UNL1       -0.2297
      6 C          -9.6857  -18.2837   25.6960 C.ar    1  UNL1        0.0963
      7 N          -7.4081  -15.3513   27.0976 N.pl3   1  UNL1       -0.3144
      8 H          -7.6561  -15.1876   28.0362 H       1  UNL1        0.1485
      9 C          -6.1093  -14.8256   26.5624 C.3     1  UNL1        0.1169
     10 C          -5.3309  -15.6275   25.5618 C.ar    1  UNL1        0.0166
     11 C          -4.5448  -16.8244   26.0082 C.ar    1  UNL1        0.0014
     12 C          -3.7665  -17.6263   25.0076 C.ar    1  UNL1        0.0305
     13 C          -3.7743  -17.2313   23.5606 C.ar    1  UNL1        0.1383
     14 CL         -2.9959  -18.0332   22.5600 Cl      1  UNL1       -0.0613
     15 N          -4.5605  -16.0343   23.1142 N.ar    1  UNL1       -0.2327
     16 C          -5.3387  -15.2325   24.1148 C.ar    1  UNL1        0.0972
     17 C         -11.0926  -18.4520   23.5184 C.3     1  UNL1        0.0580
     18 CL         -5.6804  -20.1097   21.8594 Cl      1  UNL1       -0.0826
     19 C          -6.9896  -19.7352   21.2303 C.2     1  UNL1        0.0866
     20 C          -7.1303  -19.7317   19.7370 C.2     1  UNL1        0.2432
     21 N          -8.4394  -19.3572   19.1079 N.2     1  UNL1       -0.0302
     22 C          -9.6080  -18.9863   19.9721 C.2     1  UNL1        0.3717
     23 N         -11.0119  -18.5759   19.6398 N.2     1  UNL1       -0.0311
     24 C         -11.7390  -18.3258   20.9278 C.2     1  UNL1        0.2319
     25 C         -10.7843  -18.5816   22.0561 C.2     1  UNL1        0.0328
     26 C          -9.4673  -18.9898   21.4654 C.2     1  UNL1        0.0716
     27 C          -8.1581  -19.3643   22.0946 C.3     1  UNL1        0.0758
@<TRIPOS>BOND
     1    18    19    1
     2    19    20    2
     3    20    21    1
     4    21    22    2
     5    22    23    1
     6    23    24    2
     7    24    25    1
     8    25    17    1
     9    17     1    1
    10     1     2   ar
    11     2     3   ar
    12     3     4   ar
    13     4     7    1
    14     7     9    1
    15     9    10    1
    16    10    11   ar
    17    11    12   ar
    18    12    13   ar
    19    13    14    1
    20    13    15   ar
    21    15    16   ar
    22     4     5   ar
    23     5     6   ar
    24    25    26    2
    25    26    27    1
    26    27    19    1
    27    26    22    1
    28     6     1   ar
    29    16    10   ar
    30     7     8    1
@<TRIPOS>MOLECULE
*****
 27 30 0 0 0
SMALL
GASTEIGER

@<TRIPOS>ATOM
      1 C          -7.5262  -19.7580   19.9276 C.ar    1  UNL1        0.0016
      2 C          -8.6150  -20.3383   19.0746 C.ar    1  UNL1        0.0005
      3 C          -9.9730  -19.7017   19.0559 C.ar    1  UNL1        0.0338
      4 C         -10.2424  -18.4847   19.8903 C.ar    1  UNL1        0.1287
      5 N          -9.1536  -17.9043   20.7435 N.ar    1  UNL1       -0.2297
      6 C          -7.7955  -18.5409   20.7621 C.ar    1  UNL1        0.0963
      7 N         -11.6005  -17.8481   19.8717 N.pl3   1  UNL1       -0.3144
      8 H         -12.0400  -17.6511   19.0131 H       1  UNL1        0.1485
      9 C         -12.2888  -17.5117   21.1612 C.3     1  UNL1        0.1169
     10 C         -11.5380  -17.5980   22.4569 C.ar    1  UNL1        0.0166
     11 C         -11.6452  -18.8303   23.3053 C.ar    1  UNL1        0.0014
     12 C         -10.8944  -18.9166   24.6010 C.ar    1  UNL1        0.0305
     13 C         -10.0363  -17.7705   25.0483 C.ar    1  UNL1        0.1383
     14 CL         -9.2855  -17.8568   26.3440 Cl      1  UNL1       -0.0613
     15 N          -9.9291  -16.5381   24.1999 N.ar    1  UNL1       -0.2327
     16 C         -10.6799  -16.4519   22.9042 C.ar    1  UNL1        0.0972
     17 C          -6.1681  -20.3946   19.9463 C.3     1  UNL1        0.0580
     18 CL         -1.4505  -17.6828   17.6699 Cl      1  UNL1       -0.0826
     19 C          -1.9956  -18.0625   19.0148 C.2     1  UNL1        0.0866
     20 C          -1.2294  -17.7211   20.2583 C.2     1  UNL1        0.2432
     21 N          -1.7745  -18.1008   21.6032 N.2     1  UNL1       -0.0302
     22 C          -3.0858  -18.8219   21.7046 C.2     1  UNL1        0.3717
     23 N          -3.8684  -19.3209   22.8829 N.2     1  UNL1       -0.0311
     24 C          -5.1183  -19.9707   22.3677 C.2     1  UNL1        0.2319
     25 C          -5.1082  -19.8734   20.8709 C.2     1  UNL1        0.0328
     26 C          -3.8520  -19.1634   20.4611 C.2     1  UNL1        0.0716
     27 C          -3.3069  -18.7837   19.1162 C.3     1  UNL1        0.0758
@<TRIPOS>BOND
     1    18    19    1
     2    19    20    2
     3    20    21    1
     4    21    22    2
     5    22    23    1
     6    23    24    2
     7    24    25    1
     8    25    17    1
     9    17     1    1
    10     1     2   ar
    11     2     3   ar
    12     3     4   ar
    13     4     7    1
    14     7     9    1
    15     9    10    1
    16    10    11   ar
    17    11    12   ar
    18    12    13   ar
    19    13    14    1
    20    13    15   ar
    21    15    16   ar
    22     4     5   ar
    23     5     6   ar
    24    25    26    2
    25    26    27    1
    26    27    19    1
    27    26    22    1
    28     6     1   ar
    29    16    10   ar
    30     7     8    1
@<TRIPOS>MOLECULE
*****
 27 30 0 0 0
SMALL
GASTEIGER

@<TRIPOS>ATOM
      1 C          -7.9709  -19.0599   20.5564 C.ar    1  UNL1        0.0016
      2 C          -7.1289  -20.2972   20.4565 C.ar    1  UNL1        0.0005
      3 C          -5.8835  -20.4257   21.2827 C.ar    1  UNL1        0.0338
      4 C          -5.4801  -19.3168   22.2088 C.ar    1  UNL1        0.1287
      5 N          -6.3222  -18.0794   22.3086 N.ar    1  UNL1       -0.2297
      6 C          -7.5675  -17.9509   21.4825 C.ar    1  UNL1        0.0963
      7 N          -4.2347  -19.4452   23.0349 N.pl3   1  UNL1       -0.3144
      8 H          -4.1977  -20.0976   23.7714 H       1  UNL1        0.1485
      9 C          -3.0459  -18.5798   22.7391 C.3     1  UNL1        0.1169
     10 C          -2.6453  -18.3161   21.3178 C.ar    1  UNL1        0.0166
     11 C          -2.9768  -19.3135   20.2477 C.ar    1  UNL1        0.0014
     12 C          -2.5762  -19.0499   18.8265 C.ar    1  UNL1        0.0305
     13 C          -1.8441  -17.7887   18.4752 C.ar    1  UNL1        0.1383
     14 CL         -1.4435  -17.5250   17.0540 Cl      1  UNL1       -0.0613
     15 N          -1.5125  -16.7912   19.5454 N.ar    1  UNL1       -0.2327
     16 C          -1.9131  -17.0549   20.9666 C.ar    1  UNL1        0.0972
     17 C          -9.2162  -18.9314   19.7302 C.3     1  UNL1        0.0580
     18 CL        -10.4639  -20.1579   25.3632 Cl      1  UNL1       -0.0826
     19 C         -11.0504  -19.3860   24.2186 C.2     1  UNL1        0.0866
     20 C         -12.3426  -18.6455   24.3972 C.2     1  UNL1        0.2432
     21 N         -12.9291  -17.8736   23.2525 N.2     1  UNL1       -0.0302
     22 C         -12.2234  -17.8422   21.9293 C.2     1  UNL1        0.3717
     23 N         -12.5572  -17.1723   20.6294 N.2     1  UNL1       -0.0311
     24 C         -11.4714  -17.4988   19.6474 C.2     1  UNL1        0.2319
     25 C         -10.4664  -18.3705   20.3404 C.2     1  UNL1        0.0328
     26 C         -10.9313  -18.5827   21.7507 C.2     1  UNL1        0.0716
     27 C         -10.3448  -19.3546   22.8954 C.3     1  UNL1        0.0758
@<TRIPOS>BOND
     1    18    19    1
     2    19    20    2
     3    20    21    1
     4    21    22    2
     5    22    23    1
     6    23    24    2
     7    24    25    1
     8    25    17    1
     9    17     1    1
    10     1     2   ar
    11     2     3   ar
    12     3     4   ar
    13     4     7    1
    14     7     9    1
    15     9    10    1
    16    10    11   ar
    17    11    12   ar
    18    12    13   ar
    19    13    14    1
    20    13    15   ar
    21    15    16   ar
    22     4     5   ar
    23     5     6   ar
    24    25    26    2
    25    26    27    1
    26    27    19    1
    27    26    22    1
    28     6     1   ar
    29    16    10   ar
    30     7     8    1
@<TRIPOS>MOLECULE
*****
 27 30 0 0 0
SMALL
GASTEIGER

@<TRIPOS>ATOM
      1 C          -7.7810  -16.1620   24.2767 C.ar    1  UNL1        0.0016
      2 C          -6.8093  -15.5028   25.2099 C.ar    1  UNL1        0.0005
      3 C          -5.3341  -15.6824   25.0063 C.ar    1  UNL1        0.0338
      4 C          -4.8305  -16.5214   23.8694 C.ar    1  UNL1        0.1287
      5 N          -5.8023  -17.1807   22.9361 N.ar    1  UNL1       -0.2297
      6 C          -7.2776  -17.0011   23.1397 C.ar    1  UNL1        0.0963
      7 N          -3.3553  -16.7011   23.6659 N.pl3   1  UNL1       -0.3144
      8 H          -2.7282  -16.0055   23.9693 H       1  UNL1        0.1485
      9 C          -2.8356  -17.9406   23.0000 C.3     1  UNL1        0.1169
     10 C          -2.4899  -17.9192   21.5405 C.ar    1  UNL1        0.0166
     11 C          -1.3771  -17.0433   21.0461 C.ar    1  UNL1        0.0014
     12 C          -1.0314  -17.0218   19.5866 C.ar    1  UNL1        0.0305
     13 C          -1.7985  -17.8763   18.6215 C.ar    1  UNL1        0.1383
     14 CL         -1.4528  -17.8549   17.1621 Cl      1  UNL1       -0.0613
     15 N          -2.9114  -18.7522   19.1160 N.ar    1  UNL1       -0.2327
     16 C          -3.2570  -18.7736   20.5754 C.ar    1  UNL1        0.0972
     17 C          -9.2562  -15.9824   24.4802 C.3     1  UNL1        0.0580
     18 CL        -10.8367  -14.9672   18.8889 Cl      1  UNL1       -0.0826
     19 C         -11.1158  -15.9586   19.9794 C.2     1  UNL1        0.0866
     20 C         -12.0611  -17.0971   19.7340 C.2     1  UNL1        0.2432
     21 N         -12.3403  -18.0885   20.8246 N.2     1  UNL1       -0.0302
     22 C         -11.6742  -17.9414   22.1604 C.2     1  UNL1        0.3717
     23 N         -11.7538  -18.7567   23.4169 N.2     1  UNL1       -0.0311
     24 C         -10.8577  -18.1221   24.4389 C.2     1  UNL1        0.2319
     25 C         -10.2243  -16.9146   23.8140 C.2     1  UNL1        0.0328
     26 C         -10.7289  -16.8029   22.4058 C.2     1  UNL1        0.0716
     27 C         -10.4498  -15.8115   21.3153 C.3     1  UNL1        0.0758
@<TRIPOS>BOND
     1    18    19    1
     2    19    20    2
     3    20    21    1
     4    21    22    2
     5    22    23    1
     6    23    24    2
     7    24    25    1
     8    25    17    1
     9    17     1    1
    10     1     2   ar
    11     2     3   ar
    12     3     4   ar
    13     4     7    1
    14     7     9    1
    15     9    10    1
    16    10    11   ar
    17    11    12   ar
    18    12    13   ar
    19    13    14    1
    20    13    15   ar
    21    15    16   ar
    22     4     5   ar
    23     5     6   ar
    24    25    26    2
    25    26    27    1
    26    27    19    1
    27    26    22    1
    28     6     1   ar
    29    16    10   ar
    30     7     8    1
@<TRIPOS>MOLECULE
*****
 27 30 0 0 0
SMALL
GASTEIGER

@<TRIPOS>ATOM
      1 C          -9.1089  -15.9285   23.7767 C.ar    1  UNL1        0.0016
      2 C          -8.6288  -16.2997   25.1484 C.ar    1  UNL1        0.0005
      3 C          -7.1641  -16.2540   25.4683 C.ar    1  UNL1        0.0338
      4 C          -6.1793  -15.8371   24.4164 C.ar    1  UNL1        0.1287
      5 N          -6.6594  -15.4660   23.0446 N.ar    1  UNL1       -0.2297
      6 C          -8.1242  -15.5117   22.7247 C.ar    1  UNL1        0.0963
      7 N          -4.7145  -15.7915   24.7363 N.pl3   1  UNL1       -0.3144
      8 H          -4.3157  -14.9684   25.1007 H       1  UNL1        0.1485
      9 C          -3.8575  -16.9998   24.5011 C.3     1  UNL1        0.1169
     10 C          -3.4665  -17.3815   23.1042 C.ar    1  UNL1        0.0166
     11 C          -3.8735  -18.7143   22.5491 C.ar    1  UNL1        0.0014
     12 C          -3.4826  -19.0961   21.1522 C.ar    1  UNL1        0.0305
     13 C          -2.6847  -18.1450   20.3102 C.ar    1  UNL1        0.1383
     14 CL         -2.2938  -18.5268   18.9133 Cl      1  UNL1       -0.0613
     15 N          -2.2777  -16.8122   20.8653 N.ar    1  UNL1       -0.2327
     16 C          -2.6686  -16.4305   22.2622 C.ar    1  UNL1        0.0972
     17 C         -10.5737  -15.9742   23.4568 C.3     1  UNL1        0.0580
     18 CL         -7.1595  -20.0172   20.8512 Cl      1  UNL1       -0.0826
     19 C          -8.4863  -19.3513   20.6364 C.2     1  UNL1        0.0866
     20 C          -9.3221  -19.7116   19.4441 C.2     1  UNL1        0.2432
     21 N         -10.6489  -19.0457   19.2293 N.2     1  UNL1       -0.0302
     22 C         -11.1400  -18.0196   20.2069 C.2     1  UNL1        0.3717
     23 N         -12.3964  -17.2018   20.2574 N.2     1  UNL1       -0.0311
     24 C         -12.3372  -16.3360   21.4809 C.2     1  UNL1        0.2319
     25 C         -11.0442  -16.6188   22.1867 C.2     1  UNL1        0.0328
     26 C         -10.3043  -17.6593   21.3993 C.2     1  UNL1        0.0716
     27 C          -8.9774  -18.3251   21.6140 C.3     1  UNL1        0.0758
@<TRIPOS>BOND
     1    18    19    1
     2    19    20    2
     3    20    21    1
     4    21    22    2
     5    22    23    1
     6    23    24    2
     7    24    25    1
     8    25    17    1
     9    17     1    1
    10     1     2   ar
    11     2     3   ar
    12     3     4   ar
    13     4     7    1
    14     7     9    1
    15     9    10    1
    16    10    11   ar
    17    11    12   ar
    18    12    13   ar
    19    13    14    1
    20    13    15   ar
    21    15    16   ar
    22     4     5   ar
    23     5     6   ar
    24    25    26    2
    25    26    27    1
    26    27    19    1
    27    26    22    1
    28     6     1   ar
    29    16    10   ar
    30     7     8    1
@<TRIPOS>MOLECULE
*****
 27 30 0 0 0
SMALL
GASTEIGER

@<TRIPOS>ATOM
      1 C          -5.3999  -16.5321   23.8357 C.ar    1  UNL1        0.0016
      2 C          -6.3518  -17.4330   23.1060 C.ar    1  UNL1        0.0005
      3 C          -7.8217  -17.1341   23.1127 C.ar    1  UNL1        0.0338
      4 C          -8.3398  -15.9344   23.8490 C.ar    1  UNL1        0.1287
      5 N          -7.3879  -15.0335   24.5787 N.ar    1  UNL1       -0.2297
      6 C          -5.9180  -15.3323   24.5720 C.ar    1  UNL1        0.0963
      7 N          -9.8097  -15.6355   23.8556 N.pl3   1  UNL1       -0.3144
      8 H         -10.1252  -14.7205   24.0360 H       1  UNL1        0.1485
      9 C         -10.7989  -16.7307   23.5875 C.3     1  UNL1        0.1169
     10 C         -10.6823  -17.5583   22.3419 C.ar    1  UNL1        0.0166
     11 C         -10.7042  -19.0554   22.4313 C.ar    1  UNL1        0.0014
     12 C         -10.5876  -19.8830   21.1858 C.ar    1  UNL1        0.0305
     13 C         -10.4490  -19.2134   19.8507 C.ar    1  UNL1        0.1383
     14 CL        -10.3323  -20.0410   18.6051 Cl      1  UNL1       -0.0613
     15 N         -10.4270  -17.7162   19.7613 N.ar    1  UNL1       -0.2327
     16 C         -10.5437  -16.8887   21.0068 C.ar    1  UNL1        0.0972
     17 C          -3.9300  -16.8310   23.8290 C.3     1  UNL1        0.0580
     18 CL         -5.5246  -21.3779   20.4268 Cl      1  UNL1       -0.0826
     19 C          -4.5328  -20.2526   20.4165 C.2     1  UNL1        0.0866
     20 C          -3.5877  -20.0965   19.2622 C.2     1  UNL1        0.2432
     21 N          -2.5959  -18.9712   19.2519 N.2     1  UNL1       -0.0302
     22 C          -2.5493  -18.0020   20.3957 C.2     1  UNL1        0.3717
     23 N          -1.6871  -16.8037   20.6614 N.2     1  UNL1       -0.0311
     24 C          -2.0993  -16.2192   21.9799 C.2     1  UNL1        0.2319
     25 C          -3.2164  -17.0562   22.5291 C.2     1  UNL1        0.0328
     26 C          -3.4944  -18.1581   21.5499 C.2     1  UNL1        0.0716
     27 C          -4.4862  -19.2834   21.5603 C.3     1  UNL1        0.0758
@<TRIPOS>BOND
     1    18    19    1
     2    19    20    2
     3    20    21    1
     4    21    22    2
     5    22    23    1
     6    23    24    2
     7    24    25    1
     8    25    17    1
     9    17     1    1
    10     1     2   ar
    11     2     3   ar
    12     3     4   ar
    13     4     7    1
    14     7     9    1
    15     9    10    1
    16    10    11   ar
    17    11    12   ar
    18    12    13   ar
    19    13    14    1
    20    13    15   ar
    21    15    16   ar
    22     4     5   ar
    23     5     6   ar
    24    25    26    2
    25    26    27    1
    26    27    19    1
    27    26    22    1
    28     6     1   ar
    29    16    10   ar
    30     7     8    1
@<TRIPOS>MOLECULE
*****
 27 30 0 0 0
SMALL
GASTEIGER

@<TRIPOS>ATOM
      1 C          -3.7316  -16.5187   23.6044 C.ar    1  UNL1        0.0016
      2 C          -4.1745  -16.9490   24.9713 C.ar    1  UNL1        0.0005
      3 C          -5.4040  -16.3477   25.5853 C.ar    1  UNL1        0.0338
      4 C          -6.1905  -15.3160   24.8322 C.ar    1  UNL1        0.1287
      5 N          -5.7475  -14.8857   23.4652 N.ar    1  UNL1       -0.2297
      6 C          -4.5181  -15.4870   22.8513 C.ar    1  UNL1        0.0963
      7 N          -7.4199  -14.7147   25.4462 N.pl3   1  UNL1       -0.3144
      8 H          -7.5239  -13.7364   25.4825 H       1  UNL1        0.1485
      9 C          -8.4909  -15.6040   26.0048 C.3     1  UNL1        0.1169
     10 C          -9.1199  -16.6552   25.1392 C.ar    1  UNL1        0.0166
     11 C          -9.4341  -18.0067   25.7090 C.ar    1  UNL1        0.0014
     12 C         -10.0631  -19.0579   24.8434 C.ar    1  UNL1        0.0305
     13 C         -10.3780  -18.7577   23.4079 C.ar    1  UNL1        0.1383
     14 CL        -11.0070  -19.8089   22.5423 Cl      1  UNL1       -0.0613
     15 N         -10.0638  -17.4061   22.8380 N.ar    1  UNL1       -0.2327
     16 C          -9.4348  -16.3550   23.7037 C.ar    1  UNL1        0.0972
     17 C          -2.5022  -17.1199   22.9904 C.3     1  UNL1        0.0580
     18 CL         -7.3722  -20.3999   22.4283 Cl      1  UNL1       -0.0826
     19 C          -6.0787  -20.1654   21.7059 C.2     1  UNL1        0.0866
     20 C          -5.7800  -20.9134   20.4406 C.2     1  UNL1        0.2432
     21 N          -4.4865  -20.6788   19.7182 N.2     1  UNL1       -0.0302
     22 C          -3.4917  -19.6962   20.2611 C.2     1  UNL1        0.3717
     23 N          -2.1430  -19.2590   19.7716 N.2     1  UNL1       -0.0311
     24 C          -1.6081  -18.2407   20.7344 C.2     1  UNL1        0.2319
     25 C          -2.6263  -18.0486   21.8190 C.2     1  UNL1        0.0328
     26 C          -3.7905  -18.9482   21.5265 C.2     1  UNL1        0.0716
     27 C          -5.0840  -19.1827   22.2488 C.3     1  UNL1        0.0758
@<TRIPOS>BOND
     1    18    19    1
     2    19    20    2
     3    20    21    1
     4    21    22    2
     5    22    23    1
     6    23    24    2
     7    24    25    1
     8    25    17    1
     9    17     1    1
    10     1     2   ar
    11     2     3   ar
    12     3     4   ar
    13     4     7    1
    14     7     9    1
    15     9    10    1
    16    10    11   ar
    17    11    12   ar
    18    12    13   ar
    19    13    14    1
    20    13    15   ar
    21    15    16   ar
    22     4     5   ar
    23     5     6   ar
    24    25    26    2
    25    26    27    1
    26    27    19    1
    27    26    22    1
    28     6     1   ar
    29    16    10   ar
    30     7     8    1
@<TRIPOS>MOLECULE
*****
 27 30 0 0 0
SMALL
GASTEIGER

@<TRIPOS>ATOM
      1 C          -9.1646  -19.3023   19.6286 C.ar    1  UNL1        0.0016
      2 C          -8.8587  -20.5628   18.8752 C.ar    1  UNL1        0.0005
      3 C          -7.5509  -21.2657   19.0890 C.ar    1  UNL1        0.0338
      4 C          -6.5491  -20.7082   20.0561 C.ar    1  UNL1        0.1287
      5 N          -6.8551  -19.4476   20.8095 N.ar    1  UNL1       -0.2297
      6 C          -8.1628  -18.7447   20.5958 C.ar    1  UNL1        0.0963
      7 N          -5.2413  -21.4111   20.2699 N.pl3   1  UNL1       -0.3144
      8 H          -5.2066  -22.2320   20.8123 H       1  UNL1        0.1485
      9 C          -3.9865  -20.8633   19.6573 C.3     1  UNL1        0.1169
     10 C          -3.3889  -19.5916   20.1822 C.ar    1  UNL1        0.0166
     11 C          -2.8316  -19.5433   21.5740 C.ar    1  UNL1        0.0014
     12 C          -2.2340  -18.2715   22.0989 C.ar    1  UNL1        0.0305
     13 C          -2.1937  -17.0480   21.2321 C.ar    1  UNL1        0.1383
     14 CL         -1.5961  -15.7763   21.7570 Cl      1  UNL1       -0.0613
     15 N          -2.7511  -17.0964   19.8402 N.ar    1  UNL1       -0.2327
     16 C          -3.3486  -18.3681   19.3154 C.ar    1  UNL1        0.0972
     17 C         -10.4724  -18.5994   19.4148 C.3     1  UNL1        0.0580
     18 CL         -9.6862  -21.1458   24.6769 Cl      1  UNL1       -0.0826
     19 C         -10.5014  -20.0453   24.0650 C.2     1  UNL1        0.0866
     20 C         -11.4538  -19.2566   24.9140 C.2     1  UNL1        0.2432
     21 N         -12.2690  -18.1560   24.3022 N.2     1  UNL1       -0.0302
     22 C         -12.1318  -17.8443   22.8414 C.2     1  UNL1        0.3717
     23 N         -12.7983  -16.8251   21.9657 N.2     1  UNL1       -0.0311
     24 C         -12.2578  -16.9839   20.5754 C.2     1  UNL1        0.2319
     25 C         -11.2572  -18.1012   20.5920 C.2     1  UNL1        0.0328
     26 C         -11.1793  -18.6330   21.9924 C.2     1  UNL1        0.0716
     27 C         -10.3642  -19.7335   22.6043 C.3     1  UNL1        0.0758
@<TRIPOS>BOND
     1    18    19    1
     2    19    20    2
     3    20    21    1
     4    21    22    2
     5    22    23    1
     6    23    24    2
     7    24    25    1
     8    25    17    1
     9    17     1    1
    10     1     2   ar
    11     2     3   ar
    12     3     4   ar
    13     4     7    1
    14     7     9    1
    15     9    10    1
    16    10    11   ar
    17    11    12   ar
    18    12    13   ar
    19    13    14    1
    20    13    15   ar
    21    15    16   ar
    22     4     5   ar
    23     5     6   ar
    24    25    26    2
    25    26    27    1
    26    27    19    1
    27    26    22    1
    28     6     1   ar
    29    16    10   ar
    30     7     8    1
