@<TRIPOS>MOLECULE
*****
 32 35 0 0 0
SMALL
GASTEIGER

@<TRIPOS>ATOM
      1 C          -4.0111  -16.9907   24.4710 C.3     1  UNL1        0.0071
      2 C          -4.2372  -16.9975   25.9538 C.3     1  UNL1        0.0177
      3 C          -5.4865  -16.3950   26.5247 C.3     1  UNL1        0.0721
      4 N          -6.5098  -15.7856   25.6128 N.3     1  UNL1       -0.2724
      5 C          -6.2837  -15.7787   24.1300 C.3     1  UNL1        0.0721
      6 C          -5.0343  -16.3813   23.5591 C.3     1  UNL1        0.0177
      7 C          -2.7617  -17.5933   23.9000 C.3     1  UNL1        0.0265
      8 C          -3.0075  -18.7355   20.1073 C.ar    1  UNL1        0.1445
      9 C          -3.2118  -18.6998   21.5928 C.ar    1  UNL1        0.0331
     10 C          -2.5574  -17.6290   22.4144 C.ar    1  UNL1       -0.0191
     11 C          -1.6986  -16.5938   21.7504 C.ar    1  UNL1       -0.0036
     12 C          -1.4942  -16.6295   20.2648 C.ar    1  UNL1        0.0094
     13 C          -2.1487  -17.7003   19.4432 C.ar    1  UNL1        0.0684
     14 BR         -1.9444  -17.7360   17.9577 Br      1  UNL1       -0.0458
     15 O          -3.6620  -19.8063   19.2857 O.3     1  UNL1       -0.4723
     16 C          -4.3292  -20.9675   19.9613 C.3     1  UNL1        0.2373
     17 C          -5.7948  -20.9113   20.2757 C.3     1  UNL1        0.1894
     18 C          -6.8709  -19.2191   21.9275 C.3     1  UNL1        0.1743
     19 O          -6.2519  -20.5590   21.6602 O.3     1  UNL1       -0.3471
     20 C          -7.7592  -15.1830   26.1838 C.3     1  UNL1        0.0768
     21 C          -9.0265  -15.1832   25.3814 C.3     1  UNL1        0.0437
     22 C          -9.4377  -16.4142   24.6292 C.ar    1  UNL1       -0.0205
     23 C          -9.5051  -17.7364   25.3342 C.ar    1  UNL1       -0.0011
     24 C          -9.9163  -18.9672   24.5819 C.ar    1  UNL1        0.0373
     25 C         -10.2601  -18.8758   23.1247 C.ar    1  UNL1        0.1484
     26 O         -10.6713  -20.1068   22.3724 O.2     1  UNL1       -0.4502
     27 C         -11.0150  -20.0153   20.9152 C.ar    1  UNL1        0.1828
     28 C         -10.9475  -18.6930   20.2102 C.ar    1  UNL1        0.0827
     29 C         -10.5363  -17.4621   20.9625 C.ar    1  UNL1        0.2017
     30 O         -10.4688  -16.1399   20.2575 O.2     1  UNL1       -0.2864
     31 C         -10.1926  -17.5536   22.4197 C.ar    1  UNL1        0.0732
     32 C          -9.7814  -16.3227   23.1720 C.ar    1  UNL1        0.0020
@<TRIPOS>BOND
     1    18    19    1
     2    19    17    1
     3    17    16    1
     4    16    15    1
     5    15     8    1
     6     8     9   ar
     7     9    10   ar
     8    10     7    1
     9     7     1    1
    10     1     2    1
    11     2     3    1
    12     3     4    1
    13     4    20    1
    14    20    21    1
    15    21    22    1
    16    22    23   ar
    17    23    24   ar
    18    24    25   ar
    19    25    26   ar
    20    26    27   ar
    21    27    28   ar
    22    28    29   ar
    23    29    30    2
    24    29    31   ar
    25    31    32   ar
    26     4     5    1
    27     5     6    1
    28    10    11   ar
    29    11    12   ar
    30    12    13   ar
    31    13    14    1
    32    13     8   ar
    33     6     1    1
    34    32    22   ar
    35    31    25   ar
@<TRIPOS>MOLECULE
*****
 32 35 0 0 0
SMALL
GASTEIGER

@<TRIPOS>ATOM
      1 C          -3.8679  -16.5973   24.1134 C.3     1  UNL1        0.0071
      2 C          -3.8495  -17.2653   25.4563 C.3     1  UNL1        0.0177
      3 C          -4.8223  -16.8434   26.5172 C.3     1  UNL1        0.0721
      4 N          -5.8135  -15.7535   26.2352 N.3     1  UNL1       -0.2724
      5 C          -5.8319  -15.0854   24.8923 C.3     1  UNL1        0.0721
      6 C          -4.8591  -15.5073   23.8314 C.3     1  UNL1        0.0177
      7 C          -2.8950  -17.0191   23.0524 C.3     1  UNL1        0.0265
      8 C          -4.9121  -19.9589   21.3092 C.ar    1  UNL1        0.1445
      9 C          -4.5543  -18.8537   22.2581 C.ar    1  UNL1        0.0331
     10 C          -3.2528  -18.1243   22.1035 C.ar    1  UNL1       -0.0191
     11 C          -2.3090  -18.5001   20.9998 C.ar    1  UNL1       -0.0036
     12 C          -2.6667  -19.6053   20.0508 C.ar    1  UNL1        0.0094
     13 C          -3.9683  -20.3347   20.2055 C.ar    1  UNL1        0.0684
     14 BR         -4.3260  -21.4399   19.2565 Br      1  UNL1       -0.0458
     15 O          -6.2136  -20.6883   21.4638 O.3     1  UNL1       -0.4723
     16 C          -7.4627  -19.9300   21.8024 C.3     1  UNL1        0.2373
     17 C          -7.7895  -18.6598   21.0745 C.3     1  UNL1        0.1894
     18 C          -8.6890  -19.9447   19.0033 C.3     1  UNL1        0.1743
     19 O          -8.6403  -18.7006   19.8398 O.3     1  UNL1       -0.3471
     20 C          -6.7864  -15.3316   27.2962 C.3     1  UNL1        0.0768
     21 C          -8.1464  -15.9612   27.3599 C.3     1  UNL1        0.0437
     22 C          -8.8374  -16.3831   26.0971 C.ar    1  UNL1       -0.0205
     23 C          -9.1859  -15.3616   25.0555 C.ar    1  UNL1       -0.0011
     24 C          -9.8769  -15.7835   23.7929 C.ar    1  UNL1        0.0373
     25 C         -10.2195  -17.2270   23.5718 C.ar    1  UNL1        0.1484
     26 O         -10.9105  -17.6490   22.3090 O.2     1  UNL1       -0.4502
     27 C         -11.2531  -19.0925   22.0879 C.ar    1  UNL1        0.1828
     28 C         -10.9046  -20.1141   23.1296 C.ar    1  UNL1        0.0827
     29 C         -10.2136  -19.6921   24.3923 C.ar    1  UNL1        0.2017
     30 O          -9.8651  -20.7137   25.4338 O.2     1  UNL1       -0.2864
     31 C          -9.8710  -18.2486   24.6134 C.ar    1  UNL1        0.0732
     32 C          -9.1800  -17.8266   25.8760 C.ar    1  UNL1        0.0020
@<TRIPOS>BOND
     1    18    19    1
     2    19    17    1
     3    17    16    1
     4    16    15    1
     5    15     8    1
     6     8     9   ar
     7     9    10   ar
     8    10     7    1
     9     7     1    1
    10     1     2    1
    11     2     3    1
    12     3     4    1
    13     4    20    1
    14    20    21    1
    15    21    22    1
    16    22    23   ar
    17    23    24   ar
    18    24    25   ar
    19    25    26   ar
    20    26    27   ar
    21    27    28   ar
    22    28    29   ar
    23    29    30    2
    24    29    31   ar
    25    31    32   ar
    26     4     5    1
    27     5     6    1
    28    10    11   ar
    29    11    12   ar
    30    12    13   ar
    31    13    14    1
    32    13     8   ar
    33     6     1    1
    34    32    22   ar
    35    31    25   ar
@<TRIPOS>MOLECULE
*****
 32 35 0 0 0
SMALL
GASTEIGER

@<TRIPOS>ATOM
      1 C           6.9353   -3.9802   23.3437 C.3     1  UNL1        0.0071
      2 C           5.4418   -3.8614   23.2713 C.3     1  UNL1        0.0177
      3 C           4.7535   -3.8576   21.9385 C.3     1  UNL1        0.0721
      4 N           5.5588   -3.9726   20.6782 N.3     1  UNL1       -0.2724
      5 C           7.0523   -4.0914   20.7507 C.3     1  UNL1        0.0721
      6 C           7.7405   -4.0952   22.0834 C.3     1  UNL1        0.0177
      7 C           7.6236   -3.9840   24.6765 C.3     1  UNL1        0.0265
      8 C           7.9313   -6.5921   27.6519 C.ar    1  UNL1        0.1445
      9 C           7.7350   -5.3016   26.9129 C.ar    1  UNL1        0.0331
     10 C           7.8199   -5.2744   25.4155 C.ar    1  UNL1       -0.0191
     11 C           8.1012   -6.5376   24.6572 C.ar    1  UNL1       -0.0036
     12 C           8.2976   -7.8282   25.3962 C.ar    1  UNL1        0.0094
     13 C           8.2126   -7.8554   26.8936 C.ar    1  UNL1        0.0684
     14 BR          8.4090   -9.1458   27.6326 Br      1  UNL1       -0.0458
     15 O           7.8464   -6.6193   29.1493 O.3     1  UNL1       -0.4723
     16 C           6.9540   -5.6510   29.8676 C.3     1  UNL1        0.2373
     17 C           7.0715   -5.4831   31.3535 C.3     1  UNL1        0.1894
     18 C           6.1221   -3.2905   32.3737 C.3     1  UNL1        0.1743
     19 O           7.2937   -4.1201   31.9390 O.3     1  UNL1       -0.3471
     20 C           4.8704   -3.9688   19.3455 C.3     1  UNL1        0.0768
     21 C           3.4927   -3.3904   19.2146 C.3     1  UNL1        0.0437
     22 C           3.3159   -1.9197   18.9781 C.ar    1  UNL1       -0.0205
     23 C           4.3130   -1.1686   18.1464 C.ar    1  UNL1       -0.0011
     24 C           4.1362    0.3020   17.9100 C.ar    1  UNL1        0.0373
     25 C           2.9624    1.0216   18.5052 C.ar    1  UNL1        0.1484
     26 O           2.7857    2.4923   18.2687 O.2     1  UNL1       -0.4502
     27 C           1.6118    3.2119   18.8640 C.ar    1  UNL1        0.1828
     28 C           0.6147    2.4607   19.6957 C.ar    1  UNL1        0.0827
     29 C           0.7915    0.9901   19.9321 C.ar    1  UNL1        0.2017
     30 O          -0.2056    0.2390   20.7638 O.2     1  UNL1       -0.2864
     31 C           1.9653    0.2705   19.3369 C.ar    1  UNL1        0.0732
     32 C           2.1421   -1.2001   19.5733 C.ar    1  UNL1        0.0020
@<TRIPOS>BOND
     1    18    19    1
     2    19    17    1
     3    17    16    1
     4    16    15    1
     5    15     8    1
     6     8     9   ar
     7     9    10   ar
     8    10     7    1
     9     7     1    1
    10     1     2    1
    11     2     3    1
    12     3     4    1
    13     4    20    1
    14    20    21    1
    15    21    22    1
    16    22    23   ar
    17    23    24   ar
    18    24    25   ar
    19    25    26   ar
    20    26    27   ar
    21    27    28   ar
    22    28    29   ar
    23    29    30    2
    24    29    31   ar
    25    31    32   ar
    26     4     5    1
    27     5     6    1
    28    10    11   ar
    29    11    12   ar
    30    12    13   ar
    31    13    14    1
    32    13     8   ar
    33     6     1    1
    34    32    22   ar
    35    31    25   ar
@<TRIPOS>MOLECULE
*****
 32 35 0 0 0
SMALL
GASTEIGER

@<TRIPOS>ATOM
      1 C           6.9528   -3.9841   23.0697 C.3     1  UNL1        0.0071
      2 C           7.6721   -4.1369   21.7624 C.3     1  UNL1        0.0177
      3 C           6.8958   -4.1779   20.4796 C.3     1  UNL1        0.0721
      4 N           5.4002   -4.0663   20.5041 N.3     1  UNL1       -0.2724
      5 C           4.6808   -3.9136   21.8115 C.3     1  UNL1        0.0721
      6 C           5.4571   -3.8725   23.0943 C.3     1  UNL1        0.0177
      7 C           7.7291   -3.9431   24.3526 C.3     1  UNL1        0.0265
      8 C           7.8899   -6.3954   27.4687 C.ar    1  UNL1        0.1445
      9 C           7.7195   -5.1469   26.6549 C.ar    1  UNL1        0.0331
     10 C           7.8995   -5.1915   25.1664 C.ar    1  UNL1       -0.0191
     11 C           8.2500   -6.4845   24.4917 C.ar    1  UNL1       -0.0036
     12 C           8.4204   -7.7331   25.3055 C.ar    1  UNL1        0.0094
     13 C           8.2404   -7.6885   26.7940 C.ar    1  UNL1        0.0684
     14 BR          8.4108   -8.9369   27.6078 Br      1  UNL1       -0.0458
     15 O           7.7099   -6.3508   28.9572 O.3     1  UNL1       -0.4723
     16 C           6.6459   -5.4810   29.5582 C.3     1  UNL1        0.2373
     17 C           7.0295   -4.2941   30.3914 C.3     1  UNL1        0.1894
     18 C           5.9785   -3.1644   32.4816 C.3     1  UNL1        0.1743
     19 O           6.7529   -4.2918   31.8656 O.3     1  UNL1       -0.3471
     20 C           4.6238   -4.1073   19.2212 C.3     1  UNL1        0.0768
     21 C           3.3777   -3.2860   19.0721 C.3     1  UNL1        0.0437
     22 C           3.4727   -1.7936   18.9538 C.ar    1  UNL1       -0.0205
     23 C           2.4210   -0.9235   19.5757 C.ar    1  UNL1       -0.0011
     24 C           2.5161    0.5688   19.4573 C.ar    1  UNL1        0.0373
     25 C           3.6628    1.1909   18.7170 C.ar    1  UNL1        0.1484
     26 O           3.7579    2.6833   18.5987 O.2     1  UNL1       -0.4502
     27 C           4.9046    3.3054   17.8584 C.ar    1  UNL1        0.1828
     28 C           5.9562    2.4352   17.2364 C.ar    1  UNL1        0.0827
     29 C           5.8612    0.9429   17.3548 C.ar    1  UNL1        0.2017
     30 O           6.9128    0.0728   16.7329 O.2     1  UNL1       -0.2864
     31 C           4.7145    0.3208   18.0951 C.ar    1  UNL1        0.0732
     32 C           4.6194   -1.1715   18.2135 C.ar    1  UNL1        0.0020
@<TRIPOS>BOND
     1    18    19    1
     2    19    17    1
     3    17    16    1
     4    16    15    1
     5    15     8    1
     6     8     9   ar
     7     9    10   ar
     8    10     7    1
     9     7     1    1
    10     1     2    1
    11     2     3    1
    12     3     4    1
    13     4    20    1
    14    20    21    1
    15    21    22    1
    16    22    23   ar
    17    23    24   ar
    18    24    25   ar
    19    25    26   ar
    20    26    27   ar
    21    27    28   ar
    22    28    29   ar
    23    29    30    2
    24    29    31   ar
    25    31    32   ar
    26     4     5    1
    27     5     6    1
    28    10    11   ar
    29    11    12   ar
    30    12    13   ar
    31    13    14    1
    32    13     8   ar
    33     6     1    1
    34    32    22   ar
    35    31    25   ar
@<TRIPOS>MOLECULE
*****
 32 35 0 0 0
SMALL
GASTEIGER

@<TRIPOS>ATOM
      1 C           0.6554    0.8486   20.8642 C.3     1  UNL1        0.0071
      2 C           1.3438    0.5258   22.1572 C.3     1  UNL1        0.0177
      3 C           1.0904    1.3679   23.3724 C.3     1  UNL1        0.0721
      4 N           0.1486    2.5327   23.2946 N.3     1  UNL1       -0.2724
      5 C          -0.5399    2.8555   22.0016 C.3     1  UNL1        0.0721
      6 C          -0.2865    2.0135   20.7864 C.3     1  UNL1        0.0177
      7 C           0.9088    0.0066   19.6489 C.3     1  UNL1        0.0265
      8 C           4.2693   -2.0951   19.4497 C.ar    1  UNL1        0.1445
      9 C           2.8686   -1.6919   19.8040 C.ar    1  UNL1        0.0331
     10 C           2.3094   -0.3966   19.2946 C.ar    1  UNL1       -0.0191
     11 C           3.1509    0.4955   18.4309 C.ar    1  UNL1       -0.0036
     12 C           4.5516    0.0923   18.0765 C.ar    1  UNL1        0.0094
     13 C           5.1108   -1.2030   18.5859 C.ar    1  UNL1        0.0684
     14 BR          6.5114   -1.6062   18.2316 Br      1  UNL1       -0.0458
     15 O           4.8285   -3.3904   19.9591 O.3     1  UNL1       -0.4723
     16 C           5.4703   -3.4492   21.3135 C.3     1  UNL1        0.2373
     17 C           4.6198   -3.5890   22.5411 C.3     1  UNL1        0.1894
     18 C           4.7817   -1.0277   22.9457 C.3     1  UNL1        0.1743
     19 O           4.2918   -2.3811   23.3679 O.3     1  UNL1       -0.3471
     20 C          -0.1048    3.3748   24.5099 C.3     1  UNL1        0.0768
     21 C          -1.1149    2.9367   25.5285 C.3     1  UNL1        0.0437
     22 C          -2.5279    3.4334   25.4455 C.ar    1  UNL1       -0.0205
     23 C          -3.1694    4.0735   26.6408 C.ar    1  UNL1       -0.0011
     24 C          -4.5823    4.5702   26.5577 C.ar    1  UNL1        0.0373
     25 C          -5.3537    4.4268   25.2792 C.ar    1  UNL1        0.1484
     26 O          -6.7667    4.9236   25.1962 O.2     1  UNL1       -0.4502
     27 C          -7.5381    4.7802   23.9178 C.ar    1  UNL1        0.1828
     28 C          -6.8966    4.1401   22.7224 C.ar    1  UNL1        0.0827
     29 C          -5.4837    3.6434   22.8055 C.ar    1  UNL1        0.2017
     30 O          -4.8422    3.0034   21.6102 O.2     1  UNL1       -0.2864
     31 C          -4.7122    3.7868   24.0839 C.ar    1  UNL1        0.0732
     32 C          -3.2993    3.2901   24.1670 C.ar    1  UNL1        0.0020
@<TRIPOS>BOND
     1    18    19    1
     2    19    17    1
     3    17    16    1
     4    16    15    1
     5    15     8    1
     6     8     9   ar
     7     9    10   ar
     8    10     7    1
     9     7     1    1
    10     1     2    1
    11     2     3    1
    12     3     4    1
    13     4    20    1
    14    20    21    1
    15    21    22    1
    16    22    23   ar
    17    23    24   ar
    18    24    25   ar
    19    25    26   ar
    20    26    27   ar
    21    27    28   ar
    22    28    29   ar
    23    29    30    2
    24    29    31   ar
    25    31    32   ar
    26     4     5    1
    27     5     6    1
    28    10    11   ar
    29    11    12   ar
    30    12    13   ar
    31    13    14    1
    32    13     8   ar
    33     6     1    1
    34    32    22   ar
    35    31    25   ar
@<TRIPOS>MOLECULE
*****
 32 35 0 0 0
SMALL
GASTEIGER

@<TRIPOS>ATOM
      1 C           4.6301   -3.5334   20.4360 C.3     1  UNL1        0.0071
      2 C           5.9745   -3.8938   19.8770 C.3     1  UNL1        0.0177
      3 C           7.0945   -4.2704   20.8009 C.3     1  UNL1        0.0721
      4 N           6.8701   -4.2865   22.2840 N.3     1  UNL1       -0.2724
      5 C           5.5257   -3.9261   22.8430 C.3     1  UNL1        0.0721
      6 C           4.4057   -3.5496   21.9191 C.3     1  UNL1        0.0177
      7 C           3.5100   -3.1569   19.5121 C.3     1  UNL1        0.0265
      8 C           1.6602    0.3263   19.9545 C.ar    1  UNL1        0.1445
      9 C           2.0287   -1.1162   20.1376 C.ar    1  UNL1        0.0331
     10 C           3.1415   -1.7144   19.3290 C.ar    1  UNL1       -0.0191
     11 C           3.8858   -0.8703   18.3374 C.ar    1  UNL1       -0.0036
     12 C           3.5173    0.5723   18.1543 C.ar    1  UNL1        0.0094
     13 C           2.4046    1.1705   18.9629 C.ar    1  UNL1        0.0684
     14 BR          2.0361    2.6130   18.7798 Br      1  UNL1       -0.0458
     15 O           0.5474    0.9246   20.7631 O.3     1  UNL1       -0.4723
     16 C           0.7090    1.1048   22.2434 C.3     1  UNL1        0.2373
     17 C           1.9573    1.7309   22.7909 C.3     1  UNL1        0.1894
     18 C           2.9737   -0.4848   23.6893 C.3     1  UNL1        0.1743
     19 O           2.7798    0.9978   23.8087 O.3     1  UNL1       -0.3471
     20 C           7.9902   -4.6631   23.2079 C.3     1  UNL1        0.0768
     21 C           8.0467   -6.0422   23.7949 C.3     1  UNL1        0.0437
     22 C           8.0409   -6.2245   25.2839 C.ar    1  UNL1       -0.0205
     23 C           8.7069   -7.4213   25.8955 C.ar    1  UNL1       -0.0011
     24 C           8.7011   -7.6035   27.3844 C.ar    1  UNL1        0.0373
     25 C           8.0293   -6.5889   28.2616 C.ar    1  UNL1        0.1484
     26 O           8.0236   -6.7711   29.7505 O.2     1  UNL1       -0.4502
     27 C           7.3518   -5.7566   30.6276 C.ar    1  UNL1        0.1828
     28 C           6.6858   -4.5597   30.0159 C.ar    1  UNL1        0.0827
     29 C           6.6916   -4.3775   28.5270 C.ar    1  UNL1        0.2017
     30 O           6.0257   -3.1808   27.9153 O.2     1  UNL1       -0.2864
     31 C           7.3634   -5.3921   27.6499 C.ar    1  UNL1        0.0732
     32 C           7.3692   -5.2099   26.1610 C.ar    1  UNL1        0.0020
@<TRIPOS>BOND
     1    18    19    1
     2    19    17    1
     3    17    16    1
     4    16    15    1
     5    15     8    1
     6     8     9   ar
     7     9    10   ar
     8    10     7    1
     9     7     1    1
    10     1     2    1
    11     2     3    1
    12     3     4    1
    13     4    20    1
    14    20    21    1
    15    21    22    1
    16    22    23   ar
    17    23    24   ar
    18    24    25   ar
    19    25    26   ar
    20    26    27   ar
    21    27    28   ar
    22    28    29   ar
    23    29    30    2
    24    29    31   ar
    25    31    32   ar
    26     4     5    1
    27     5     6    1
    28    10    11   ar
    29    11    12   ar
    30    12    13   ar
    31    13    14    1
    32    13     8   ar
    33     6     1    1
    34    32    22   ar
    35    31    25   ar
@<TRIPOS>MOLECULE
*****
 32 35 0 0 0
SMALL
GASTEIGER

@<TRIPOS>ATOM
      1 C           4.6545   -3.4179   20.5209 C.3     1  UNL1        0.0071
      2 C           5.9407   -3.7795   19.8391 C.3     1  UNL1        0.0177
      3 C           7.1205   -4.2250   20.6512 C.3     1  UNL1        0.0721
      4 N           7.0141   -4.3090   22.1450 N.3     1  UNL1       -0.2724
      5 C           5.7279   -3.9474   22.8268 C.3     1  UNL1        0.0721
      6 C           4.5481   -3.5018   22.0148 C.3     1  UNL1        0.0177
      7 C           3.4746   -2.9723   19.7088 C.3     1  UNL1        0.0265
      8 C           2.1564    0.7610   19.9826 C.ar    1  UNL1        0.1445
      9 C           2.3576   -0.6962   20.2761 C.ar    1  UNL1        0.0331
     10 C           3.2734   -1.5151   19.4154 C.ar    1  UNL1       -0.0191
     11 C           3.9879   -0.8769   18.2613 C.ar    1  UNL1       -0.0036
     12 C           3.7867    0.5804   17.9678 C.ar    1  UNL1        0.0094
     13 C           2.8710    1.3993   18.8284 C.ar    1  UNL1        0.0684
     14 BR          2.6698    2.8564   18.5350 Br      1  UNL1       -0.0458
     15 O           1.2407    1.5799   20.8433 O.3     1  UNL1       -0.4723
     16 C          -0.1983    1.7515   20.4561 C.3     1  UNL1        0.2373
     17 C          -1.0253    2.8247   21.0998 C.3     1  UNL1        0.1894
     18 C          -3.3672    3.6684   21.8437 C.3     1  UNL1        0.1743
     19 O          -2.5180    2.8105   20.9533 O.3     1  UNL1       -0.3471
     20 C           8.1940   -4.7546   22.9571 C.3     1  UNL1        0.0768
     21 C           8.1909   -6.1077   23.6045 C.3     1  UNL1        0.0437
     22 C           8.0550   -6.2263   25.0937 C.ar    1  UNL1       -0.0205
     23 C           8.4880   -7.4830   25.7886 C.ar    1  UNL1       -0.0011
     24 C           8.3522   -7.6016   27.2777 C.ar    1  UNL1        0.0373
     25 C           7.7833   -6.4633   28.0719 C.ar    1  UNL1        0.1484
     26 O           7.6474   -6.5819   29.5611 O.2     1  UNL1       -0.4502
     27 C           7.0785   -5.4437   30.3553 C.ar    1  UNL1        0.1828
     28 C           6.6455   -4.1869   29.6603 C.ar    1  UNL1        0.0827
     29 C           6.7814   -4.0683   28.1712 C.ar    1  UNL1        0.2017
     30 O           6.3483   -2.8115   27.4763 O.2     1  UNL1       -0.2864
     31 C           7.3503   -5.2066   27.3770 C.ar    1  UNL1        0.0732
     32 C           7.4861   -5.0880   25.8879 C.ar    1  UNL1        0.0020
@<TRIPOS>BOND
     1    18    19    1
     2    19    17    1
     3    17    16    1
     4    16    15    1
     5    15     8    1
     6     8     9   ar
     7     9    10   ar
     8    10     7    1
     9     7     1    1
    10     1     2    1
    11     2     3    1
    12     3     4    1
    13     4    20    1
    14    20    21    1
    15    21    22    1
    16    22    23   ar
    17    23    24   ar
    18    24    25   ar
    19    25    26   ar
    20    26    27   ar
    21    27    28   ar
    22    28    29   ar
    23    29    30    2
    24    29    31   ar
    25    31    32   ar
    26     4     5    1
    27     5     6    1
    28    10    11   ar
    29    11    12   ar
    30    12    13   ar
    31    13    14    1
    32    13     8   ar
    33     6     1    1
    34    32    22   ar
    35    31    25   ar
@<TRIPOS>MOLECULE
*****
 32 35 0 0 0
SMALL
GASTEIGER

@<TRIPOS>ATOM
      1 C          -0.6412    2.1144   25.6861 C.3     1  UNL1        0.0071
      2 C          -1.1897    3.0952   24.6925 C.3     1  UNL1        0.0177
      3 C          -0.7481    3.0381   23.2602 C.3     1  UNL1        0.0721
      4 N           0.2420    2.0002   22.8214 N.3     1  UNL1       -0.2724
      5 C           0.7904    1.0194   23.8149 C.3     1  UNL1        0.0721
      6 C           0.3488    1.0765   25.2473 C.3     1  UNL1        0.0177
      7 C          -1.0829    2.1715   27.1185 C.3     1  UNL1        0.0265
      8 C           1.3579    1.5241   30.1800 C.ar    1  UNL1        0.1445
      9 C           0.3517    1.2832   29.0940 C.ar    1  UNL1        0.0331
     10 C          -0.0767    2.4124   28.2045 C.ar    1  UNL1       -0.0191
     11 C           0.5011    3.7826   28.4010 C.ar    1  UNL1       -0.0036
     12 C           1.5074    4.0236   29.4870 C.ar    1  UNL1        0.0094
     13 C           1.9358    2.8944   30.3765 C.ar    1  UNL1        0.0684
     14 BR          2.9420    3.1353   31.4626 Br      1  UNL1       -0.0458
     15 O           1.7863    0.3949   31.0696 O.3     1  UNL1       -0.4723
     16 C           2.8145   -0.5874   30.5922 C.3     1  UNL1        0.2373
     17 C           3.7012   -0.2411   29.4329 C.3     1  UNL1        0.1894
     18 C           3.6770   -1.2245   27.0283 C.3     1  UNL1        0.1743
     19 O           4.1147   -1.3059   28.4607 O.3     1  UNL1       -0.3471
     20 C           0.6836    1.9431   21.3889 C.3     1  UNL1        0.0768
     21 C           0.4380    0.7059   20.5771 C.3     1  UNL1        0.0437
     22 C           1.5665    0.0675   19.8228 C.ar    1  UNL1       -0.0205
     23 C           1.8461    0.4734   18.4061 C.ar    1  UNL1       -0.0011
     24 C           2.9745   -0.1650   17.6518 C.ar    1  UNL1        0.0373
     25 C           3.8234   -1.2093   18.3143 C.ar    1  UNL1        0.1484
     26 O           4.9520   -1.8477   17.5599 O.2     1  UNL1       -0.4502
     27 C           5.8009   -2.8920   18.2224 C.ar    1  UNL1        0.1828
     28 C           5.5213   -3.2979   19.6392 C.ar    1  UNL1        0.0827
     29 C           4.3928   -2.6595   20.3934 C.ar    1  UNL1        0.2017
     30 O           4.1132   -3.0653   21.8101 O.2     1  UNL1       -0.2864
     31 C           3.5439   -1.6152   19.7310 C.ar    1  UNL1        0.0732
     32 C           2.4154   -0.9768   20.4852 C.ar    1  UNL1        0.0020
@<TRIPOS>BOND
     1    18    19    1
     2    19    17    1
     3    17    16    1
     4    16    15    1
     5    15     8    1
     6     8     9   ar
     7     9    10   ar
     8    10     7    1
     9     7     1    1
    10     1     2    1
    11     2     3    1
    12     3     4    1
    13     4    20    1
    14    20    21    1
    15    21    22    1
    16    22    23   ar
    17    23    24   ar
    18    24    25   ar
    19    25    26   ar
    20    26    27   ar
    21    27    28   ar
    22    28    29   ar
    23    29    30    2
    24    29    31   ar
    25    31    32   ar
    26     4     5    1
    27     5     6    1
    28    10    11   ar
    29    11    12   ar
    30    12    13   ar
    31    13    14    1
    32    13     8   ar
    33     6     1    1
    34    32    22   ar
    35    31    25   ar
@<TRIPOS>MOLECULE
*****
 32 35 0 0 0
SMALL
GASTEIGER

@<TRIPOS>ATOM
      1 C           2.5767    0.9747   23.3123 C.3     1  UNL1        0.0071
      2 C           2.7512    0.7139   24.7790 C.3     1  UNL1        0.0177
      3 C           1.6291    1.0041   25.7311 C.3     1  UNL1        0.0721
      4 N           0.3324    1.5552   25.2165 N.3     1  UNL1       -0.2724
      5 C           0.1578    1.8161   23.7498 C.3     1  UNL1        0.0721
      6 C           1.2800    1.5258   22.7976 C.3     1  UNL1        0.0177
      7 C           3.6988    0.6845   22.3600 C.3     1  UNL1        0.0265
      8 C           4.6060   -3.0895   21.5335 C.ar    1  UNL1        0.1445
      9 C           4.5460   -1.7687   22.2418 C.ar    1  UNL1        0.0331
     10 C           3.7588   -0.6364   21.6518 C.ar    1  UNL1       -0.0191
     11 C           3.0314   -0.8249   20.3536 C.ar    1  UNL1       -0.0036
     12 C           3.0914   -2.1458   19.6453 C.ar    1  UNL1        0.0094
     13 C           3.8786   -3.2782   20.2352 C.ar    1  UNL1        0.0684
     14 BR          3.9386   -4.5990   19.5270 Br      1  UNL1       -0.0458
     15 O           5.3933   -4.2219   22.1235 O.3     1  UNL1       -0.4723
     16 C           6.8925   -4.1776   22.1146 C.3     1  UNL1        0.2373
     17 C           7.6725   -4.9789   23.1144 C.3     1  UNL1        0.1894
     18 C           8.7814   -7.2961   23.5028 C.3     1  UNL1        0.1743
     19 O           8.5807   -6.0785   22.6499 O.3     1  UNL1       -0.3471
     20 C          -0.7897    1.8454   26.1687 C.3     1  UNL1        0.0768
     21 C          -1.2922    3.2495   26.3301 C.3     1  UNL1        0.0437
     22 C          -2.6788    3.6059   25.8824 C.ar    1  UNL1       -0.0205
     23 C          -3.6464    4.2165   26.8524 C.ar    1  UNL1       -0.0011
     24 C          -5.0329    4.5729   26.4047 C.ar    1  UNL1        0.0373
     25 C          -5.4519    4.3187   24.9870 C.ar    1  UNL1        0.1484
     26 O          -6.8385    4.6752   24.5393 O.2     1  UNL1       -0.4502
     27 C          -7.2574    4.4210   23.1216 C.ar    1  UNL1        0.1828
     28 C          -6.2898    3.8104   22.1516 C.ar    1  UNL1        0.0827
     29 C          -4.9033    3.4540   22.5993 C.ar    1  UNL1        0.2017
     30 O          -3.9357    2.8434   21.6293 O.2     1  UNL1       -0.2864
     31 C          -4.4843    3.7082   24.0170 C.ar    1  UNL1        0.0732
     32 C          -3.0978    3.3517   24.4647 C.ar    1  UNL1        0.0020
@<TRIPOS>BOND
     1    18    19    1
     2    19    17    1
     3    17    16    1
     4    16    15    1
     5    15     8    1
     6     8     9   ar
     7     9    10   ar
     8    10     7    1
     9     7     1    1
    10     1     2    1
    11     2     3    1
    12     3     4    1
    13     4    20    1
    14    20    21    1
    15    21    22    1
    16    22    23   ar
    17    23    24   ar
    18    24    25   ar
    19    25    26   ar
    20    26    27   ar
    21    27    28   ar
    22    28    29   ar
    23    29    30    2
    24    29    31   ar
    25    31    32   ar
    26     4     5    1
    27     5     6    1
    28    10    11   ar
    29    11    12   ar
    30    12    13   ar
    31    13    14    1
    32    13     8   ar
    33     6     1    1
    34    32    22   ar
    35    31    25   ar
