@<TRIPOS>MOLECULE
*****
 26 29 0 0 0
SMALL
GASTEIGER

@<TRIPOS>ATOM
      1 C          -8.4575  -15.3709   26.9762 C.3     1  UNL1        0.1538
      2 N          -8.2952  -15.9124   25.5868 N.ar    1  UNL1       -0.2462
      3 C          -9.4056  -16.2417   24.6336 C.ar    1  UNL1        0.0980
      4 C          -8.7907  -16.7525   23.3644 C.ar    1  UNL1        0.0522
      5 C          -7.3003  -16.7389   23.5331 C.ar    1  UNL1        0.1556
      6 N          -6.9940  -16.2197   24.9067 N.ar    1  UNL1       -0.1539
      7 C          -9.5355  -17.1986   22.1411 C.ar    1  UNL1        0.0051
      8 C          -9.5389  -18.6472   21.7519 C.ar    1  UNL1        0.0002
      9 C         -10.2836  -19.0933   20.5286 C.ar    1  UNL1        0.0009
     10 C         -11.0249  -18.0910   19.6946 C.ar    1  UNL1        0.0114
     11 C         -11.0215  -16.6422   20.0838 C.ar    1  UNL1        0.0577
     12 CL        -11.7627  -15.6398   19.2499 Cl      1  UNL1       -0.0822
     13 C         -10.2767  -16.1961   21.3071 C.ar    1  UNL1        0.0115
     14 N          -6.2930  -17.1690   22.5082 N.am    1  UNL1       -0.2643
     15 C          -6.0858  -18.6277   22.2263 C.2     1  UNL1        0.2552
     16 O          -6.8859  -19.6561   22.9692 O.2     1  UNL1       -0.2696
     17 H          -5.7679  -16.4939   22.0206 H       1  UNL1        0.1566
     18 C          -5.0785  -19.0578   21.2014 C.ar    1  UNL1        0.1102
     19 C          -5.2057  -20.2343   20.2797 C.ar    1  UNL1        0.1281
     20 N          -3.9729  -20.2905   19.4270 N.ar    1  UNL1       -0.1619
     21 N          -3.0839  -19.1486   19.8217 N.ar    1  UNL1       -0.2105
     22 C          -1.7404  -18.7042   19.3241 C.ar    1  UNL1        0.1037
     23 C          -1.0802  -17.4979   19.9233 C.ar    1  UNL1        0.0414
     24 C          -1.7635  -16.7361   21.0200 C.ar    1  UNL1        0.1022
     25 N          -3.1070  -17.1805   21.5175 N.ar    1  UNL1       -0.2248
     26 C          -3.7671  -18.3868   20.9183 C.ar    1  UNL1        0.1697
@<TRIPOS>BOND
     1     1     2    1
     2     2     3   ar
     3     3     4   ar
     4     4     7    1
     5     7     8   ar
     6     8     9   ar
     7     9    10   ar
     8    10    11   ar
     9    11    12    1
    10    11    13   ar
    11     4     5   ar
    12     5    14    1
    13    14    15   am
    14    15    16    2
    15    15    18    1
    16    18    19   ar
    17    19    20   ar
    18    20    21   ar
    19    21    22   ar
    20    22    23   ar
    21    23    24   ar
    22    24    25   ar
    23    25    26   ar
    24     5     6   ar
    25     6     2   ar
    26    13     7   ar
    27    26    18   ar
    28    26    21   ar
    29    14    17    1
@<TRIPOS>MOLECULE
*****
 26 29 0 0 0
SMALL
GASTEIGER

@<TRIPOS>ATOM
      1 C          -2.0317  -19.6654   21.2319 C.3     1  UNL1        0.1538
      2 N          -3.3046  -18.9791   21.6302 N.ar    1  UNL1       -0.2462
      3 C          -3.5231  -18.1848   22.8838 C.ar    1  UNL1        0.0980
      4 C          -4.9360  -17.6815   22.8732 C.ar    1  UNL1        0.0522
      5 C          -5.5908  -18.1646   21.6131 C.ar    1  UNL1        0.1556
      6 N          -4.5825  -18.9666   20.8448 N.ar    1  UNL1       -0.1539
      7 C          -5.5810  -16.8423   23.9361 C.ar    1  UNL1        0.0051
      8 C          -4.7491  -16.2621   25.0412 C.ar    1  UNL1        0.0002
      9 C          -5.3941  -15.4229   26.1041 C.ar    1  UNL1        0.0009
     10 C          -6.8709  -15.1639   26.0619 C.ar    1  UNL1        0.0114
     11 C          -7.7029  -15.7441   24.9567 C.ar    1  UNL1        0.0577
     12 CL         -9.1797  -15.4851   24.9145 Cl      1  UNL1       -0.0822
     13 C          -7.0579  -16.5832   23.8938 C.ar    1  UNL1        0.0115
     14 N          -7.0055  -17.8934   21.1947 N.am    1  UNL1       -0.2643
     15 C          -8.0981  -18.8452   21.5829 C.2     1  UNL1        0.2552
     16 O          -7.7758  -20.0681   22.3894 O.2     1  UNL1       -0.2696
     17 H          -7.2170  -17.0907   20.6653 H       1  UNL1        0.1566
     18 C          -9.5128  -18.5740   21.1645 C.ar    1  UNL1        0.1102
     19 C         -10.0064  -18.4493   19.7535 C.ar    1  UNL1        0.1281
     20 N         -11.4809  -18.1781   19.8007 N.ar    1  UNL1       -0.1619
     21 N         -11.8986  -18.1351   21.2407 N.ar    1  UNL1       -0.2105
     22 C         -13.2293  -17.9048   21.8934 C.ar    1  UNL1        0.1037
     23 C         -13.3437  -17.9192   23.3889 C.ar    1  UNL1        0.0414
     24 C         -12.1273  -18.1638   24.2318 C.ar    1  UNL1        0.1022
     25 N         -10.7965  -18.3942   23.5791 N.ar    1  UNL1       -0.2248
     26 C         -10.6822  -18.3798   22.0836 C.ar    1  UNL1        0.1697
@<TRIPOS>BOND
     1     1     2    1
     2     2     3   ar
     3     3     4   ar
     4     4     7    1
     5     7     8   ar
     6     8     9   ar
     7     9    10   ar
     8    10    11   ar
     9    11    12    1
    10    11    13   ar
    11     4     5   ar
    12     5    14    1
    13    14    15   am
    14    15    16    2
    15    15    18    1
    16    18    19   ar
    17    19    20   ar
    18    20    21   ar
    19    21    22   ar
    20    22    23   ar
    21    23    24   ar
    22    24    25   ar
    23    25    26   ar
    24     5     6   ar
    25     6     2   ar
    26    13     7   ar
    27    26    18   ar
    28    26    21   ar
    29    14    17    1
@<TRIPOS>MOLECULE
*****
 26 29 0 0 0
SMALL
GASTEIGER

@<TRIPOS>ATOM
      1 C          -6.9445  -14.7831   27.5722 C.3     1  UNL1        0.1538
      2 N          -7.2663  -15.4654   26.2757 N.ar    1  UNL1       -0.2462
      3 C          -8.6397  -15.7909   25.7678 C.ar    1  UNL1        0.0980
      4 C          -8.4934  -16.4687   24.4377 C.ar    1  UNL1        0.0522
      5 C          -7.0297  -16.5620   24.1235 C.ar    1  UNL1        0.1556
      6 N          -6.2712  -15.9420   25.2594 N.ar    1  UNL1       -0.1539
      7 C          -9.6141  -16.9659   23.5735 C.ar    1  UNL1        0.0051
      8 C         -10.6162  -15.9993   23.0153 C.ar    1  UNL1        0.0002
      9 C         -11.7369  -16.4965   22.1511 C.ar    1  UNL1        0.0009
     10 C         -11.8556  -17.9600   21.8450 C.ar    1  UNL1        0.0114
     11 C         -10.8534  -18.9267   22.4033 C.ar    1  UNL1        0.0577
     12 CL        -10.9720  -20.3903   22.0973 Cl      1  UNL1       -0.0822
     13 C          -9.7327  -18.4295   23.2675 C.ar    1  UNL1        0.0115
     14 N          -6.4297  -17.1689   22.8899 N.am    1  UNL1       -0.2643
     15 C          -5.0928  -17.8457   22.9611 C.2     1  UNL1        0.2552
     16 O          -4.3561  -17.9154   24.2658 O.2     1  UNL1       -0.2696
     17 H          -6.9132  -17.1231   22.0336 H       1  UNL1        0.1566
     18 C          -4.4928  -18.4526   21.7275 C.ar    1  UNL1        0.1102
     19 C          -5.0470  -19.6143   20.9574 C.ar    1  UNL1        0.1281
     20 N          -4.1300  -19.8840   19.8015 N.ar    1  UNL1       -0.1619
     21 N          -3.0090  -18.8888   19.8571 N.ar    1  UNL1       -0.2105
     22 C          -1.8130  -18.6740   18.9777 C.ar    1  UNL1        0.1037
     23 C          -0.8413  -17.5744   19.2886 C.ar    1  UNL1        0.0414
     24 C          -1.0656  -16.6897   20.4790 C.ar    1  UNL1        0.1022
     25 N          -2.2615  -16.9046   21.3585 N.ar    1  UNL1       -0.2248
     26 C          -3.2332  -18.0042   21.0475 C.ar    1  UNL1        0.1697
@<TRIPOS>BOND
     1     1     2    1
     2     2     3   ar
     3     3     4   ar
     4     4     7    1
     5     7     8   ar
     6     8     9   ar
     7     9    10   ar
     8    10    11   ar
     9    11    12    1
    10    11    13   ar
    11     4     5   ar
    12     5    14    1
    13    14    15   am
    14    15    16    2
    15    15    18    1
    16    18    19   ar
    17    19    20   ar
    18    20    21   ar
    19    21    22   ar
    20    22    23   ar
    21    23    24   ar
    22    24    25   ar
    23    25    26   ar
    24     5     6   ar
    25     6     2   ar
    26    13     7   ar
    27    26    18   ar
    28    26    21   ar
    29    14    17    1
@<TRIPOS>MOLECULE
*****
 26 29 0 0 0
SMALL
GASTEIGER

@<TRIPOS>ATOM
      1 C         -14.9822    0.6227   18.9823 C.3     1  UNL1        0.1538
      2 N         -14.4236   -0.7332   18.6666 N.ar    1  UNL1       -0.2462
      3 C         -12.9848   -1.0501   18.3848 C.ar    1  UNL1        0.0980
      4 C         -12.8776   -2.5229   18.1213 C.ar    1  UNL1        0.0522
      5 C         -14.2502   -3.1161   18.2403 C.ar    1  UNL1        0.1556
      6 N         -15.2056   -2.0100   18.5773 N.ar    1  UNL1       -0.1539
      7 C         -11.6189   -3.2711   17.7960 C.ar    1  UNL1        0.0051
      8 C         -10.8920   -2.9941   16.5134 C.ar    1  UNL1        0.0002
      9 C          -9.6333   -3.7423   16.1881 C.ar    1  UNL1        0.0009
     10 C          -9.1014   -4.7674   17.1451 C.ar    1  UNL1        0.0114
     11 C          -9.8283   -5.0445   18.4278 C.ar    1  UNL1        0.0577
     12 CL         -9.2966   -6.0696   19.3849 Cl      1  UNL1       -0.0822
     13 C         -11.0870   -4.2963   18.7531 C.ar    1  UNL1        0.0115
     14 N         -14.6049   -4.5617   18.0548 N.am    1  UNL1       -0.2643
     15 C         -14.4624   -5.5217   19.1987 C.2     1  UNL1        0.2552
     16 O         -13.9651   -5.0360   20.5278 O.2     1  UNL1       -0.2696
     17 H         -14.9313   -4.8805   17.1824 H       1  UNL1        0.1566
     18 C         -14.8171   -6.9673   19.0132 C.ar    1  UNL1        0.1102
     19 C         -13.9064   -8.0387   18.4910 C.ar    1  UNL1        0.1281
     20 N         -14.6714   -9.3288   18.4724 N.ar    1  UNL1       -0.1619
     21 N         -16.0548   -9.0548   18.9832 N.ar    1  UNL1       -0.2105
     22 C         -17.2442   -9.9458   19.1871 C.ar    1  UNL1        0.1037
     23 C         -18.5237   -9.3772   19.7253 C.ar    1  UNL1        0.0414
     24 C         -18.6138   -7.9176   20.0595 C.ar    1  UNL1        0.1022
     25 N         -17.4244   -7.0267   19.8556 N.ar    1  UNL1       -0.2248
     26 C         -16.1449   -7.5953   19.3174 C.ar    1  UNL1        0.1697
@<TRIPOS>BOND
     1     1     2    1
     2     2     3   ar
     3     3     4   ar
     4     4     7    1
     5     7     8   ar
     6     8     9   ar
     7     9    10   ar
     8    10    11   ar
     9    11    12    1
    10    11    13   ar
    11     4     5   ar
    12     5    14    1
    13    14    15   am
    14    15    16    2
    15    15    18    1
    16    18    19   ar
    17    19    20   ar
    18    20    21   ar
    19    21    22   ar
    20    22    23   ar
    21    23    24   ar
    22    24    25   ar
    23    25    26   ar
    24     5     6   ar
    25     6     2   ar
    26    13     7   ar
    27    26    18   ar
    28    26    21   ar
    29    14    17    1
@<TRIPOS>MOLECULE
*****
 26 29 0 0 0
SMALL
GASTEIGER

@<TRIPOS>ATOM
      1 C         -11.2669   -0.0098   17.1794 C.3     1  UNL1        0.1538
      2 N         -11.7445   -1.4278   17.2848 N.ar    1  UNL1       -0.2462
      3 C         -10.8824   -2.6544   17.2355 C.ar    1  UNL1        0.0980
      4 C         -11.7730   -3.8529   17.3782 C.ar    1  UNL1        0.0522
      5 C         -13.1855   -3.3670   17.5157 C.ar    1  UNL1        0.1556
      6 N         -13.1678   -1.8682   17.4580 N.ar    1  UNL1       -0.1539
      7 C         -11.3291   -5.2857   17.3826 C.ar    1  UNL1        0.0051
      8 C         -11.8825   -6.2454   16.3713 C.ar    1  UNL1        0.0002
      9 C         -11.4386   -7.6782   16.3757 C.ar    1  UNL1        0.0009
     10 C         -10.4414   -8.1513   17.3913 C.ar    1  UNL1        0.0114
     11 C          -9.8880   -7.1916   18.4027 C.ar    1  UNL1        0.0577
     12 CL         -8.8908   -7.6647   19.4184 Cl      1  UNL1       -0.0822
     13 C         -10.3319   -5.7588   18.3983 C.ar    1  UNL1        0.0115
     14 N         -14.4020   -4.2287   17.6818 N.am    1  UNL1       -0.2643
     15 C         -14.5974   -5.0152   18.9441 C.2     1  UNL1        0.2552
     16 O         -13.5762   -4.9399   20.0402 O.2     1  UNL1       -0.2696
     17 H         -15.0722   -4.2781   16.9623 H       1  UNL1        0.1566
     18 C         -15.8139   -5.8769   19.1102 C.ar    1  UNL1        0.1102
     19 C         -17.1575   -5.4209   19.5967 C.ar    1  UNL1        0.1281
     20 N         -18.0744   -6.6081   19.6061 N.ar    1  UNL1       -0.1619
     21 N         -17.2973   -7.7978   19.1255 N.ar    1  UNL1       -0.2105
     22 C         -17.6814   -9.2341   18.9273 C.ar    1  UNL1        0.1037
     23 C         -16.6684  -10.2185   18.4227 C.ar    1  UNL1        0.0414
     24 C         -15.2713   -9.7666   18.1162 C.ar    1  UNL1        0.1022
     25 N         -14.8872   -8.3303   18.3144 N.ar    1  UNL1       -0.2248
     26 C         -15.9002   -7.3458   18.8190 C.ar    1  UNL1        0.1697
@<TRIPOS>BOND
     1     1     2    1
     2     2     3   ar
     3     3     4   ar
     4     4     7    1
     5     7     8   ar
     6     8     9   ar
     7     9    10   ar
     8    10    11   ar
     9    11    12    1
    10    11    13   ar
    11     4     5   ar
    12     5    14    1
    13    14    15   am
    14    15    16    2
    15    15    18    1
    16    18    19   ar
    17    19    20   ar
    18    20    21   ar
    19    21    22   ar
    20    22    23   ar
    21    23    24   ar
    22    24    25   ar
    23    25    26   ar
    24     5     6   ar
    25     6     2   ar
    26    13     7   ar
    27    26    18   ar
    28    26    21   ar
    29    14    17    1
@<TRIPOS>MOLECULE
*****
 26 29 0 0 0
SMALL
GASTEIGER

@<TRIPOS>ATOM
      1 C          -6.4477  -13.9429   28.0580 C.3     1  UNL1        0.1538
      2 N          -6.6257  -14.7517   26.8073 N.ar    1  UNL1       -0.2462
      3 C          -7.9327  -15.2157   26.2360 C.ar    1  UNL1        0.0980
      4 C          -7.6428  -15.9893   24.9840 C.ar    1  UNL1        0.0522
      5 C          -6.1566  -16.0035   24.7816 C.ar    1  UNL1        0.1556
      6 N          -5.5279  -15.2386   25.9085 N.ar    1  UNL1       -0.1539
      7 C          -8.6604  -16.6353   24.0911 C.ar    1  UNL1        0.0051
      8 C          -8.7527  -16.2367   22.6480 C.ar    1  UNL1        0.0002
      9 C          -9.7703  -16.8827   21.7552 C.ar    1  UNL1        0.0009
     10 C         -10.6955  -17.9273   22.3053 C.ar    1  UNL1        0.0114
     11 C         -10.6032  -18.3259   23.7485 C.ar    1  UNL1        0.0577
     12 CL        -11.5283  -19.3705   24.2988 Cl      1  UNL1       -0.0822
     13 C          -9.5856  -17.6799   24.6414 C.ar    1  UNL1        0.0115
     14 N          -5.4270  -16.6662   23.6509 N.am    1  UNL1       -0.2643
     15 C          -4.2513  -17.5536   23.9345 C.2     1  UNL1        0.2552
     16 O          -3.8053  -17.7782   25.3489 O.2     1  UNL1       -0.2696
     17 H          -5.7198  -16.5187   22.7226 H       1  UNL1        0.1566
     18 C          -3.5218  -18.2163   22.8038 C.ar    1  UNL1        0.1102
     19 C          -2.0703  -18.0415   22.4682 C.ar    1  UNL1        0.1281
     20 N          -1.7672  -18.8874   21.2671 N.ar    1  UNL1       -0.1619
     21 N          -3.0313  -19.5850   20.8604 N.ar    1  UNL1       -0.2105
     22 C          -3.3350  -20.5442   19.7479 C.ar    1  UNL1        0.1037
     23 C          -4.7232  -21.0887   19.5853 C.ar    1  UNL1        0.0414
     24 C          -5.8076  -20.6740   20.5350 C.ar    1  UNL1        0.1022
     25 N          -5.5039  -19.7147   21.6474 N.ar    1  UNL1       -0.2248
     26 C          -4.1157  -19.1702   21.8101 C.ar    1  UNL1        0.1697
@<TRIPOS>BOND
     1     1     2    1
     2     2     3   ar
     3     3     4   ar
     4     4     7    1
     5     7     8   ar
     6     8     9   ar
     7     9    10   ar
     8    10    11   ar
     9    11    12    1
    10    11    13   ar
    11     4     5   ar
    12     5    14    1
    13    14    15   am
    14    15    16    2
    15    15    18    1
    16    18    19   ar
    17    19    20   ar
    18    20    21   ar
    19    21    22   ar
    20    22    23   ar
    21    23    24   ar
    22    24    25   ar
    23    25    26   ar
    24     5     6   ar
    25     6     2   ar
    26    13     7   ar
    27    26    18   ar
    28    26    21   ar
    29    14    17    1
@<TRIPOS>MOLECULE
*****
 26 29 0 0 0
SMALL
GASTEIGER

@<TRIPOS>ATOM
      1 C           6.0573   -1.0923   31.1386 C.3     1  UNL1        0.1538
      2 N           5.0792   -1.0020   30.0049 N.ar    1  UNL1       -0.2462
      3 C           3.7875   -0.2395   30.0134 C.ar    1  UNL1        0.0980
      4 C           3.1311   -0.4247   28.6774 C.ar    1  UNL1        0.0522
      5 C           4.0171   -1.3017   27.8433 C.ar    1  UNL1        0.1556
      6 N           5.2211   -1.6585   28.6636 N.ar    1  UNL1       -0.1539
      7 C           1.8190    0.1638   28.2506 C.ar    1  UNL1        0.0051
      8 C           1.7688    1.1350   27.1086 C.ar    1  UNL1        0.0002
      9 C           0.4567    1.7234   26.6817 C.ar    1  UNL1        0.0009
     10 C          -0.8050    1.3408   27.3967 C.ar    1  UNL1        0.0114
     11 C          -0.7548    0.3695   28.5389 C.ar    1  UNL1        0.0577
     12 CL         -2.0165   -0.0132   29.2540 Cl      1  UNL1       -0.0822
     13 C           0.5572   -0.2189   28.9657 C.ar    1  UNL1        0.0115
     14 N           3.7466   -1.7441   26.4358 N.am    1  UNL1       -0.2643
     15 C           4.2389   -0.9203   25.2828 C.2     1  UNL1        0.2552
     16 O           5.0016    0.3458   25.5375 O.2     1  UNL1       -0.2696
     17 H           3.2459   -2.5752   26.2686 H       1  UNL1        0.1566
     18 C           3.9684   -1.3628   23.8753 C.ar    1  UNL1        0.1102
     19 C           4.6040   -2.5304   23.1806 C.ar    1  UNL1        0.1281
     20 N           4.0431   -2.6045   21.7914 N.ar    1  UNL1       -0.1619
     21 N           3.0609   -1.4827   21.6275 N.ar    1  UNL1       -0.2105
     22 C           2.2027   -1.0609   20.4719 C.ar    1  UNL1        0.1037
     23 C           1.2982    0.1283   20.6043 C.ar    1  UNL1        0.0414
     24 C           1.2520    0.8958   21.8923 C.ar    1  UNL1        0.1022
     25 N           2.1102    0.4740   23.0479 N.ar    1  UNL1       -0.2248
     26 C           3.0147   -0.7153   22.9155 C.ar    1  UNL1        0.1697
@<TRIPOS>BOND
     1     1     2    1
     2     2     3   ar
     3     3     4   ar
     4     4     7    1
     5     7     8   ar
     6     8     9   ar
     7     9    10   ar
     8    10    11   ar
     9    11    12    1
    10    11    13   ar
    11     4     5   ar
    12     5    14    1
    13    14    15   am
    14    15    16    2
    15    15    18    1
    16    18    19   ar
    17    19    20   ar
    18    20    21   ar
    19    21    22   ar
    20    22    23   ar
    21    23    24   ar
    22    24    25   ar
    23    25    26   ar
    24     5     6   ar
    25     6     2   ar
    26    13     7   ar
    27    26    18   ar
    28    26    21   ar
    29    14    17    1
@<TRIPOS>MOLECULE
*****
 26 29 0 0 0
SMALL
GASTEIGER

@<TRIPOS>ATOM
      1 C           2.6313    0.6317   25.3781 C.3     1  UNL1        0.1538
      2 N           3.2622   -0.4609   24.5668 N.ar    1  UNL1       -0.2462
      3 C           3.0700   -0.6909   23.0971 C.ar    1  UNL1        0.0980
      4 C           3.8850   -1.8875   22.7048 C.ar    1  UNL1        0.0522
      5 C           4.5808   -2.3970   23.9321 C.ar    1  UNL1        0.1556
      6 N           4.1959   -1.5154   25.0829 N.ar    1  UNL1       -0.1539
      7 C           3.9864   -2.4720   21.3271 C.ar    1  UNL1        0.0051
      8 C           4.0974   -3.9572   21.1488 C.ar    1  UNL1        0.0002
      9 C           4.1988   -4.5417   19.7711 C.ar    1  UNL1        0.0009
     10 C           4.1892   -3.6412   18.5717 C.ar    1  UNL1        0.0114
     11 C           4.0781   -2.1558   18.7499 C.ar    1  UNL1        0.0577
     12 CL          4.0685   -1.2551   17.5505 Cl      1  UNL1       -0.0822
     13 C           3.9768   -1.5713   20.1276 C.ar    1  UNL1        0.0115
     14 N           5.5002   -3.5805   23.9971 N.am    1  UNL1       -0.2643
     15 C           6.8821   -3.4893   23.4206 C.2     1  UNL1        0.2552
     16 O           7.3444   -2.2147   22.7792 O.2     1  UNL1       -0.2696
     17 H           5.1967   -4.4171   24.4181 H       1  UNL1        0.1566
     18 C           7.8014   -4.6728   23.4856 C.ar    1  UNL1        0.1102
     19 C           8.8566   -5.0258   22.4796 C.ar    1  UNL1        0.1281
     20 N           9.5343   -6.2822   22.9403 N.ar    1  UNL1       -0.1619
     21 N           8.8979   -6.7056   24.2310 N.ar    1  UNL1       -0.2105
     22 C           9.1554   -7.8684   25.1429 C.ar    1  UNL1        0.1037
     23 C           8.3418   -8.0365   26.3918 C.ar    1  UNL1        0.0414
     24 C           7.2708   -7.0418   26.7288 C.ar    1  UNL1        0.1022
     25 N           7.0134   -5.8790   25.8169 N.ar    1  UNL1       -0.2248
     26 C           7.8269   -5.7109   24.5680 C.ar    1  UNL1        0.1697
@<TRIPOS>BOND
     1     1     2    1
     2     2     3   ar
     3     3     4   ar
     4     4     7    1
     5     7     8   ar
     6     8     9   ar
     7     9    10   ar
     8    10    11   ar
     9    11    12    1
    10    11    13   ar
    11     4     5   ar
    12     5    14    1
    13    14    15   am
    14    15    16    2
    15    15    18    1
    16    18    19   ar
    17    19    20   ar
    18    20    21   ar
    19    21    22   ar
    20    22    23   ar
    21    23    24   ar
    22    24    25   ar
    23    25    26   ar
    24     5     6   ar
    25     6     2   ar
    26    13     7   ar
    27    26    18   ar
    28    26    21   ar
    29    14    17    1
@<TRIPOS>MOLECULE
*****
 26 29 0 0 0
SMALL
GASTEIGER

@<TRIPOS>ATOM
      1 C           6.2271   -2.8829   27.4066 C.3     1  UNL1        0.1538
      2 N           5.2434   -1.9173   27.9982 N.ar    1  UNL1       -0.2462
      3 C           3.9543   -1.4764   27.3705 C.ar    1  UNL1        0.0980
      4 C           3.2903   -0.5097   28.3057 C.ar    1  UNL1        0.0522
      5 C           4.1689   -0.3533   29.5113 C.ar    1  UNL1        0.1556
      6 N           5.3760   -1.2232   29.3213 N.ar    1  UNL1       -0.1539
      7 C           1.9780    0.1794   28.0756 C.ar    1  UNL1        0.0051
      8 C           1.8931    1.3300   27.1171 C.ar    1  UNL1        0.0002
      9 C           0.5808    2.0192   26.8870 C.ar    1  UNL1        0.0009
     10 C          -0.6465    1.5579   27.6154 C.ar    1  UNL1        0.0114
     11 C          -0.5617    0.4072   28.5741 C.ar    1  UNL1        0.0577
     12 CL         -1.7889   -0.0542   29.3026 Cl      1  UNL1       -0.0822
     13 C           0.7506   -0.2820   28.8042 C.ar    1  UNL1        0.0115
     14 N           3.8894    0.5199   30.6985 N.am    1  UNL1       -0.2643
     15 C           3.4528   -0.0947   31.9954 C.2     1  UNL1        0.2552
     16 O           3.2956   -1.5823   32.1049 O.2     1  UNL1       -0.2696
     17 H           3.9926    1.4963   30.6266 H       1  UNL1        0.1566
     18 C           3.1733    0.7785   33.1826 C.ar    1  UNL1        0.1102
     19 C           2.1411    1.8644   33.2549 C.ar    1  UNL1        0.1281
     20 N           2.2069    2.4760   34.6230 N.ar    1  UNL1       -0.1619
     21 N           3.2798    1.7682   35.3962 N.ar    1  UNL1       -0.2105
     22 C           3.7900    1.9434   36.7958 C.ar    1  UNL1        0.1037
     23 C           4.8975    1.0694   37.3051 C.ar    1  UNL1        0.0414
     24 C           5.4948    0.0202   36.4149 C.ar    1  UNL1        0.1022
     25 N           4.9846   -0.1550   35.0153 N.ar    1  UNL1       -0.2248
     26 C           3.8771    0.7190   34.5059 C.ar    1  UNL1        0.1697
@<TRIPOS>BOND
     1     1     2    1
     2     2     3   ar
     3     3     4   ar
     4     4     7    1
     5     7     8   ar
     6     8     9   ar
     7     9    10   ar
     8    10    11   ar
     9    11    12    1
    10    11    13   ar
    11     4     5   ar
    12     5    14    1
    13    14    15   am
    14    15    16    2
    15    15    18    1
    16    18    19   ar
    17    19    20   ar
    18    20    21   ar
    19    21    22   ar
    20    22    23   ar
    21    23    24   ar
    22    24    25   ar
    23    25    26   ar
    24     5     6   ar
    25     6     2   ar
    26    13     7   ar
    27    26    18   ar
    28    26    21   ar
    29    14    17    1
