@<TRIPOS>MOLECULE
*****
 34 38 0 0 0
SMALL
GASTEIGER

@<TRIPOS>ATOM
      1 C           0.5106    1.3254   21.5104 C.ar    1  UNL1        0.1695
      2 N          -0.6444    1.6757   20.6197 N.ar    1  UNL1       -0.2191
      3 C          -1.3426    2.8639   21.2119 C.ar    1  UNL1        0.1432
      4 C          -0.6192    3.2479   22.4685 C.ar    1  UNL1        0.0619
      5 S           0.5263    2.2970   22.6530 S.2     1  UNL1       -0.0504
      6 C           4.8785   -3.4164   21.3069 C.ar    1  UNL1        0.1389
      7 C           4.4219   -3.5386   19.8833 C.ar    1  UNL1        0.0366
      8 C           3.3543   -2.6258   19.3571 C.ar    1  UNL1        0.0007
      9 C           2.7431   -1.5908   20.2545 C.ar    1  UNL1        0.0027
     10 C           3.1997   -1.4686   21.6780 C.ar    1  UNL1        0.0546
     11 C           4.2673   -2.3814   22.2043 C.ar    1  UNL1        0.0412
     12 C           2.4189   -0.3613   22.3219 C.2     1  UNL1        0.2543
     13 O           2.5536    0.1024   23.7420 O.2     1  UNL1       -0.2695
     14 N           1.4799    0.2008   21.2961 N.am    1  UNL1       -0.2308
     15 C           1.6803   -0.5590   20.0184 C.3     1  UNL1        0.1271
     16 C           7.3892   -4.0418   21.5418 C.3     1  UNL1        0.2525
     17 O           5.9461   -4.3292   21.8331 O.3     1  UNL1       -0.4714
     18 C          -2.5519    3.5479   20.6466 C.2     1  UNL1        0.2679
     19 O          -2.4134    4.8810   19.9731 O.2     1  UNL1       -0.2681
     20 N          -3.8999    2.8989   20.7549 N.am    1  UNL1       -0.2769
     21 H          -3.9908    2.0239   21.1969 H       1  UNL1        0.1553
     22 C          -5.1092    3.5829   20.1896 C.ar    1  UNL1        0.0835
     23 C          -5.5385    3.3036   18.7797 C.ar    1  UNL1        0.1147
     24 N          -6.7479    3.9877   18.2145 N.ar    1  UNL1       -0.2409
     25 C          -7.5280    4.9510   19.0590 C.ar    1  UNL1        0.1002
     26 C          -7.0988    5.2303   20.4689 C.ar    1  UNL1        0.0365
     27 C          -5.8894    4.5463   21.0342 C.ar    1  UNL1        0.0647
     28 N          -5.4601    4.8256   22.4440 N.pl3   1  UNL1       -0.3036
     29 C          -5.9524    3.9574   23.5639 C.3     1  UNL1        0.1079
     30 C          -5.5231    4.2368   24.9738 C.3     1  UNL1        0.0903
     31 N          -4.6016    5.3842   25.2638 N.3     1  UNL1       -0.2946
     32 C          -4.1093    6.2524   24.1440 C.3     1  UNL1        0.0903
     33 C          -4.5386    5.9731   22.7341 C.3     1  UNL1        0.1079
     34 H          -3.7763    4.9918   25.7168 H       1  UNL1        0.1233
@<TRIPOS>BOND
     1    16    17    1
     2    17     6    1
     3     6     7   ar
     4     7     8   ar
     5     8     9   ar
     6     9    10   ar
     7    10    11   ar
     8    10    12    1
     9    12    13    2
    10    12    14   am
    11    14     1    1
    12     1     2   ar
    13     2     3   ar
    14     3    18    1
    15    18    19    2
    16    18    20   am
    17    20    22    1
    18    22    23   ar
    19    23    24   ar
    20    24    25   ar
    21    25    26   ar
    22    26    27   ar
    23    27    28    1
    24    28    29    1
    25    29    30    1
    26    30    31    1
    27    31    32    1
    28    32    33    1
    29     3     4   ar
    30     4     5   ar
    31    14    15    1
    32    11     6   ar
    33     5     1   ar
    34    15     9    1
    35    27    22   ar
    36    33    28    1
    37    20    21    1
    38    31    34    1
@<TRIPOS>MOLECULE
*****
 34 38 0 0 0
SMALL
GASTEIGER

@<TRIPOS>ATOM
      1 C           0.9405    1.0899   20.1642 C.ar    1  UNL1        0.1695
      2 N          -0.2347    1.4609   21.0194 N.ar    1  UNL1       -0.2191
      3 C          -0.8894    2.6652   20.4102 C.ar    1  UNL1        0.1432
      4 C          -0.1188    3.0385   19.1786 C.ar    1  UNL1        0.0619
      5 S           1.0122    2.0649   19.0266 S.2     1  UNL1       -0.0504
      6 C           5.0383   -3.5785   21.9014 C.ar    1  UNL1        0.1389
      7 C           4.8614   -4.0219   20.4795 C.ar    1  UNL1        0.0366
      8 C           3.9600   -3.2520   19.5604 C.ar    1  UNL1        0.0007
      9 C           3.2355   -2.0388   20.0633 C.ar    1  UNL1        0.0027
     10 C           3.4124   -1.5954   21.4852 C.ar    1  UNL1        0.0546
     11 C           4.3138   -2.3652   22.4043 C.ar    1  UNL1        0.0412
     12 C           2.5742   -0.3693   21.6962 C.2     1  UNL1        0.2543
     13 O           2.4523    0.4062   22.9743 O.2     1  UNL1       -0.2695
     14 N           1.8793   -0.0551   20.4045 N.am    1  UNL1       -0.2308
     15 C           2.2880   -1.0868   19.3953 C.3     1  UNL1        0.1271
     16 C           6.2074   -3.8415   24.2066 C.3     1  UNL1        0.2525
     17 O           5.9398   -4.3484   22.8205 O.3     1  UNL1       -0.4714
     18 C          -2.1017    3.3721   20.9396 C.2     1  UNL1        0.2679
     19 O          -1.9505    4.6650   21.6850 O.2     1  UNL1       -0.2681
     20 N          -3.4656    2.7861   20.7238 N.am    1  UNL1       -0.2769
     21 H          -3.5649    1.9375   20.2347 H       1  UNL1        0.1553
     22 C          -4.6780    3.4929   21.2533 C.ar    1  UNL1        0.0835
     23 C          -5.2142    3.1478   22.6110 C.ar    1  UNL1        0.1147
     24 N          -6.4266    3.8547   23.1405 N.ar    1  UNL1       -0.2409
     25 C          -7.1029    4.9067   22.3123 C.ar    1  UNL1        0.1002
     26 C          -6.5667    5.2518   20.9546 C.ar    1  UNL1        0.0365
     27 C          -5.3543    4.5450   20.4251 C.ar    1  UNL1        0.0647
     28 N          -4.8181    4.8901   19.0674 N.pl3   1  UNL1       -0.3036
     29 C          -3.9383    6.0923   18.8918 C.3     1  UNL1        0.1079
     30 C          -3.4021    6.4374   17.5341 C.3     1  UNL1        0.0903
     31 N          -3.7457    5.5804   16.3519 N.3     1  UNL1       -0.2946
     32 C          -4.6254    4.3782   16.5275 C.3     1  UNL1        0.0903
     33 C          -5.1616    4.0330   17.8852 C.3     1  UNL1        0.1079
     34 H          -2.8634    5.2456   15.9646 H       1  UNL1        0.1233
@<TRIPOS>BOND
     1    16    17    1
     2    17     6    1
     3     6     7   ar
     4     7     8   ar
     5     8     9   ar
     6     9    10   ar
     7    10    11   ar
     8    10    12    1
     9    12    13    2
    10    12    14   am
    11    14     1    1
    12     1     2   ar
    13     2     3   ar
    14     3    18    1
    15    18    19    2
    16    18    20   am
    17    20    22    1
    18    22    23   ar
    19    23    24   ar
    20    24    25   ar
    21    25    26   ar
    22    26    27   ar
    23    27    28    1
    24    28    29    1
    25    29    30    1
    26    30    31    1
    27    31    32    1
    28    32    33    1
    29     3     4   ar
    30     4     5   ar
    31    14    15    1
    32    11     6   ar
    33     5     1   ar
    34    15     9    1
    35    27    22   ar
    36    33    28    1
    37    20    21    1
    38    31    34    1
@<TRIPOS>MOLECULE
*****
 34 38 0 0 0
SMALL
GASTEIGER

@<TRIPOS>ATOM
      1 C           0.7840    1.3640   20.6563 C.ar    1  UNL1        0.1695
      2 N          -0.3778    1.8771   19.8582 N.ar    1  UNL1       -0.2191
      3 C          -1.1844    2.7811   20.7427 C.ar    1  UNL1        0.1432
      4 C          -0.5211    2.8266   22.0873 C.ar    1  UNL1        0.0619
      5 S           0.6955    1.9507   22.0339 S.2     1  UNL1       -0.0504
      6 C           5.7577   -2.0465   18.3682 C.ar    1  UNL1        0.1389
      7 C           4.8959   -3.2185   18.7335 C.ar    1  UNL1        0.0366
      8 C           3.5439   -2.9942   19.3431 C.ar    1  UNL1        0.0007
      9 C           3.0536   -1.5978   19.5874 C.ar    1  UNL1        0.0027
     10 C           3.9154   -0.4258   19.2220 C.ar    1  UNL1        0.0546
     11 C           5.2674   -0.6501   18.6124 C.ar    1  UNL1        0.0412
     12 C           3.1701    0.8265   19.5780 C.2     1  UNL1        0.2543
     13 O           3.6611    2.2303   19.3828 O.2     1  UNL1       -0.2695
     14 N           1.8477    0.4282   20.1633 N.am    1  UNL1       -0.2308
     15 C           1.7757   -1.0701   20.1691 C.3     1  UNL1        0.1271
     16 C           8.3253   -2.3405   18.6346 C.3     1  UNL1        0.2525
     17 O           7.1098   -2.2708   17.7585 O.3     1  UNL1       -0.4714
     18 C          -2.4348    3.5113   20.3512 C.2     1  UNL1        0.2679
     19 O          -2.3492    4.9055   19.8045 O.2     1  UNL1       -0.2681
     20 N          -3.7708    2.8474   20.5064 N.am    1  UNL1       -0.2769
     21 H          -3.8271    1.9323   20.8653 H       1  UNL1        0.1553
     22 C          -5.0212    3.5776   20.1149 C.ar    1  UNL1        0.0835
     23 C          -5.5830    3.4157   18.7336 C.ar    1  UNL1        0.1147
     24 N          -6.8334    4.1460   18.3421 N.ar    1  UNL1       -0.2409
     25 C          -7.5220    5.0381   19.3319 C.ar    1  UNL1        0.1002
     26 C          -6.9603    5.2000   20.7133 C.ar    1  UNL1        0.0365
     27 C          -5.7099    4.4698   21.1048 C.ar    1  UNL1        0.0647
     28 N          -5.1481    4.6317   22.4862 N.pl3   1  UNL1       -0.3036
     29 C          -5.4433    3.6066   23.5408 C.3     1  UNL1        0.1079
     30 C          -4.8815    3.7686   24.9222 C.3     1  UNL1        0.0903
     31 N          -4.0245    4.9555   25.2490 N.3     1  UNL1       -0.2946
     32 C          -3.7293    5.9806   24.1943 C.3     1  UNL1        0.0903
     33 C          -4.2911    5.8187   22.8130 C.3     1  UNL1        0.1079
     34 H          -3.1258    4.5916   25.5656 H       1  UNL1        0.1233
@<TRIPOS>BOND
     1    16    17    1
     2    17     6    1
     3     6     7   ar
     4     7     8   ar
     5     8     9   ar
     6     9    10   ar
     7    10    11   ar
     8    10    12    1
     9    12    13    2
    10    12    14   am
    11    14     1    1
    12     1     2   ar
    13     2     3   ar
    14     3    18    1
    15    18    19    2
    16    18    20   am
    17    20    22    1
    18    22    23   ar
    19    23    24   ar
    20    24    25   ar
    21    25    26   ar
    22    26    27   ar
    23    27    28    1
    24    28    29    1
    25    29    30    1
    26    30    31    1
    27    31    32    1
    28    32    33    1
    29     3     4   ar
    30     4     5   ar
    31    14    15    1
    32    11     6   ar
    33     5     1   ar
    34    15     9    1
    35    27    22   ar
    36    33    28    1
    37    20    21    1
    38    31    34    1
@<TRIPOS>MOLECULE
*****
 34 38 0 0 0
SMALL
GASTEIGER

@<TRIPOS>ATOM
      1 C          -1.5983    3.0317   20.7757 C.ar    1  UNL1        0.1695
      2 N          -0.8529    1.7316   20.8403 N.ar    1  UNL1       -0.2191
      3 C           0.2776    1.7962   19.8564 C.ar    1  UNL1        0.1432
      4 C           0.2307    3.1360   19.1837 C.ar    1  UNL1        0.0619
      5 S          -0.9288    3.8997   19.7519 S.2     1  UNL1       -0.0504
      6 C          -7.1703    4.5489   23.6489 C.ar    1  UNL1        0.1389
      7 C          -6.3089    4.6540   24.8724 C.ar    1  UNL1        0.0366
      8 C          -4.8357    4.3882   24.7775 C.ar    1  UNL1        0.0007
      9 C          -4.2239    4.0174   23.4591 C.ar    1  UNL1        0.0027
     10 C          -5.0853    3.9123   22.2356 C.ar    1  UNL1        0.0546
     11 C          -6.5585    4.1781   22.3305 C.ar    1  UNL1        0.0412
     12 C          -4.2066    3.5303   21.0814 C.2     1  UNL1        0.2543
     13 O          -4.6539    3.3168   19.6657 O.2     1  UNL1       -0.2695
     14 N          -2.8022    3.3992   21.5916 N.am    1  UNL1       -0.2308
     15 C          -2.8128    3.7003   23.0611 C.3     1  UNL1        0.1271
     16 C          -9.1517    5.9148   24.6278 C.3     1  UNL1        0.2525
     17 O          -8.6435    4.8147   23.7438 O.3     1  UNL1       -0.4714
     18 C           1.2789    0.7113   19.5917 C.2     1  UNL1        0.2679
     19 O           0.9152   -0.7224   19.8410 O.2     1  UNL1       -0.2681
     20 N           2.6442    1.0601   19.0775 N.am    1  UNL1       -0.2769
     21 H           2.8831    2.0010   18.9138 H       1  UNL1        0.1553
     22 C           3.6457   -0.0249   18.8128 C.ar    1  UNL1        0.0835
     23 C           3.8989   -0.4852   17.4078 C.ar    1  UNL1        0.1147
     24 N           4.9004   -1.5702   17.1431 N.ar    1  UNL1       -0.2409
     25 C           5.6486   -2.1947   18.2833 C.ar    1  UNL1        0.1002
     26 C           5.3954   -1.7343   19.6882 C.ar    1  UNL1        0.0365
     27 C           4.3939   -0.6494   19.9530 C.ar    1  UNL1        0.0647
     28 N           4.1407   -0.1890   21.3579 N.pl3   1  UNL1       -0.3036
     29 C           4.7196    1.1090   21.8377 C.3     1  UNL1        0.1079
     30 C           4.4664    1.5693   23.2427 C.3     1  UNL1        0.0903
     31 N           3.6342    0.7317   24.1679 N.3     1  UNL1       -0.2946
     32 C           3.0553   -0.5663   23.6881 C.3     1  UNL1        0.0903
     33 C           3.3086   -1.0266   22.2832 C.3     1  UNL1        0.1079
     34 H           2.8498    1.3120   24.4651 H       1  UNL1        0.1233
@<TRIPOS>BOND
     1    16    17    1
     2    17     6    1
     3     6     7   ar
     4     7     8   ar
     5     8     9   ar
     6     9    10   ar
     7    10    11   ar
     8    10    12    1
     9    12    13    2
    10    12    14   am
    11    14     1    1
    12     1     2   ar
    13     2     3   ar
    14     3    18    1
    15    18    19    2
    16    18    20   am
    17    20    22    1
    18    22    23   ar
    19    23    24   ar
    20    24    25   ar
    21    25    26   ar
    22    26    27   ar
    23    27    28    1
    24    28    29    1
    25    29    30    1
    26    30    31    1
    27    31    32    1
    28    32    33    1
    29     3     4   ar
    30     4     5   ar
    31    14    15    1
    32    11     6   ar
    33     5     1   ar
    34    15     9    1
    35    27    22   ar
    36    33    28    1
    37    20    21    1
    38    31    34    1
@<TRIPOS>MOLECULE
*****
 34 38 0 0 0
SMALL
GASTEIGER

@<TRIPOS>ATOM
      1 C           6.9073   -4.3270   25.0752 C.ar    1  UNL1        0.1695
      2 N           5.8947   -3.6857   24.1733 N.ar    1  UNL1       -0.2191
      3 C           6.3309   -3.9072   22.7553 C.ar    1  UNL1        0.1432
      4 C           7.6130   -4.6854   22.7809 C.ar    1  UNL1        0.0619
      5 S           7.9692   -4.9449   24.2148 S.2     1  UNL1       -0.0504
      6 C           6.5381   -3.6869   31.4829 C.ar    1  UNL1        0.1389
      7 C           6.9177   -5.1380   31.4741 C.ar    1  UNL1        0.0366
      8 C           7.1439   -5.8462   30.1713 C.ar    1  UNL1        0.0007
      9 C           6.9905   -5.1034   28.8773 C.ar    1  UNL1        0.0027
     10 C           6.6109   -3.6523   28.8861 C.ar    1  UNL1        0.0546
     11 C           6.3847   -2.9440   30.1888 C.ar    1  UNL1        0.0412
     12 C           6.5335   -3.1848   27.4628 C.2     1  UNL1        0.2543
     13 O           6.1854   -1.7985   27.0078 O.2     1  UNL1       -0.2695
     14 N           6.8653   -4.3470   26.5745 N.am    1  UNL1       -0.2308
     15 C           7.1477   -5.5328   27.4487 C.3     1  UNL1        0.1271
     16 C           4.9310   -2.5355   33.1685 C.3     1  UNL1        0.2525
     17 O           6.3119   -2.9786   32.7856 O.3     1  UNL1       -0.4714
     18 C           5.6114   -3.4337   21.5274 C.2     1  UNL1        0.2679
     19 O           4.5457   -4.2873   20.9063 O.2     1  UNL1       -0.2681
     20 N           5.9574   -2.1063   20.9203 N.am    1  UNL1       -0.2769
     21 H           6.6568   -1.5460   21.3278 H       1  UNL1        0.1553
     22 C           5.2378   -1.6328   19.6923 C.ar    1  UNL1        0.0835
     23 C           5.5819   -2.2108   18.3516 C.ar    1  UNL1        0.1147
     24 N           4.8623   -1.7372   17.1236 N.ar    1  UNL1       -0.2409
     25 C           3.7986   -0.6856   17.2363 C.ar    1  UNL1        0.1002
     26 C           3.4546   -0.1075   18.5770 C.ar    1  UNL1        0.0365
     27 C           4.1742   -0.5811   19.8050 C.ar    1  UNL1        0.0647
     28 N           3.8302   -0.0030   21.1457 N.pl3   1  UNL1       -0.3036
     29 C           2.8856   -0.7305   22.0561 C.3     1  UNL1        0.1079
     30 C           2.5416   -0.1523   23.3969 C.3     1  UNL1        0.0903
     31 N           3.1421    1.1531   23.8271 N.3     1  UNL1       -0.2946
     32 C           4.0866    1.8806   22.9167 C.3     1  UNL1        0.0903
     33 C           4.4306    1.3025   21.5760 C.3     1  UNL1        0.1079
     34 H           3.6488    0.9727   24.6938 H       1  UNL1        0.1233
@<TRIPOS>BOND
     1    16    17    1
     2    17     6    1
     3     6     7   ar
     4     7     8   ar
     5     8     9   ar
     6     9    10   ar
     7    10    11   ar
     8    10    12    1
     9    12    13    2
    10    12    14   am
    11    14     1    1
    12     1     2   ar
    13     2     3   ar
    14     3    18    1
    15    18    19    2
    16    18    20   am
    17    20    22    1
    18    22    23   ar
    19    23    24   ar
    20    24    25   ar
    21    25    26   ar
    22    26    27   ar
    23    27    28    1
    24    28    29    1
    25    29    30    1
    26    30    31    1
    27    31    32    1
    28    32    33    1
    29     3     4   ar
    30     4     5   ar
    31    14    15    1
    32    11     6   ar
    33     5     1   ar
    34    15     9    1
    35    27    22   ar
    36    33    28    1
    37    20    21    1
    38    31    34    1
@<TRIPOS>MOLECULE
*****
 34 38 0 0 0
SMALL
GASTEIGER

@<TRIPOS>ATOM
      1 C          -0.4929    2.6312   19.6401 C.ar    1  UNL1        0.1695
      2 N          -1.6126    2.3977   20.6106 N.ar    1  UNL1       -0.2191
      3 C          -2.5654    3.5515   20.5051 C.ar    1  UNL1        0.1432
      4 C          -2.0345    4.4979   19.4695 C.ar    1  UNL1        0.0619
      5 S          -0.7536    3.9291   18.9349 S.2     1  UNL1       -0.0504
      6 C           4.2189   -1.7449   19.1362 C.ar    1  UNL1        0.1389
      7 C           4.8265   -0.7276   18.2164 C.ar    1  UNL1        0.0366
      8 C           4.1133    0.5652   17.9519 C.ar    1  UNL1        0.0007
      9 C           2.7925    0.8408   18.6073 C.ar    1  UNL1        0.0027
     10 C           2.1849   -0.1764   19.5270 C.ar    1  UNL1        0.0546
     11 C           2.8981   -1.4693   19.7915 C.ar    1  UNL1        0.0412
     12 C           0.8802    0.3704   20.0259 C.2     1  UNL1        0.2543
     13 O          -0.0606   -0.3172   20.9704 O.2     1  UNL1       -0.2695
     14 N           0.6815    1.7256   19.4144 N.am    1  UNL1       -0.2308
     15 C           1.8634    2.0163   18.5377 C.3     1  UNL1        0.1271
     16 C           4.4330   -4.3097   18.7820 C.3     1  UNL1        0.2525
     17 O           4.9321   -3.0377   19.4007 O.3     1  UNL1       -0.4714
     18 C          -3.8274    3.7278   21.2963 C.2     1  UNL1        0.2679
     19 O          -4.6972    2.5428   21.5950 O.2     1  UNL1       -0.2681
     20 N          -4.2197    5.0892   21.7890 N.am    1  UNL1       -0.2769
     21 H          -3.6489    5.8670   21.5930 H       1  UNL1        0.1553
     22 C          -5.4818    5.2656   22.5802 C.ar    1  UNL1        0.0835
     23 C          -6.7928    5.4392   21.8723 C.ar    1  UNL1        0.1147
     24 N          -8.0548    5.6156   22.6636 N.ar    1  UNL1       -0.2409
     25 C          -8.0059    5.6182   24.1628 C.ar    1  UNL1        0.1002
     26 C          -6.6950    5.4446   24.8707 C.ar    1  UNL1        0.0365
     27 C          -5.4329    5.2682   24.0794 C.ar    1  UNL1        0.0647
     28 N          -4.1219    5.0945   24.7873 N.pl3   1  UNL1       -0.3036
     29 C          -3.3602    6.2969   25.2609 C.3     1  UNL1        0.1079
     30 C          -2.0491    6.1231   25.9688 C.3     1  UNL1        0.0903
     31 N          -1.4999    4.7471   26.2032 N.3     1  UNL1       -0.2946
     32 C          -2.2617    3.5448   25.7297 C.3     1  UNL1        0.0903
     33 C          -3.5726    3.7185   25.0218 C.3     1  UNL1        0.1079
     34 H          -1.3842    4.6441   27.2114 H       1  UNL1        0.1233
@<TRIPOS>BOND
     1    16    17    1
     2    17     6    1
     3     6     7   ar
     4     7     8   ar
     5     8     9   ar
     6     9    10   ar
     7    10    11   ar
     8    10    12    1
     9    12    13    2
    10    12    14   am
    11    14     1    1
    12     1     2   ar
    13     2     3   ar
    14     3    18    1
    15    18    19    2
    16    18    20   am
    17    20    22    1
    18    22    23   ar
    19    23    24   ar
    20    24    25   ar
    21    25    26   ar
    22    26    27   ar
    23    27    28    1
    24    28    29    1
    25    29    30    1
    26    30    31    1
    27    31    32    1
    28    32    33    1
    29     3     4   ar
    30     4     5   ar
    31    14    15    1
    32    11     6   ar
    33     5     1   ar
    34    15     9    1
    35    27    22   ar
    36    33    28    1
    37    20    21    1
    38    31    34    1
@<TRIPOS>MOLECULE
*****
 34 38 0 0 0
SMALL
GASTEIGER

@<TRIPOS>ATOM
      1 C           4.3002   -1.3368   26.1091 C.ar    1  UNL1        0.1695
      2 N           3.3512   -0.6092   27.0146 N.ar    1  UNL1       -0.2191
      3 C           3.9377   -0.6071   28.3953 C.ar    1  UNL1        0.1432
      4 C           5.2491   -1.3335   28.3429 C.ar    1  UNL1        0.0619
      5 S           5.4731   -1.7845   26.9299 S.2     1  UNL1       -0.0504
      6 C           3.9747   -2.9226   19.8654 C.ar    1  UNL1        0.1389
      7 C           2.9982   -1.7855   19.8077 C.ar    1  UNL1        0.0366
      8 C           2.6750   -1.0107   21.0507 C.ar    1  UNL1        0.0007
      9 C           3.3282   -1.3729   22.3514 C.ar    1  UNL1        0.0027
     10 C           4.3047   -2.5100   22.4091 C.ar    1  UNL1        0.0546
     11 C           4.6280   -3.2849   21.1661 C.ar    1  UNL1        0.0412
     12 C           4.7878   -2.6350   23.8238 C.2     1  UNL1        0.2543
     13 O           5.7754   -3.6428   24.3325 O.2     1  UNL1       -0.2695
     14 N           4.1097   -1.5750   24.6404 N.am    1  UNL1       -0.2308
     15 C           3.2077   -0.7951   23.7304 C.3     1  UNL1        0.1271
     16 C           4.6371   -5.1556   18.7144 C.3     1  UNL1        0.2525
     17 O           4.2980   -3.6974   18.6223 O.3     1  UNL1       -0.4714
     18 C           3.3211    0.0125   29.6141 C.2     1  UNL1        0.2679
     19 O           2.6118   -0.8492   30.6164 O.2     1  UNL1       -0.2681
     20 N           3.4137    1.4938   29.8309 N.am    1  UNL1       -0.2769
     21 H           3.8792    2.0594   29.1731 H       1  UNL1        0.1553
     22 C           2.7970    2.1135   31.0498 C.ar    1  UNL1        0.0835
     23 C           3.6127    2.2885   32.2964 C.ar    1  UNL1        0.1147
     24 N           2.9960    2.9082   33.5154 N.ar    1  UNL1       -0.2409
     25 C           1.5637    3.3528   33.4877 C.ar    1  UNL1        0.1002
     26 C           0.7480    3.1778   32.2411 C.ar    1  UNL1        0.0365
     27 C           1.3647    2.5581   31.0221 C.ar    1  UNL1        0.0647
     28 N           0.5491    2.3831   29.7755 N.pl3   1  UNL1       -0.3036
     29 C          -0.2091    1.1089   29.5480 C.3     1  UNL1        0.1079
     30 C          -1.0248    0.9339   28.3013 C.3     1  UNL1        0.0903
     31 N          -1.0822    2.0331   27.2822 N.3     1  UNL1       -0.2946
     32 C          -0.3241    3.3072   27.5097 C.3     1  UNL1        0.0903
     33 C           0.4915    3.4823   28.7563 C.3     1  UNL1        0.1079
     34 H          -2.0643    2.2890   27.1803 H       1  UNL1        0.1233
@<TRIPOS>BOND
     1    16    17    1
     2    17     6    1
     3     6     7   ar
     4     7     8   ar
     5     8     9   ar
     6     9    10   ar
     7    10    11   ar
     8    10    12    1
     9    12    13    2
    10    12    14   am
    11    14     1    1
    12     1     2   ar
    13     2     3   ar
    14     3    18    1
    15    18    19    2
    16    18    20   am
    17    20    22    1
    18    22    23   ar
    19    23    24   ar
    20    24    25   ar
    21    25    26   ar
    22    26    27   ar
    23    27    28    1
    24    28    29    1
    25    29    30    1
    26    30    31    1
    27    31    32    1
    28    32    33    1
    29     3     4   ar
    30     4     5   ar
    31    14    15    1
    32    11     6   ar
    33     5     1   ar
    34    15     9    1
    35    27    22   ar
    36    33    28    1
    37    20    21    1
    38    31    34    1
@<TRIPOS>MOLECULE
*****
 34 38 0 0 0
SMALL
GASTEIGER

@<TRIPOS>ATOM
      1 C           7.1343   -4.1069   29.7573 C.ar    1  UNL1        0.1695
      2 N           5.9462   -3.2467   30.0712 N.ar    1  UNL1       -0.2191
      3 C           6.0740   -2.7802   31.4912 C.ar    1  UNL1        0.1432
      4 C           7.3409   -3.3521   32.0547 C.ar    1  UNL1        0.0619
      5 S           7.9963   -4.1721   30.9831 S.2     1  UNL1       -0.0504
      6 C           8.2443   -6.3388   23.8083 C.ar    1  UNL1        0.1389
      7 C           8.3939   -7.6518   24.5180 C.ar    1  UNL1        0.0366
      8 C           8.2284   -7.7226   26.0071 C.ar    1  UNL1        0.0007
      9 C           7.9134   -6.4804   26.7867 C.ar    1  UNL1        0.0027
     10 C           7.7639   -5.1674   26.0770 C.ar    1  UNL1        0.0546
     11 C           7.9293   -5.0966   24.5879 C.ar    1  UNL1        0.0412
     12 C           7.4538   -4.1184   27.1035 C.2     1  UNL1        0.2543
     13 O           7.2259   -2.6607   26.8333 O.2     1  UNL1       -0.2695
     14 N           7.4117   -4.7832   28.4475 N.am    1  UNL1       -0.2308
     15 C           7.6958   -6.2430   28.2516 C.3     1  UNL1        0.1271
     16 C           8.6819   -4.9501   21.6566 C.3     1  UNL1        0.2525
     17 O           8.4098   -6.2680   22.3192 O.3     1  UNL1       -0.4714
     18 C           5.1049   -1.8970   32.2196 C.2     1  UNL1        0.2679
     19 O           3.9118   -2.4962   32.9034 O.2     1  UNL1       -0.2681
     20 N           5.3288   -0.4145   32.2643 N.am    1  UNL1       -0.2769
     21 H           6.1118   -0.0212   31.8155 H       1  UNL1        0.1553
     22 C           4.3596    0.4688   32.9927 C.ar    1  UNL1        0.0835
     23 C           4.5267    0.7131   34.4632 C.ar    1  UNL1        0.1147
     24 N           3.5576    1.5964   35.1916 N.ar    1  UNL1       -0.2409
     25 C           2.4213    2.2353   34.4496 C.ar    1  UNL1        0.1002
     26 C           2.2542    1.9910   32.9791 C.ar    1  UNL1        0.0365
     27 C           3.2233    1.1077   32.2506 C.ar    1  UNL1        0.0647
     28 N           3.0562    0.8633   30.7802 N.pl3   1  UNL1       -0.3036
     29 C           3.6751    1.8033   29.7885 C.3     1  UNL1        0.1079
     30 C           3.5079    1.5589   28.3180 C.3     1  UNL1        0.0903
     31 N           2.7219    0.3745   27.8391 N.3     1  UNL1       -0.2946
     32 C           2.1029   -0.5655   28.8308 C.3     1  UNL1        0.0903
     33 C           2.2701   -0.3211   30.3013 C.3     1  UNL1        0.1079
     34 H           3.3506   -0.1813   27.2593 H       1  UNL1        0.1233
@<TRIPOS>BOND
     1    16    17    1
     2    17     6    1
     3     6     7   ar
     4     7     8   ar
     5     8     9   ar
     6     9    10   ar
     7    10    11   ar
     8    10    12    1
     9    12    13    2
    10    12    14   am
    11    14     1    1
    12     1     2   ar
    13     2     3   ar
    14     3    18    1
    15    18    19    2
    16    18    20   am
    17    20    22    1
    18    22    23   ar
    19    23    24   ar
    20    24    25   ar
    21    25    26   ar
    22    26    27   ar
    23    27    28    1
    24    28    29    1
    25    29    30    1
    26    30    31    1
    27    31    32    1
    28    32    33    1
    29     3     4   ar
    30     4     5   ar
    31    14    15    1
    32    11     6   ar
    33     5     1   ar
    34    15     9    1
    35    27    22   ar
    36    33    28    1
    37    20    21    1
    38    31    34    1
@<TRIPOS>MOLECULE
*****
 34 38 0 0 0
SMALL
GASTEIGER

@<TRIPOS>ATOM
      1 C          -1.6839    3.1674   26.2269 C.ar    1  UNL1        0.1695
      2 N          -1.5786    2.3520   27.4816 N.ar    1  UNL1       -0.2191
      3 C          -0.1364    2.3184   27.8928 C.ar    1  UNL1        0.1432
      4 C           0.6495    3.1129   26.8923 C.ar    1  UNL1        0.0619
      5 S          -0.3069    3.6376   25.8626 S.2     1  UNL1       -0.0504
      6 C          -7.3885    4.6746   23.6213 C.ar    1  UNL1        0.1389
      7 C          -6.7502    4.1674   22.3622 C.ar    1  UNL1        0.0366
      8 C          -5.3390    3.6596   22.3887 C.ar    1  UNL1        0.0007
      9 C          -4.5662    3.6590   23.6742 C.ar    1  UNL1        0.0027
     10 C          -5.2045    4.1662   24.9332 C.ar    1  UNL1        0.0546
     11 C          -6.6156    4.6740   24.9068 C.ar    1  UNL1        0.0412
     12 C          -4.2024    4.0438   26.0428 C.2     1  UNL1        0.2543
     13 O          -4.4199    4.4355   27.4743 O.2     1  UNL1       -0.2695
     14 N          -2.9449    3.4609   25.4694 N.am    1  UNL1       -0.2308
     15 C          -3.1697    3.2231   24.0056 C.3     1  UNL1        0.1271
     16 C          -9.4270    5.7199   24.8468 C.3     1  UNL1        0.2525
     17 O          -8.7997    5.1824   23.5948 O.3     1  UNL1       -0.4714
     18 C           0.4218    1.6140   29.0936 C.2     1  UNL1        0.2679
     19 O          -0.4970    0.8919   30.0341 O.2     1  UNL1       -0.2681
     20 N           1.8989    1.6316   29.3542 N.am    1  UNL1       -0.2769
     21 H           2.5020    2.1055   28.7370 H       1  UNL1        0.1553
     22 C           2.4571    0.9272   30.5551 C.ar    1  UNL1        0.0835
     23 C           2.8845   -0.5069   30.4520 C.ar    1  UNL1        0.1147
     24 N           3.4427   -1.2114   31.6529 N.ar    1  UNL1       -0.2409
     25 C           3.5735   -0.4818   32.9569 C.ar    1  UNL1        0.1002
     26 C           3.1461    0.9523   33.0600 C.ar    1  UNL1        0.0365
     27 C           2.5879    1.6568   31.8591 C.ar    1  UNL1        0.0647
     28 N           2.1605    3.0909   31.9623 N.pl3   1  UNL1       -0.3036
     29 C           3.1224    4.1872   31.6117 C.3     1  UNL1        0.1079
     30 C           2.6949    5.6214   31.7148 C.3     1  UNL1        0.0903
     31 N           1.3056    5.9592   32.1685 N.3     1  UNL1       -0.2946
     32 C           0.3438    4.8628   32.5191 C.3     1  UNL1        0.0903
     33 C           0.7712    3.4287   32.4160 C.3     1  UNL1        0.1079
     34 H           0.8746    6.5005   31.4192 H       1  UNL1        0.1233
@<TRIPOS>BOND
     1    16    17    1
     2    17     6    1
     3     6     7   ar
     4     7     8   ar
     5     8     9   ar
     6     9    10   ar
     7    10    11   ar
     8    10    12    1
     9    12    13    2
    10    12    14   am
    11    14     1    1
    12     1     2   ar
    13     2     3   ar
    14     3    18    1
    15    18    19    2
    16    18    20   am
    17    20    22    1
    18    22    23   ar
    19    23    24   ar
    20    24    25   ar
    21    25    26   ar
    22    26    27   ar
    23    27    28    1
    24    28    29    1
    25    29    30    1
    26    30    31    1
    27    31    32    1
    28    32    33    1
    29     3     4   ar
    30     4     5   ar
    31    14    15    1
    32    11     6   ar
    33     5     1   ar
    34    15     9    1
    35    27    22   ar
    36    33    28    1
    37    20    21    1
    38    31    34    1
