@<TRIPOS>MOLECULE
*****
 21 23 0 0 0
SMALL
GASTEIGER

@<TRIPOS>ATOM
      1 C         -12.2001  -18.1772   23.5130 C.2     1  UNL1        0.1278
      2 C         -11.5073  -18.9922   24.5646 C.2     1  UNL1        0.0345
      3 C         -10.1370  -19.5438   24.3041 C.2     1  UNL1        0.0232
      4 C          -9.4594  -19.2806   22.9921 C.2     1  UNL1        0.0975
      5 N          -8.1209  -19.6907   22.4535 N.2     1  UNL1       -0.2200
      6 C          -7.9864  -19.1293   21.0691 C.2     1  UNL1        0.1901
      7 N          -9.2418  -18.3721   20.7519 N.2     1  UNL1       -0.2236
      8 C         -10.1522  -18.4656   21.9405 C.2     1  UNL1        0.0863
      9 C         -11.5225  -17.9140   22.2009 C.3     1  UNL1        0.1114
     10 O         -13.5704  -17.6256   23.7735 O.2     1  UNL1       -0.4277
     11 F         -15.7729  -18.9375   24.1953 F       1  UNL1       -0.1550
     12 C         -14.4993  -18.3368   24.7122 C.3     1  UNL1        0.5084
     13 F         -14.1546  -18.4475   26.1679 F       1  UNL1       -0.1550
     14 S          -6.8040  -19.2958   20.1611 S.3     1  UNL1       -0.0692
     15 C          -5.5752  -20.0023   20.6519 C.3     1  UNL1        0.1107
     16 C          -4.2472  -19.3055   20.6227 C.ar    1  UNL1        0.0703
     17 C          -3.2817  -19.4834   21.7567 C.ar    1  UNL1        0.0156
     18 C          -1.9538  -18.7865   21.7275 C.ar    1  UNL1        0.0028
     19 C          -1.5913  -17.9117   20.5641 C.ar    1  UNL1        0.0207
     20 C          -2.5568  -17.7337   19.4300 C.ar    1  UNL1        0.0985
     21 N          -3.8848  -18.4307   19.4593 N.ar    1  UNL1       -0.2473
@<TRIPOS>BOND
     1    11    12    1
     2    12    13    1
     3    12    10    1
     4    10     1    1
     5     1     2    2
     6     2     3    1
     7     3     4    2
     8     4     5    1
     9     5     6    2
    10     6    14    1
    11    14    15    1
    12    15    16    1
    13    16    17   ar
    14    17    18   ar
    15    18    19   ar
    16    19    20   ar
    17    20    21   ar
    18     6     7    1
    19     7     8    2
    20     8     9    1
    21     9     1    1
    22     8     4    1
    23    21    16   ar
@<TRIPOS>MOLECULE
*****
 21 23 0 0 0
SMALL
GASTEIGER

@<TRIPOS>ATOM
      1 C         -12.1966  -17.7193   22.4493 C.2     1  UNL1        0.1278
      2 C         -12.2060  -17.5773   20.9561 C.2     1  UNL1        0.0345
      3 C         -11.0086  -17.9959   20.1554 C.2     1  UNL1        0.0232
      4 C          -9.8019  -18.5565   20.8479 C.2     1  UNL1        0.0975
      5 N          -8.4848  -19.0503   20.3271 N.2     1  UNL1       -0.2200
      6 C          -7.6613  -19.4974   21.4984 C.2     1  UNL1        0.1901
      7 N          -8.4696  -19.2800   22.7432 N.2     1  UNL1       -0.2236
      8 C          -9.7926  -18.6984   22.3411 C.2     1  UNL1        0.0863
      9 C         -10.9899  -18.2798   23.1418 C.3     1  UNL1        0.1114
     10 O         -13.3940  -17.3007   23.2500 O.2     1  UNL1       -0.4277
     11 F         -13.1271  -18.6776   25.4370 F       1  UNL1       -0.1550
     12 C         -13.9688  -18.2274   24.2799 C.3     1  UNL1        0.5084
     13 F         -15.3855  -18.7039   24.1528 F       1  UNL1       -0.1550
     14 S          -6.2733  -20.0628   21.4360 S.3     1  UNL1       -0.0692
     15 C          -5.1499  -19.3737   22.1523 C.3     1  UNL1        0.1107
     16 C          -4.0347  -18.7459   21.3699 C.ar    1  UNL1        0.0703
     17 C          -3.6934  -19.2627   20.0037 C.ar    1  UNL1        0.0156
     18 C          -2.5782  -18.6349   19.2213 C.ar    1  UNL1        0.0028
     19 C          -1.8042  -17.4902   19.8051 C.ar    1  UNL1        0.0207
     20 C          -2.1455  -16.9734   21.1713 C.ar    1  UNL1        0.0985
     21 N          -3.2608  -17.6013   21.9537 N.ar    1  UNL1       -0.2473
@<TRIPOS>BOND
     1    11    12    1
     2    12    13    1
     3    12    10    1
     4    10     1    1
     5     1     2    2
     6     2     3    1
     7     3     4    2
     8     4     5    1
     9     5     6    2
    10     6    14    1
    11    14    15    1
    12    15    16    1
    13    16    17   ar
    14    17    18   ar
    15    18    19   ar
    16    19    20   ar
    17    20    21   ar
    18     6     7    1
    19     7     8    2
    20     8     9    1
    21     9     1    1
    22     8     4    1
    23    21    16   ar
@<TRIPOS>MOLECULE
*****
 21 23 0 0 0
SMALL
GASTEIGER

@<TRIPOS>ATOM
      1 C         -10.3874  -17.9286   22.8697 C.2     1  UNL1        0.1278
      2 C         -10.2363  -19.1715   23.6957 C.2     1  UNL1        0.0345
      3 C          -9.0556  -20.0725   23.4859 C.2     1  UNL1        0.0232
      4 C          -8.0259  -19.7306   22.4502 C.2     1  UNL1        0.0975
      5 N          -6.7655  -20.4217   22.0215 N.2     1  UNL1       -0.2200
      6 C          -6.1376  -19.6059   20.9305 C.2     1  UNL1        0.1901
      7 N          -7.0099  -18.4106   20.6850 N.2     1  UNL1       -0.2236
      8 C          -8.1770  -18.4877   21.6242 C.2     1  UNL1        0.0863
      9 C          -9.3577  -17.5867   21.8340 C.3     1  UNL1        0.1114
     10 O         -11.5681  -17.0275   23.0795 O.2     1  UNL1       -0.4277
     11 F         -13.8718  -17.7190   24.0617 F       1  UNL1       -0.1550
     12 C         -12.9584  -17.5552   22.8832 C.3     1  UNL1        0.5084
     13 F         -13.4354  -17.9190   21.5084 F       1  UNL1       -0.1550
     14 S          -4.8613  -19.9287   20.2114 S.3     1  UNL1       -0.0692
     15 C          -3.5598  -19.9294   20.9571 C.3     1  UNL1        0.1107
     16 C          -2.6612  -18.7299   20.8986 C.ar    1  UNL1        0.0703
     17 C          -1.4372  -18.7512   20.0318 C.ar    1  UNL1        0.0156
     18 C          -0.5386  -17.5516   19.9732 C.ar    1  UNL1        0.0028
     19 C          -0.8640  -16.3306   20.7815 C.ar    1  UNL1        0.0207
     20 C          -2.0881  -16.3092   21.6483 C.ar    1  UNL1        0.0985
     21 N          -2.9867  -17.5089   21.7068 N.ar    1  UNL1       -0.2473
@<TRIPOS>BOND
     1    11    12    1
     2    12    13    1
     3    12    10    1
     4    10     1    1
     5     1     2    2
     6     2     3    1
     7     3     4    2
     8     4     5    1
     9     5     6    2
    10     6    14    1
    11    14    15    1
    12    15    16    1
    13    16    17   ar
    14    17    18   ar
    15    18    19   ar
    16    19    20   ar
    17    20    21   ar
    18     6     7    1
    19     7     8    2
    20     8     9    1
    21     9     1    1
    22     8     4    1
    23    21    16   ar
@<TRIPOS>MOLECULE
*****
 21 23 0 0 0
SMALL
GASTEIGER

@<TRIPOS>ATOM
      1 C          -2.7332  -19.0794   20.9738 C.2     1  UNL1        0.1278
      2 C          -3.0177  -18.6813   22.3917 C.2     1  UNL1        0.0345
      3 C          -4.4354  -18.5496   22.8637 C.2     1  UNL1        0.0232
      4 C          -5.5686  -18.8160   21.9178 C.2     1  UNL1        0.0975
      5 N          -7.0572  -18.7669   22.0958 N.2     1  UNL1       -0.2200
      6 C          -7.6928  -19.1347   20.7878 C.2     1  UNL1        0.1901
      7 N          -6.5970  -19.4111   19.8015 N.2     1  UNL1       -0.2236
      8 C          -5.2842  -19.2141   20.4999 C.2     1  UNL1        0.0863
      9 C          -3.8665  -19.3458   20.0279 C.3     1  UNL1        0.1114
     10 O          -1.3156  -19.2112   20.5017 O.2     1  UNL1       -0.4277
     11 F           0.5606  -17.4508   20.1396 F       1  UNL1       -0.1550
     12 C          -0.6965  -18.1240   19.6743 C.3     1  UNL1        0.5084
     13 F          -1.3346  -17.7099   18.3814 F       1  UNL1       -0.1550
     14 S          -9.1656  -19.2124   20.5142 S.3     1  UNL1       -0.0692
     15 C         -10.0608  -18.0713   20.8970 C.3     1  UNL1        0.1107
     16 C         -10.9700  -18.1967   22.0834 C.ar    1  UNL1        0.0703
     17 C         -12.3776  -17.6840   22.0071 C.ar    1  UNL1        0.0156
     18 C         -13.2868  -17.8094   23.1935 C.ar    1  UNL1        0.0028
     19 C         -12.7884  -18.4476   24.4563 C.ar    1  UNL1        0.0207
     20 C         -11.3809  -18.9603   24.5326 C.ar    1  UNL1        0.0985
     21 N         -10.4716  -18.8348   23.3461 N.ar    1  UNL1       -0.2473
@<TRIPOS>BOND
     1    11    12    1
     2    12    13    1
     3    12    10    1
     4    10     1    1
     5     1     2    2
     6     2     3    1
     7     3     4    2
     8     4     5    1
     9     5     6    2
    10     6    14    1
    11    14    15    1
    12    15    16    1
    13    16    17   ar
    14    17    18   ar
    15    18    19   ar
    16    19    20   ar
    17    20    21   ar
    18     6     7    1
    19     7     8    2
    20     8     9    1
    21     9     1    1
    22     8     4    1
    23    21    16   ar
@<TRIPOS>MOLECULE
*****
 21 23 0 0 0
SMALL
GASTEIGER

@<TRIPOS>ATOM
      1 C          -2.8256  -19.4877   20.7851 C.2     1  UNL1        0.1278
      2 C          -3.5878  -20.5551   20.0572 C.2     1  UNL1        0.0345
      3 C          -5.0782  -20.6433   20.2017 C.2     1  UNL1        0.0232
      4 C          -5.8064  -19.6642   21.0741 C.2     1  UNL1        0.0975
      5 N          -7.2601  -19.5048   21.4075 N.2     1  UNL1       -0.2200
      6 C          -7.3964  -18.3389   22.3415 C.2     1  UNL1        0.1901
      7 N          -6.0269  -17.7778   22.5853 N.2     1  UNL1       -0.2236
      8 C          -5.0442  -18.5969   21.8019 C.2     1  UNL1        0.0863
      9 C          -3.5538  -18.5086   21.6574 C.3     1  UNL1        0.1114
     10 O          -1.3352  -19.3995   20.6406 O.2     1  UNL1       -0.4277
     11 F           0.5738  -17.6861   20.2285 F       1  UNL1       -0.1550
     12 C          -0.7253  -18.3088   19.8109 C.3     1  UNL1        0.5084
     13 F          -1.4147  -17.8407   18.5636 F       1  UNL1       -0.1550
     14 S          -8.6774  -17.8246   22.9286 S.3     1  UNL1       -0.0692
     15 C          -8.7462  -16.4277   23.4708 C.3     1  UNL1        0.1107
     16 C          -8.0820  -16.0954   24.7740 C.ar    1  UNL1        0.0703
     17 C          -8.7724  -16.4071   26.0686 C.ar    1  UNL1        0.0156
     18 C          -8.1082  -16.0748   27.3718 C.ar    1  UNL1        0.0028
     19 C          -6.7534  -15.4308   27.3804 C.ar    1  UNL1        0.0207
     20 C          -6.0629  -15.1192   26.0857 C.ar    1  UNL1        0.0985
     21 N          -6.7273  -15.4515   24.7825 N.ar    1  UNL1       -0.2473
@<TRIPOS>BOND
     1    11    12    1
     2    12    13    1
     3    12    10    1
     4    10     1    1
     5     1     2    2
     6     2     3    1
     7     3     4    2
     8     4     5    1
     9     5     6    2
    10     6    14    1
    11    14    15    1
    12    15    16    1
    13    16    17   ar
    14    17    18   ar
    15    18    19   ar
    16    19    20   ar
    17    20    21   ar
    18     6     7    1
    19     7     8    2
    20     8     9    1
    21     9     1    1
    22     8     4    1
    23    21    16   ar
@<TRIPOS>MOLECULE
*****
 21 23 0 0 0
SMALL
GASTEIGER

@<TRIPOS>ATOM
      1 C         -10.9464  -18.0048   20.7129 C.2     1  UNL1        0.1278
      2 C         -10.6360  -18.9758   19.6126 C.2     1  UNL1        0.0345
      3 C          -9.2659  -19.5773   19.5075 C.2     1  UNL1        0.0232
      4 C          -8.2062  -19.2078   20.5028 C.2     1  UNL1        0.0975
      5 N          -6.7761  -19.6352   20.6516 N.2     1  UNL1       -0.2200
      6 C          -6.2027  -18.9283   21.8439 C.2     1  UNL1        0.1901
      7 N          -7.2784  -18.0641   22.4320 N.2     1  UNL1       -0.2236
      8 C          -8.5166  -18.2368   21.6031 C.2     1  UNL1        0.0863
      9 C          -9.8867  -17.6353   21.7082 C.3     1  UNL1        0.1114
     10 O         -12.3165  -17.4033   20.8180 O.2     1  UNL1       -0.4277
     11 F         -12.7967  -15.6411   22.6657 F       1  UNL1       -0.1550
     12 C         -12.8802  -17.0519   22.1629 C.3     1  UNL1        0.5084
     13 F         -13.5274  -18.1112   23.0050 F       1  UNL1       -0.1550
     14 S          -4.7998  -19.0623   22.3578 S.3     1  UNL1       -0.0692
     15 C          -3.7763  -19.8121   21.5576 C.3     1  UNL1        0.1107
     16 C          -2.8049  -19.0642   20.6934 C.ar    1  UNL1        0.0703
     17 C          -3.2641  -18.4568   19.4010 C.ar    1  UNL1        0.0156
     18 C          -2.2927  -17.7089   18.5368 C.ar    1  UNL1        0.0028
     19 C          -0.8619  -17.5684   18.9650 C.ar    1  UNL1        0.0207
     20 C          -0.4027  -18.1758   20.2573 C.ar    1  UNL1        0.0985
     21 N          -1.3742  -18.9237   21.1216 N.ar    1  UNL1       -0.2473
@<TRIPOS>BOND
     1    11    12    1
     2    12    13    1
     3    12    10    1
     4    10     1    1
     5     1     2    2
     6     2     3    1
     7     3     4    2
     8     4     5    1
     9     5     6    2
    10     6    14    1
    11    14    15    1
    12    15    16    1
    13    16    17   ar
    14    17    18   ar
    15    18    19   ar
    16    19    20   ar
    17    20    21   ar
    18     6     7    1
    19     7     8    2
    20     8     9    1
    21     9     1    1
    22     8     4    1
    23    21    16   ar
@<TRIPOS>MOLECULE
*****
 21 23 0 0 0
SMALL
GASTEIGER

@<TRIPOS>ATOM
      1 C          -2.5075  -19.0527   21.1368 C.2     1  UNL1        0.1278
      2 C          -3.4044  -20.0950   20.5376 C.2     1  UNL1        0.0345
      3 C          -4.8776  -20.0682   20.8186 C.2     1  UNL1        0.0232
      4 C          -5.4539  -18.9990   21.6987 C.2     1  UNL1        0.0975
      5 N          -6.8564  -18.7192   22.1511 N.2     1  UNL1       -0.2200
      6 C          -6.8263  -17.5039   23.0298 C.2     1  UNL1        0.1901
      7 N          -5.4052  -17.0326   23.1205 N.2     1  UNL1       -0.2236
      8 C          -4.5570  -17.9566   22.2978 C.2     1  UNL1        0.0863
      9 C          -3.0838  -17.9835   22.0169 C.3     1  UNL1        0.1114
     10 O          -1.0343  -19.0796   20.8558 O.2     1  UNL1       -0.4277
     11 F          -1.1119  -17.8563   18.5651 F       1  UNL1       -0.1550
     12 C          -0.4386  -18.1066   19.8819 C.3     1  UNL1        0.5084
     13 F           0.8303  -17.3839   20.2248 F       1  UNL1       -0.1550
     14 S          -8.0097  -16.8710   23.7002 S.3     1  UNL1       -0.0692
     15 C          -8.9578  -16.0236   22.9046 C.3     1  UNL1        0.1107
     16 C         -10.2960  -16.5698   22.5036 C.ar    1  UNL1        0.0703
     17 C         -10.9226  -17.6775   23.2976 C.ar    1  UNL1        0.0156
     18 C         -12.2607  -18.2237   22.8965 C.ar    1  UNL1        0.0028
     19 C         -12.9725  -17.6622   21.7014 C.ar    1  UNL1        0.0207
     20 C         -12.3459  -16.5545   20.9074 C.ar    1  UNL1        0.0985
     21 N         -11.0077  -16.0083   21.3085 N.ar    1  UNL1       -0.2473
@<TRIPOS>BOND
     1    11    12    1
     2    12    13    1
     3    12    10    1
     4    10     1    1
     5     1     2    2
     6     2     3    1
     7     3     4    2
     8     4     5    1
     9     5     6    2
    10     6    14    1
    11    14    15    1
    12    15    16    1
    13    16    17   ar
    14    17    18   ar
    15    18    19   ar
    16    19    20   ar
    17    20    21   ar
    18     6     7    1
    19     7     8    2
    20     8     9    1
    21     9     1    1
    22     8     4    1
    23    21    16   ar
@<TRIPOS>MOLECULE
*****
 21 23 0 0 0
SMALL
GASTEIGER

@<TRIPOS>ATOM
      1 C          -8.7479  -15.9483   24.5191 C.2     1  UNL1        0.1278
      2 C         -10.0395  -16.2361   23.8129 C.2     1  UNL1        0.0345
      3 C         -10.0491  -17.1090   22.5931 C.2     1  UNL1        0.0232
      4 C          -8.7671  -17.6942   22.0795 C.2     1  UNL1        0.0975
      5 N          -8.4675  -18.5837   20.9095 N.2     1  UNL1       -0.2200
      6 C          -6.9906  -18.8458   20.8925 C.2     1  UNL1        0.1901
      7 N          -6.3775  -18.1182   22.0521 N.2     1  UNL1       -0.2236
      8 C          -7.4754  -17.4064   22.7857 C.2     1  UNL1        0.0863
      9 C          -7.4658  -16.5335   24.0055 C.3     1  UNL1        0.1114
     10 O          -8.7383  -15.0754   25.7389 O.2     1  UNL1       -0.4277
     11 F          -6.8181  -14.9440   27.4841 F       1  UNL1       -0.1550
     12 C          -8.0979  -15.5626   27.0047 C.3     1  UNL1        0.5084
     13 F          -8.7372  -16.6683   27.7914 F       1  UNL1       -0.1550
     14 S          -6.2560  -19.6876   19.8917 S.3     1  UNL1       -0.0692
     15 C          -4.9892  -20.3874   20.2862 C.3     1  UNL1        0.1107
     16 C          -3.7114  -19.6118   20.4107 C.ar    1  UNL1        0.0703
     17 C          -3.0428  -19.4772   21.7467 C.ar    1  UNL1        0.0156
     18 C          -1.7650  -18.7015   21.8712 C.ar    1  UNL1        0.0028
     19 C          -1.1557  -18.0604   20.6596 C.ar    1  UNL1        0.0207
     20 C          -1.8243  -18.1950   19.3236 C.ar    1  UNL1        0.0985
     21 N          -3.1021  -18.9707   19.1992 N.ar    1  UNL1       -0.2473
@<TRIPOS>BOND
     1    11    12    1
     2    12    13    1
     3    12    10    1
     4    10     1    1
     5     1     2    2
     6     2     3    1
     7     3     4    2
     8     4     5    1
     9     5     6    2
    10     6    14    1
    11    14    15    1
    12    15    16    1
    13    16    17   ar
    14    17    18   ar
    15    18    19   ar
    16    19    20   ar
    17    20    21   ar
    18     6     7    1
    19     7     8    2
    20     8     9    1
    21     9     1    1
    22     8     4    1
    23    21    16   ar
@<TRIPOS>MOLECULE
*****
 21 23 0 0 0
SMALL
GASTEIGER

@<TRIPOS>ATOM
      1 C          -7.5674  -15.8058   24.9125 C.2     1  UNL1        0.1278
      2 C          -6.1074  -15.4645   24.9546 C.2     1  UNL1        0.0345
      3 C          -5.1435  -16.1805   24.0556 C.2     1  UNL1        0.0232
      4 C          -5.6396  -17.2379   23.1145 C.2     1  UNL1        0.0975
      5 N          -4.9317  -18.1062   22.1171 N.2     1  UNL1       -0.2200
      6 C          -5.9541  -18.9843   21.4586 C.2     1  UNL1        0.1901
      7 N          -7.2940  -18.6586   22.0489 N.2     1  UNL1       -0.2236
      8 C          -7.0996  -17.5793   23.0724 C.2     1  UNL1        0.0863
      9 C          -8.0635  -16.8632   23.9713 C.3     1  UNL1        0.1114
     10 O          -8.5313  -15.0897   25.8114 O.2     1  UNL1       -0.4277
     11 F          -9.0606  -14.2026   28.1953 F       1  UNL1       -0.1550
     12 C          -8.3965  -15.2069   27.3007 C.3     1  UNL1        0.5084
     13 F          -7.5976  -16.3286   27.8956 F       1  UNL1       -0.1550
     14 S          -5.6840  -20.0082   20.3961 S.3     1  UNL1       -0.0692
     15 C          -4.2878  -20.5102   20.1760 C.3     1  UNL1        0.1107
     16 C          -3.1612  -19.5370   19.9923 C.ar    1  UNL1        0.0703
     17 C          -3.2195  -18.5214   18.8900 C.ar    1  UNL1        0.0156
     18 C          -2.0929  -17.5483   18.7064 C.ar    1  UNL1        0.0028
     19 C          -0.9079  -17.5907   19.6251 C.ar    1  UNL1        0.0207
     20 C          -0.8496  -18.6064   20.7274 C.ar    1  UNL1        0.0985
     21 N          -1.9762  -19.5795   20.9110 N.ar    1  UNL1       -0.2473
@<TRIPOS>BOND
     1    11    12    1
     2    12    13    1
     3    12    10    1
     4    10     1    1
     5     1     2    2
     6     2     3    1
     7     3     4    2
     8     4     5    1
     9     5     6    2
    10     6    14    1
    11    14    15    1
    12    15    16    1
    13    16    17   ar
    14    17    18   ar
    15    18    19   ar
    16    19    20   ar
    17    20    21   ar
    18     6     7    1
    19     7     8    2
    20     8     9    1
    21     9     1    1
    22     8     4    1
    23    21    16   ar
