@<TRIPOS>MOLECULE
*****
 15 17 0 0 0
SMALL
GASTEIGER

@<TRIPOS>ATOM
      1 C          -8.4501  -16.3340   22.2684 C.3     1  UNL1        0.2210
      2 C          -9.8652  -16.7384   22.5584 C.3     1  UNL1        0.0983
      3 C         -10.2974  -17.9878   23.2671 C.3     1  UNL1        0.0209
      4 C         -11.7958  -17.9861   23.3374 C.3     1  UNL1        0.0172
      5 C         -13.2681  -17.7111   23.2560 C.3     1  UNL1        0.0171
      6 C         -12.2896  -16.7355   22.6722 C.3     1  UNL1        0.0541
      7 N         -11.0964  -15.9645   22.1908 N.3     1  UNL1       -0.2966
      8 H         -11.0744  -15.0471   22.6361 H       1  UNL1        0.1233
      9 O          -7.8403  -15.1688   22.9897 O.3     1  UNL1       -0.4724
     10 C          -8.1348  -15.5196   26.9318 C.ar    1  UNL1        0.0238
     11 C          -6.6869  -15.5578   27.3219 C.ar    1  UNL1        0.0991
     12 N          -5.6235  -15.4664   26.2680 N.ar    1  UNL1       -0.2391
     13 C          -6.0079  -15.3367   24.8239 C.ar    1  UNL1        0.1356
     14 C          -7.4558  -15.2985   24.4338 C.ar    1  UNL1        0.1577
     15 C          -8.5192  -15.3899   25.4878 C.ar    1  UNL1        0.0401
@<TRIPOS>BOND
     1    10    11   ar
     2    11    12   ar
     3    12    13   ar
     4    13    14   ar
     5    14     9    1
     6     9     1    1
     7     2     1    1
     8     2     3    1
     9     4     3    1
    10     4     5    1
    11     6     5    1
    12     6     7    1
    13    14    15   ar
    14    15    10   ar
    15     7     2    1
    16     6     4    1
    17     7     8    1
@<TRIPOS>MOLECULE
*****
 15 17 0 0 0
SMALL
GASTEIGER

@<TRIPOS>ATOM
      1 C          -4.7106  -16.0516   23.6673 C.3     1  UNL1        0.2210
      2 C          -5.7427  -15.8429   24.7356 C.3     1  UNL1        0.0983
      3 C          -5.4692  -15.6018   26.1906 C.3     1  UNL1        0.0209
      4 C          -6.7870  -15.4486   26.8907 C.3     1  UNL1        0.0172
      5 C          -8.2247  -15.3411   27.3048 C.3     1  UNL1        0.0171
      6 C          -7.8749  -15.5951   25.8684 C.3     1  UNL1        0.0541
      7 N          -7.2294  -15.8388   24.5364 N.3     1  UNL1       -0.2966
      8 H          -7.4894  -15.0981   23.8851 H       1  UNL1        0.1233
      9 O          -3.9346  -17.3342   23.6145 O.3     1  UNL1       -0.4724
     10 C          -1.2575  -16.6361   20.7691 C.ar    1  UNL1        0.0238
     11 C          -0.9651  -18.0325   20.3063 C.ar    1  UNL1        0.0991
     12 N          -1.6624  -19.1963   20.9462 N.ar    1  UNL1       -0.2391
     13 C          -2.6522  -18.9635   22.0489 C.ar    1  UNL1        0.1356
     14 C          -2.9447  -17.5670   22.5117 C.ar    1  UNL1        0.1577
     15 C          -2.2473  -16.4033   21.8718 C.ar    1  UNL1        0.0401
@<TRIPOS>BOND
     1    10    11   ar
     2    11    12   ar
     3    12    13   ar
     4    13    14   ar
     5    14     9    1
     6     9     1    1
     7     2     1    1
     8     2     3    1
     9     4     3    1
    10     4     5    1
    11     6     5    1
    12     6     7    1
    13    14    15   ar
    14    15    10   ar
    15     7     2    1
    16     6     4    1
    17     7     8    1
@<TRIPOS>MOLECULE
*****
 15 17 0 0 0
SMALL
GASTEIGER

@<TRIPOS>ATOM
      1 C          -8.1164  -15.2914   22.2765 C.3     1  UNL1        0.2210
      2 C          -7.6652  -15.3278   23.7066 C.3     1  UNL1        0.0983
      3 C          -8.4935  -15.7556   24.8817 C.3     1  UNL1        0.0209
      4 C          -7.6467  -15.6349   26.1141 C.3     1  UNL1        0.0172
      5 C          -6.5802  -15.4153   27.1457 C.3     1  UNL1        0.0171
      6 C          -6.2951  -15.1326   25.7004 C.3     1  UNL1        0.0541
      7 N          -6.3066  -14.9428   24.2125 N.3     1  UNL1       -0.2966
      8 H          -5.5964  -15.5353   23.7825 H       1  UNL1        0.1233
      9 O          -8.5778  -16.5500   21.6033 O.3     1  UNL1       -0.4724
     10 C         -11.9968  -18.2658   22.6600 C.ar    1  UNL1        0.0238
     11 C         -12.9375  -17.6633   21.6590 C.ar    1  UNL1        0.0991
     12 N         -12.4250  -16.6897   20.6394 N.ar    1  UNL1       -0.2391
     13 C         -10.9718  -16.3186   20.6209 C.ar    1  UNL1        0.1356
     14 C         -10.0311  -16.9211   21.6219 C.ar    1  UNL1        0.1577
     15 C         -10.5436  -17.8947   22.6414 C.ar    1  UNL1        0.0401
@<TRIPOS>BOND
     1    10    11   ar
     2    11    12   ar
     3    12    13   ar
     4    13    14   ar
     5    14     9    1
     6     9     1    1
     7     2     1    1
     8     2     3    1
     9     4     3    1
    10     4     5    1
    11     6     5    1
    12     6     7    1
    13    14    15   ar
    14    15    10   ar
    15     7     2    1
    16     6     4    1
    17     7     8    1
@<TRIPOS>MOLECULE
*****
 15 17 0 0 0
SMALL
GASTEIGER

@<TRIPOS>ATOM
      1 C          -4.0039  -17.1531   23.4640 C.3     1  UNL1        0.2210
      2 C          -2.9690  -17.3396   22.3943 C.3     1  UNL1        0.0983
      3 C          -2.3715  -18.6464   21.9640 C.3     1  UNL1        0.0209
      4 C          -1.3830  -18.3665   20.8709 C.3     1  UNL1        0.0172
      5 C          -0.4800  -17.7882   19.8220 C.3     1  UNL1        0.0171
      6 C          -1.3697  -16.8867   20.6258 C.3     1  UNL1        0.0541
      7 N          -2.3498  -16.2521   21.5673 N.3     1  UNL1       -0.2966
      8 H          -3.0732  -15.7655   21.0377 H       1  UNL1        0.1233
      9 O          -4.7657  -15.8641   23.5539 O.3     1  UNL1       -0.4724
     10 C          -6.5771  -15.4219   27.0573 C.ar    1  UNL1        0.0238
     11 C          -8.0143  -15.3804   26.6300 C.ar    1  UNL1        0.0991
     12 N          -8.3687  -15.5001   25.1774 N.ar    1  UNL1       -0.2391
     13 C          -7.2859  -15.6613   24.1521 C.ar    1  UNL1        0.1356
     14 C          -5.8487  -15.7029   24.5793 C.ar    1  UNL1        0.1577
     15 C          -5.4943  -15.5832   26.0319 C.ar    1  UNL1        0.0401
@<TRIPOS>BOND
     1    10    11   ar
     2    11    12   ar
     3    12    13   ar
     4    13    14   ar
     5    14     9    1
     6     9     1    1
     7     2     1    1
     8     2     3    1
     9     4     3    1
    10     4     5    1
    11     6     5    1
    12     6     7    1
    13    14    15   ar
    14    15    10   ar
    15     7     2    1
    16     6     4    1
    17     7     8    1
@<TRIPOS>MOLECULE
*****
 15 17 0 0 0
SMALL
GASTEIGER

@<TRIPOS>ATOM
      1 C           4.8302  -11.9935   27.0975 C.3     1  UNL1        0.2210
      2 C           3.5443  -12.5192   27.6635 C.3     1  UNL1        0.0983
      3 C           3.0757  -12.3638   29.0799 C.3     1  UNL1        0.0209
      4 C           1.7430  -13.0411   29.2042 C.3     1  UNL1        0.0172
      5 C           0.4520  -13.7834   29.0245 C.3     1  UNL1        0.0171
      6 C           1.3881  -13.6151   27.8645 C.3     1  UNL1        0.0541
      7 N           2.5013  -13.2926   26.9123 N.3     1  UNL1       -0.2966
      8 H           2.1439  -12.7312   26.1394 H       1  UNL1        0.1233
      9 O           5.9270  -11.5459   28.0176 O.3     1  UNL1       -0.4724
     10 C           9.2959  -13.6067   28.4092 C.ar    1  UNL1        0.0238
     11 C           8.9386  -14.5212   29.5432 C.ar    1  UNL1        0.0991
     12 N           7.5774  -14.4440   30.1687 N.ar    1  UNL1       -0.2391
     13 C           6.5736  -13.4522   29.6601 C.ar    1  UNL1        0.1356
     14 C           6.9309  -12.5377   28.5262 C.ar    1  UNL1        0.1577
     15 C           8.2921  -12.6149   27.9007 C.ar    1  UNL1        0.0401
@<TRIPOS>BOND
     1    10    11   ar
     2    11    12   ar
     3    12    13   ar
     4    13    14   ar
     5    14     9    1
     6     9     1    1
     7     2     1    1
     8     2     3    1
     9     4     3    1
    10     4     5    1
    11     6     5    1
    12     6     7    1
    13    14    15   ar
    14    15    10   ar
    15     7     2    1
    16     6     4    1
    17     7     8    1
@<TRIPOS>MOLECULE
*****
 15 17 0 0 0
SMALL
GASTEIGER

@<TRIPOS>ATOM
      1 C         -10.0935  -17.5052   24.0684 C.3     1  UNL1        0.2210
      2 C         -10.1408  -18.1348   22.7077 C.3     1  UNL1        0.0983
      3 C         -10.9195  -19.3599   22.3297 C.3     1  UNL1        0.0209
      4 C         -10.6776  -19.6322   20.8745 C.3     1  UNL1        0.0172
      5 C         -10.2545  -19.6491   19.4356 C.3     1  UNL1        0.0171
      6 C          -9.7494  -18.5754   20.3533 C.3     1  UNL1        0.0541
      7 N          -9.4176  -17.6500   21.4863 N.3     1  UNL1       -0.2966
      8 H          -9.7190  -16.7025   21.2588 H       1  UNL1        0.1233
      9 O          -9.6510  -16.0800   24.2204 O.3     1  UNL1       -0.4724
     10 C          -6.9116  -15.6447   27.0587 C.ar    1  UNL1        0.0238
     11 C          -5.7493  -15.1405   26.2559 C.ar    1  UNL1        0.0991
     12 N          -5.8874  -14.9495   24.7745 N.ar    1  UNL1       -0.2391
     13 C          -7.1880  -15.2627   24.0960 C.ar    1  UNL1        0.1356
     14 C          -8.3504  -15.7668   24.8989 C.ar    1  UNL1        0.1577
     15 C          -8.2122  -15.9579   26.3802 C.ar    1  UNL1        0.0401
@<TRIPOS>BOND
     1    10    11   ar
     2    11    12   ar
     3    12    13   ar
     4    13    14   ar
     5    14     9    1
     6     9     1    1
     7     2     1    1
     8     2     3    1
     9     4     3    1
    10     4     5    1
    11     6     5    1
    12     6     7    1
    13    14    15   ar
    14    15    10   ar
    15     7     2    1
    16     6     4    1
    17     7     8    1
@<TRIPOS>MOLECULE
*****
 15 17 0 0 0
SMALL
GASTEIGER

@<TRIPOS>ATOM
      1 C          -8.0609  -19.5474   20.3305 C.3     1  UNL1        0.2210
      2 C          -9.4256  -19.0064   20.6388 C.3     1  UNL1        0.0983
      3 C         -10.3652  -19.5285   21.6851 C.3     1  UNL1        0.0209
      4 C         -11.6106  -18.6932   21.6479 C.3     1  UNL1        0.0172
      5 C         -12.7075  -17.7057   21.3803 C.3     1  UNL1        0.0171
      6 C         -11.4407  -17.6550   20.5786 C.3     1  UNL1        0.0541
      7 N         -10.0903  -17.8486   19.9550 N.3     1  UNL1       -0.2966
      8 H          -9.5287  -17.0059   20.0767 H       1  UNL1        0.1233
      9 O          -6.9062  -18.6082   20.1450 O.3     1  UNL1       -0.4724
     10 C          -3.0417  -19.4974   20.3048 C.ar    1  UNL1        0.0238
     11 C          -2.8526  -19.6751   21.7822 C.ar    1  UNL1        0.0991
     12 N          -4.0147  -19.4972   22.7138 N.ar    1  UNL1       -0.2391
     13 C          -5.3658  -19.1416   22.1681 C.ar    1  UNL1        0.1356
     14 C          -5.5550  -18.9638   20.6908 C.ar    1  UNL1        0.1577
     15 C          -4.3929  -19.1417   19.7591 C.ar    1  UNL1        0.0401
@<TRIPOS>BOND
     1    10    11   ar
     2    11    12   ar
     3    12    13   ar
     4    13    14   ar
     5    14     9    1
     6     9     1    1
     7     2     1    1
     8     2     3    1
     9     4     3    1
    10     4     5    1
    11     6     5    1
    12     6     7    1
    13    14    15   ar
    14    15    10   ar
    15     7     2    1
    16     6     4    1
    17     7     8    1
@<TRIPOS>MOLECULE
*****
 15 17 0 0 0
SMALL
GASTEIGER

@<TRIPOS>ATOM
      1 C          -5.8166  -19.4936   20.1695 C.3     1  UNL1        0.2210
      2 C          -4.4086  -19.0174   19.9674 C.3     1  UNL1        0.0983
      3 C          -3.1781  -19.6194   20.5787 C.3     1  UNL1        0.0209
      4 C          -1.9928  -18.8297   20.1077 C.3     1  UNL1        0.0172
      5 C          -1.0225  -17.8725   19.4816 C.3     1  UNL1        0.0171
      6 C          -2.4909  -17.7398   19.2054 C.3     1  UNL1        0.0541
      7 N          -3.9839  -17.8558   19.1187 N.3     1  UNL1       -0.2966
      8 H          -4.2631  -18.0141   18.1506 H       1  UNL1        0.1233
      9 O          -6.9020  -18.5098   20.4920 O.3     1  UNL1       -0.4724
     10 C          -9.6558  -19.8015   23.0411 C.ar    1  UNL1        0.0238
     11 C         -10.8363  -19.9564   22.1288 C.ar    1  UNL1        0.0991
     12 N         -10.7053  -19.6291   20.6708 N.ar    1  UNL1       -0.2391
     13 C          -9.3939  -19.1469   20.1252 C.ar    1  UNL1        0.1356
     14 C          -8.2135  -18.9920   21.0376 C.ar    1  UNL1        0.1577
     15 C          -8.3444  -19.3193   22.4956 C.ar    1  UNL1        0.0401
@<TRIPOS>BOND
     1    10    11   ar
     2    11    12   ar
     3    12    13   ar
     4    13    14   ar
     5    14     9    1
     6     9     1    1
     7     2     1    1
     8     2     3    1
     9     4     3    1
    10     4     5    1
    11     6     5    1
    12     6     7    1
    13    14    15   ar
    14    15    10   ar
    15     7     2    1
    16     6     4    1
    17     7     8    1
@<TRIPOS>MOLECULE
*****
 15 17 0 0 0
SMALL
GASTEIGER

@<TRIPOS>ATOM
      1 C           5.7932  -11.5945   28.1762 C.3     1  UNL1        0.2210
      2 C           6.8924  -12.5328   28.5779 C.3     1  UNL1        0.0983
      3 C           8.2771  -12.5666   28.0021 C.3     1  UNL1        0.0209
      4 C           9.0404  -13.6567   28.6943 C.3     1  UNL1        0.0172
      5 C           9.5358  -14.7893   29.5439 C.3     1  UNL1        0.0171
      6 C           8.1274  -14.2967   29.6978 C.3     1  UNL1        0.0541
      7 N           6.7999  -13.6021   29.6258 N.3     1  UNL1       -0.2966
      8 H           6.5790  -13.1831   30.5292 H       1  UNL1        0.1233
      9 O           4.7119  -12.0601   27.2467 O.3     1  UNL1       -0.4724
     10 C           1.5643  -13.3613   29.2839 C.ar    1  UNL1        0.0238
     11 C           1.4505  -14.7638   28.7645 C.ar    1  UNL1        0.0991
     12 N           2.4237  -15.2651   27.7391 N.ar    1  UNL1       -0.2391
     13 C           3.5109  -14.3639   27.2332 C.ar    1  UNL1        0.1356
     14 C           3.6247  -12.9614   27.7526 C.ar    1  UNL1        0.1577
     15 C           2.6514  -12.4601   28.7780 C.ar    1  UNL1        0.0401
@<TRIPOS>BOND
     1    10    11   ar
     2    11    12   ar
     3    12    13   ar
     4    13    14   ar
     5    14     9    1
     6     9     1    1
     7     2     1    1
     8     2     3    1
     9     4     3    1
    10     4     5    1
    11     6     5    1
    12     6     7    1
    13    14    15   ar
    14    15    10   ar
    15     7     2    1
    16     6     4    1
    17     7     8    1
