@<TRIPOS>MOLECULE
*****
 21 22 0 0 0
SMALL
GASTEIGER

@<TRIPOS>ATOM
      1 C          -7.4421  -18.6452   21.0358 C.2     1  UNL1        0.0577
      2 N          -6.6604  -17.7826   21.9818 N.2     1  UNL1       -0.2538
      3 C          -7.3738  -16.9821   23.0307 C.2     1  UNL1        0.0660
      4 C          -6.5921  -16.1195   23.9767 C.3     1  UNL1        0.0718
      5 C          -7.3055  -15.3190   25.0256 C.2     1  UNL1       -0.0198
      6 C          -8.8007  -15.3812   25.1285 C.2     1  UNL1       -0.0040
      7 C          -9.5824  -16.2438   24.1826 C.2     1  UNL1        0.0040
      8 C          -8.8690  -17.0442   23.1337 C.2     1  UNL1        0.0525
      9 C          -9.6507  -17.9069   22.1877 C.2     1  UNL1        0.1939
     10 O         -11.1459  -17.9690   22.2907 O.2     1  UNL1       -0.2868
     11 C          -8.9373  -18.7073   21.1388 C.2     1  UNL1        0.0306
     12 C          -9.7190  -19.5700   20.1928 C.3     1  UNL1        0.0356
     13 C          -6.7286  -19.4457   19.9869 C.3     1  UNL1        0.0456
     14 C          -5.6571  -20.4171   20.3845 C.3     1  UNL1        0.0089
     15 C          -4.2383  -19.9518   20.5273 C.3     1  UNL1        0.0325
     16 C          -3.5935  -19.1627   19.4266 C.3     1  UNL1        0.1423
     17 O          -3.3337  -17.6966   19.6079 O.3     1  UNL1       -0.3511
     18 C          -2.0500  -17.2337   20.2308 C.3     1  UNL1        0.1741
     19 C          -2.0716  -16.5148   21.5471 C.3     1  UNL1        0.1742
     20 C          -3.3754  -17.7953   23.3938 C.3     1  UNL1        0.1742
     21 O          -3.2645  -16.6361   22.4484 O.3     1  UNL1       -0.3484
@<TRIPOS>BOND
     1    20    21    1
     2    21    19    1
     3    19    18    1
     4    18    17    1
     5    17    16    1
     6    16    15    1
     7    15    14    1
     8    14    13    1
     9    13     1    1
    10     1     2    1
    11     2     3    2
    12     3     4    1
    13     4     5    1
    14     5     6    2
    15     6     7    1
    16     7     8    2
    17     8     9    1
    18     9    10    2
    19     9    11    1
    20    11    12    1
    21    11     1    2
    22     8     3    1
@<TRIPOS>MOLECULE
*****
 21 22 0 0 0
SMALL
GASTEIGER

@<TRIPOS>ATOM
      1 C          -8.3034  -19.3187   20.7685 C.2     1  UNL1        0.0577
      2 N          -9.5105  -18.5485   20.3218 N.2     1  UNL1       -0.2538
      3 C         -10.6425  -18.3084   21.2763 C.2     1  UNL1        0.0660
      4 C         -11.8496  -17.5382   20.8296 C.3     1  UNL1        0.0718
      5 C         -12.9816  -17.2982   21.7840 C.2     1  UNL1       -0.0198
      6 C         -12.9064  -17.8284   23.1852 C.2     1  UNL1       -0.0040
      7 C         -11.6993  -18.5986   23.6319 C.2     1  UNL1        0.0040
      8 C         -10.5674  -18.8386   22.6774 C.2     1  UNL1        0.0525
      9 C          -9.3602  -19.6089   23.1241 C.2     1  UNL1        0.1939
     10 O          -9.2850  -20.1391   24.5253 O.2     1  UNL1       -0.2868
     11 C          -8.2282  -19.8489   22.1697 C.2     1  UNL1        0.0306
     12 C          -7.0210  -20.6192   22.6164 C.3     1  UNL1        0.0356
     13 C          -7.1713  -19.5588   19.8140 C.3     1  UNL1        0.0456
     14 C          -5.8647  -18.8476   20.0062 C.3     1  UNL1        0.0089
     15 C          -4.5852  -19.6291   20.0528 C.3     1  UNL1        0.0325
     16 C          -3.3009  -18.9922   19.6115 C.3     1  UNL1        0.1423
     17 O          -3.1137  -17.5101   19.7462 O.3     1  UNL1       -0.3511
     18 C          -1.9417  -16.9685   20.5099 C.3     1  UNL1        0.1741
     19 C          -2.1557  -16.2909   21.8309 C.3     1  UNL1        0.1742
     20 C          -3.6896  -17.8562   23.2262 C.3     1  UNL1        0.1742
     21 O          -3.4258  -16.5213   22.5950 O.3     1  UNL1       -0.3484
@<TRIPOS>BOND
     1    20    21    1
     2    21    19    1
     3    19    18    1
     4    18    17    1
     5    17    16    1
     6    16    15    1
     7    15    14    1
     8    14    13    1
     9    13     1    1
    10     1     2    1
    11     2     3    2
    12     3     4    1
    13     4     5    1
    14     5     6    2
    15     6     7    1
    16     7     8    2
    17     8     9    1
    18     9    10    2
    19     9    11    1
    20    11    12    1
    21    11     1    2
    22     8     3    1
@<TRIPOS>MOLECULE
*****
 21 22 0 0 0
SMALL
GASTEIGER

@<TRIPOS>ATOM
      1 C          -9.0260  -18.4098   21.2920 C.2     1  UNL1        0.0577
      2 N          -8.1299  -17.2429   21.5839 N.2     1  UNL1       -0.2538
      3 C          -8.0985  -16.6471   22.9602 C.2     1  UNL1        0.0660
      4 C          -7.2024  -15.4801   23.2520 C.3     1  UNL1        0.0718
      5 C          -7.1711  -14.8844   24.6282 C.2     1  UNL1       -0.0198
      6 C          -8.0359  -15.4556   25.7126 C.2     1  UNL1       -0.0040
      7 C          -8.9320  -16.6225   25.4208 C.2     1  UNL1        0.0040
      8 C          -8.9633  -17.2183   24.0446 C.2     1  UNL1        0.0525
      9 C          -9.8594  -18.3853   23.7527 C.2     1  UNL1        0.1939
     10 O         -10.7242  -18.9565   24.8371 O.2     1  UNL1       -0.2868
     11 C          -9.8907  -18.9810   22.3764 C.2     1  UNL1        0.0306
     12 C         -10.7869  -20.1480   22.0845 C.3     1  UNL1        0.0356
     13 C          -9.0573  -19.0056   19.9157 C.3     1  UNL1        0.0456
     14 C          -7.8836  -19.7923   19.4121 C.3     1  UNL1        0.0089
     15 C          -6.7610  -20.1434   20.3429 C.3     1  UNL1        0.0325
     16 C          -5.4435  -19.4353   20.2297 C.3     1  UNL1        0.1423
     17 O          -4.9708  -18.5479   21.3428 O.3     1  UNL1       -0.3511
     18 C          -3.7422  -18.9124   22.1222 C.3     1  UNL1        0.1741
     19 C          -2.6735  -19.7526   21.4881 C.3     1  UNL1        0.1742
     20 C          -1.6859  -18.3592   19.5303 C.3     1  UNL1        0.1742
     21 O          -1.4998  -19.0967   20.8231 O.3     1  UNL1       -0.3484
@<TRIPOS>BOND
     1    20    21    1
     2    21    19    1
     3    19    18    1
     4    18    17    1
     5    17    16    1
     6    16    15    1
     7    15    14    1
     8    14    13    1
     9    13     1    1
    10     1     2    1
    11     2     3    2
    12     3     4    1
    13     4     5    1
    14     5     6    2
    15     6     7    1
    16     7     8    2
    17     8     9    1
    18     9    10    2
    19     9    11    1
    20    11    12    1
    21    11     1    2
    22     8     3    1
@<TRIPOS>MOLECULE
*****
 21 22 0 0 0
SMALL
GASTEIGER

@<TRIPOS>ATOM
      1 C          -7.8631  -16.1687   23.2785 C.2     1  UNL1        0.0577
      2 N          -8.0824  -16.7446   21.9110 N.2     1  UNL1       -0.2538
      3 C          -9.0343  -17.8886   21.7228 C.2     1  UNL1        0.0660
      4 C          -9.2536  -18.4645   20.3553 C.3     1  UNL1        0.0718
      5 C         -10.2055  -19.6084   20.1671 C.2     1  UNL1       -0.0198
      6 C         -10.9380  -20.1763   21.3464 C.2     1  UNL1       -0.0040
      7 C         -10.7188  -19.6003   22.7139 C.2     1  UNL1        0.0040
      8 C          -9.7669  -18.4565   22.9021 C.2     1  UNL1        0.0525
      9 C          -9.5476  -17.8804   24.2697 C.2     1  UNL1        0.1939
     10 O         -10.2801  -18.4484   25.4490 O.2     1  UNL1       -0.2868
     11 C          -8.5957  -16.7366   24.4579 C.2     1  UNL1        0.0306
     12 C          -8.3764  -16.1606   25.8254 C.3     1  UNL1        0.0356
     13 C          -6.9112  -15.0247   23.4668 C.3     1  UNL1        0.0456
     14 C          -5.4700  -15.2929   23.7848 C.3     1  UNL1        0.0089
     15 C          -5.0111  -16.6939   24.0614 C.3     1  UNL1        0.0325
     16 C          -4.1347  -17.4049   23.0733 C.3     1  UNL1        0.1423
     17 O          -3.0995  -16.6403   22.3028 O.3     1  UNL1       -0.3511
     18 C          -2.0794  -17.3748   21.4843 C.3     1  UNL1        0.1741
     19 C          -2.1057  -17.2752   19.9878 C.3     1  UNL1        0.1742
     20 C          -4.0235  -18.9860   19.6070 C.3     1  UNL1        0.1742
     21 O          -3.3217  -17.7156   19.2281 O.3     1  UNL1       -0.3484
@<TRIPOS>BOND
     1    20    21    1
     2    21    19    1
     3    19    18    1
     4    18    17    1
     5    17    16    1
     6    16    15    1
     7    15    14    1
     8    14    13    1
     9    13     1    1
    10     1     2    1
    11     2     3    2
    12     3     4    1
    13     4     5    1
    14     5     6    2
    15     6     7    1
    16     7     8    2
    17     8     9    1
    18     9    10    2
    19     9    11    1
    20    11    12    1
    21    11     1    2
    22     8     3    1
@<TRIPOS>MOLECULE
*****
 21 22 0 0 0
SMALL
GASTEIGER

@<TRIPOS>ATOM
      1 C          -8.0291  -17.2170   23.1740 C.2     1  UNL1        0.0577
      2 N          -7.2861  -18.3253   22.4888 N.2     1  UNL1       -0.2538
      3 C          -5.7861  -18.3363   22.4913 C.2     1  UNL1        0.0660
      4 C          -5.0430  -19.4446   21.8061 C.3     1  UNL1        0.0718
      5 C          -3.5431  -19.4555   21.8087 C.2     1  UNL1       -0.0198
      6 C          -2.7862  -18.3581   22.4964 C.2     1  UNL1       -0.0040
      7 C          -3.5293  -17.2498   23.1816 C.2     1  UNL1        0.0040
      8 C          -5.0292  -17.2389   23.1790 C.2     1  UNL1        0.0525
      9 C          -5.7723  -16.1306   23.8642 C.2     1  UNL1        0.1939
     10 O          -5.0155  -15.0332   24.5519 O.2     1  UNL1       -0.2868
     11 C          -7.2723  -16.1197   23.8617 C.2     1  UNL1        0.0306
     12 C          -8.0154  -15.0113   24.5469 C.3     1  UNL1        0.0356
     13 C          -9.5291  -17.2061   23.1714 C.3     1  UNL1        0.0456
     14 C         -10.2860  -17.8870   24.2730 C.3     1  UNL1        0.0089
     15 C         -10.5519  -19.3614   24.2002 C.3     1  UNL1        0.0325
     16 C         -10.3044  -20.1059   22.9218 C.3     1  UNL1        0.1423
     17 O         -11.2560  -19.9584   21.7717 O.3     1  UNL1       -0.3511
     18 C         -10.7302  -19.6885   20.3931 C.3     1  UNL1        0.1741
     19 C         -10.5752  -18.2759   19.9127 C.3     1  UNL1        0.1742
     20 C         -11.6389  -15.9242   19.6161 C.3     1  UNL1        0.1742
     21 O         -11.7866  -17.4136   19.7158 O.3     1  UNL1       -0.3484
@<TRIPOS>BOND
     1    20    21    1
     2    21    19    1
     3    19    18    1
     4    18    17    1
     5    17    16    1
     6    16    15    1
     7    15    14    1
     8    14    13    1
     9    13     1    1
    10     1     2    1
    11     2     3    2
    12     3     4    1
    13     4     5    1
    14     5     6    2
    15     6     7    1
    16     7     8    2
    17     8     9    1
    18     9    10    2
    19     9    11    1
    20    11    12    1
    21    11     1    2
    22     8     3    1
@<TRIPOS>MOLECULE
*****
 21 22 0 0 0
SMALL
GASTEIGER

@<TRIPOS>ATOM
      1 C          -9.0244  -19.7321   22.3502 C.2     1  UNL1        0.0577
      2 N          -7.6202  -19.6400   22.8695 N.2     1  UNL1       -0.2538
      3 C          -6.4791  -19.4444   21.9156 C.2     1  UNL1        0.0660
      4 C          -5.0749  -19.3523   22.4348 C.3     1  UNL1        0.0718
      5 C          -3.9340  -19.1568   21.4809 C.2     1  UNL1       -0.0198
      6 C          -4.1972  -19.0534   20.0078 C.2     1  UNL1       -0.0040
      7 C          -5.6014  -19.1456   19.4886 C.2     1  UNL1        0.0040
      8 C          -6.7424  -19.3411   20.4425 C.2     1  UNL1        0.0525
      9 C          -8.1467  -19.4333   19.9233 C.2     1  UNL1        0.1939
     10 O          -8.4099  -19.3299   18.4502 O.2     1  UNL1       -0.2868
     11 C          -9.2877  -19.6288   20.8771 C.2     1  UNL1        0.0306
     12 C         -10.6920  -19.7210   20.3579 C.3     1  UNL1        0.0356
     13 C         -10.1655  -19.9277   23.3041 C.3     1  UNL1        0.0456
     14 C         -10.8084  -18.7405   23.9577 C.3     1  UNL1        0.0089
     15 C         -12.2678  -18.4664   23.7455 C.3     1  UNL1        0.0325
     16 C         -12.6996  -17.2397   22.9979 C.3     1  UNL1        0.1423
     17 O         -12.9137  -17.3019   21.5146 O.3     1  UNL1       -0.3511
     18 C         -12.3874  -16.2074   20.6343 C.3     1  UNL1        0.1741
     19 C         -10.9566  -16.2294   20.1844 C.3     1  UNL1        0.1742
     20 C          -9.0525  -16.0936   21.9467 C.3     1  UNL1        0.1742
     21 O          -9.9255  -15.4293   20.9237 O.3     1  UNL1       -0.3484
@<TRIPOS>BOND
     1    20    21    1
     2    21    19    1
     3    19    18    1
     4    18    17    1
     5    17    16    1
     6    16    15    1
     7    15    14    1
     8    14    13    1
     9    13     1    1
    10     1     2    1
    11     2     3    2
    12     3     4    1
    13     4     5    1
    14     5     6    2
    15     6     7    1
    16     7     8    2
    17     8     9    1
    18     9    10    2
    19     9    11    1
    20    11    12    1
    21    11     1    2
    22     8     3    1
@<TRIPOS>MOLECULE
*****
 21 22 0 0 0
SMALL
GASTEIGER

@<TRIPOS>ATOM
      1 C          -9.0099  -19.7398   22.4403 C.2     1  UNL1        0.0577
      2 N          -7.5931  -19.7019   22.9313 N.2     1  UNL1       -0.2538
      3 C          -6.4676  -19.5034   21.9597 C.2     1  UNL1        0.0660
      4 C          -5.0508  -19.4656   22.4507 C.3     1  UNL1        0.0718
      5 C          -3.9254  -19.2671   21.4791 C.2     1  UNL1       -0.0198
      6 C          -4.2169  -19.1064   20.0165 C.2     1  UNL1       -0.0040
      7 C          -5.6337  -19.1443   19.5254 C.2     1  UNL1        0.0040
      8 C          -6.7590  -19.3428   20.4971 C.2     1  UNL1        0.0525
      9 C          -8.1760  -19.3806   20.0061 C.2     1  UNL1        0.1939
     10 O          -8.4674  -19.2200   18.5435 O.2     1  UNL1       -0.2868
     11 C          -9.3013  -19.5791   20.9777 C.2     1  UNL1        0.0306
     12 C         -10.7183  -19.6170   20.4867 C.3     1  UNL1        0.0356
     13 C         -10.1354  -19.9383   23.4119 C.3     1  UNL1        0.0456
     14 C         -10.7202  -18.7602   24.1331 C.3     1  UNL1        0.0089
     15 C          -9.9042  -17.5159   24.3220 C.3     1  UNL1        0.0325
     16 C          -9.8145  -16.5031   23.2192 C.3     1  UNL1        0.1423
     17 O          -8.5048  -16.2588   22.5300 O.3     1  UNL1       -0.3511
     18 C          -7.5126  -15.3023   23.1221 C.3     1  UNL1        0.1741
     19 C          -6.2492  -15.8209   23.7427 C.3     1  UNL1        0.1742
     20 C          -5.6916  -15.2374   26.2122 C.3     1  UNL1        0.1742
     21 O          -5.5083  -14.9861   24.7448 O.3     1  UNL1       -0.3484
@<TRIPOS>BOND
     1    20    21    1
     2    21    19    1
     3    19    18    1
     4    18    17    1
     5    17    16    1
     6    16    15    1
     7    15    14    1
     8    14    13    1
     9    13     1    1
    10     1     2    1
    11     2     3    2
    12     3     4    1
    13     4     5    1
    14     5     6    2
    15     6     7    1
    16     7     8    2
    17     8     9    1
    18     9    10    2
    19     9    11    1
    20    11    12    1
    21    11     1    2
    22     8     3    1
@<TRIPOS>MOLECULE
*****
 21 22 0 0 0
SMALL
GASTEIGER

@<TRIPOS>ATOM
      1 C          -9.0416  -19.8068   22.1723 C.2     1  UNL1        0.0577
      2 N          -7.6591  -19.7678   22.7528 N.2     1  UNL1       -0.2538
      3 C          -6.4754  -19.5511   21.8571 C.2     1  UNL1        0.0660
      4 C          -5.0929  -19.5121   22.4376 C.3     1  UNL1        0.0718
      5 C          -3.9093  -19.2955   21.5420 C.2     1  UNL1       -0.0198
      6 C          -4.1083  -19.1179   20.0659 C.2     1  UNL1       -0.0040
      7 C          -5.4908  -19.1569   19.4854 C.2     1  UNL1        0.0040
      8 C          -6.6744  -19.3735   20.3810 C.2     1  UNL1        0.0525
      9 C          -8.0570  -19.4126   19.8006 C.2     1  UNL1        0.1939
     10 O          -8.2560  -19.2350   18.3245 O.2     1  UNL1       -0.2868
     11 C          -9.2406  -19.6292   20.6962 C.2     1  UNL1        0.0306
     12 C         -10.6233  -19.6682   20.1157 C.3     1  UNL1        0.0356
     13 C         -10.2253  -20.0234   23.0679 C.3     1  UNL1        0.0456
     14 C         -10.1359  -19.6797   24.5253 C.3     1  UNL1        0.0089
     15 C         -10.3322  -18.2622   24.9750 C.3     1  UNL1        0.0325
     16 C          -9.1926  -17.2893   24.9073 C.3     1  UNL1        0.1423
     17 O          -9.2656  -16.1120   23.9806 O.3     1  UNL1       -0.3511
     18 C          -9.1266  -16.3127   22.5006 C.3     1  UNL1        0.1741
     19 C         -10.3381  -16.2502   21.6183 C.3     1  UNL1        0.1742
     20 C         -12.6726  -17.2669   22.1344 C.3     1  UNL1        0.1742
     21 O         -11.7035  -16.1258   22.2268 O.3     1  UNL1       -0.3484
@<TRIPOS>BOND
     1    20    21    1
     2    21    19    1
     3    19    18    1
     4    18    17    1
     5    17    16    1
     6    16    15    1
     7    15    14    1
     8    14    13    1
     9    13     1    1
    10     1     2    1
    11     2     3    2
    12     3     4    1
    13     4     5    1
    14     5     6    2
    15     6     7    1
    16     7     8    2
    17     8     9    1
    18     9    10    2
    19     9    11    1
    20    11    12    1
    21    11     1    2
    22     8     3    1
@<TRIPOS>MOLECULE
*****
 21 22 0 0 0
SMALL
GASTEIGER

@<TRIPOS>ATOM
      1 C          -6.4649  -15.9000   23.8936 C.2     1  UNL1        0.0577
      2 N          -7.2486  -16.4583   22.7430 N.2     1  UNL1       -0.2538
      3 C          -8.5673  -17.1296   22.9892 C.2     1  UNL1        0.0660
      4 C          -9.3511  -17.6879   21.8386 C.3     1  UNL1        0.0718
      5 C         -10.6696  -18.3592   22.0848 C.2     1  UNL1       -0.0198
      6 C         -11.2045  -18.4722   23.4816 C.2     1  UNL1       -0.0040
      7 C         -10.4207  -17.9139   24.6323 C.2     1  UNL1        0.0040
      8 C          -9.1021  -17.2426   24.3860 C.2     1  UNL1        0.0525
      9 C          -8.3183  -16.6842   25.5367 C.2     1  UNL1        0.1939
     10 O          -8.8531  -16.7972   26.9335 O.2     1  UNL1       -0.2868
     11 C          -6.9997  -16.0129   25.2904 C.2     1  UNL1        0.0306
     12 C          -6.2159  -15.4546   26.4411 C.3     1  UNL1        0.0356
     13 C          -5.1462  -15.2286   23.6474 C.3     1  UNL1        0.0456
     14 C          -4.0194  -15.9958   23.0214 C.3     1  UNL1        0.0089
     15 C          -3.8210  -17.4443   23.3564 C.3     1  UNL1        0.0325
     16 C          -2.6267  -18.1802   22.8253 C.3     1  UNL1        0.1423
     17 O          -2.8153  -19.4034   21.9779 O.3     1  UNL1       -0.3511
     18 C          -2.7265  -19.3017   20.4839 C.3     1  UNL1        0.1741
     19 C          -3.9680  -19.0781   19.6723 C.3     1  UNL1        0.1742
     20 C          -6.5299  -19.2129   20.0828 C.3     1  UNL1        0.1742
     21 O          -5.2081  -18.5480   20.3291 O.3     1  UNL1       -0.3484
@<TRIPOS>BOND
     1    20    21    1
     2    21    19    1
     3    19    18    1
     4    18    17    1
     5    17    16    1
     6    16    15    1
     7    15    14    1
     8    14    13    1
     9    13     1    1
    10     1     2    1
    11     2     3    2
    12     3     4    1
    13     4     5    1
    14     5     6    2
    15     6     7    1
    16     7     8    2
    17     8     9    1
    18     9    10    2
    19     9    11    1
    20    11    12    1
    21    11     1    2
    22     8     3    1
