@<TRIPOS>MOLECULE
*****
 36 39 0 0 0
SMALL
GASTEIGER

@<TRIPOS>ATOM
      1 C           3.2687   -0.8867   28.3674 C.ar    1  UNL1        0.1374
      2 C           3.7666   -0.7187   29.7723 C.ar    1  UNL1        0.0461
      3 C           2.8388   -0.2257   30.8429 C.ar    1  UNL1        0.1235
      4 N           1.4131    0.0994   30.5086 N.ar    1  UNL1       -0.2275
      5 C           0.9152   -0.0686   29.1036 C.ar    1  UNL1        0.1398
      6 C          -0.5105    0.2564   28.7692 C.3     1  UNL1        0.0737
      7 N           1.8430   -0.5617   28.0330 N.ar    1  UNL1       -0.2261
      8 C           3.3367   -0.0577   32.2479 C.ar    1  UNL1        0.2233
      9 N           3.8858   -1.1440   33.1245 N.ar    1  UNL1       -0.1062
     10 N           4.2615   -0.5316   34.4413 N.ar    1  UNL1       -0.0449
     11 N           3.9445    0.9332   34.3784 N.ar    1  UNL1       -0.1483
     12 N           3.3730    1.2261   33.0229 N.ar    1  UNL1       -0.1280
     13 C           4.1611    1.9301   35.4782 C.3     1  UNL1        0.1832
     14 C           3.2347    1.9588   36.6575 C.3     1  UNL1        0.1710
     15 C           2.2763    3.0996   36.8308 C.3     1  UNL1        0.1738
     16 O           1.3499    3.1283   38.0101 O.3     1  UNL1       -0.3485
     17 C           1.3819    2.0163   39.0163 C.3     1  UNL1        0.1739
     18 C           2.3403    0.8755   38.8431 C.3     1  UNL1        0.1742
     19 O           3.2667    0.8468   37.6636 O.3     1  UNL1       -0.3489
     20 C           0.4555    2.0450   40.1957 C.3     1  UNL1        0.1692
     21 O           0.8823    2.7141   41.4686 O.3     1  UNL1       -0.3794
     22 H           1.6248    2.2258   41.8573 H       1  UNL1        0.2105
     23 N           3.7035   -1.5303   25.8882 N.am    1  UNL1       -0.2957
     24 C           4.1965   -1.3797   27.2968 C.2     1  UNL1        0.2639
     25 O           5.6172   -1.7222   27.6349 O.2     1  UNL1       -0.2685
     26 H           2.7711   -1.3056   25.6663 H       1  UNL1        0.1501
     27 C           4.6313   -2.0234   24.8176 C.3     1  UNL1        0.1167
     28 C           2.8737   -0.8434   21.4607 C.ar    1  UNL1        0.1657
     29 C           3.2973   -0.8879   22.8989 C.ar    1  UNL1        0.0366
     30 C           4.2078   -1.9789   23.3792 C.ar    1  UNL1        0.0006
     31 C           4.6948   -3.0254   22.4213 C.ar    1  UNL1       -0.0001
     32 C           4.2713   -2.9809   20.9831 C.ar    1  UNL1        0.0325
     33 C           3.3607   -1.8899   20.5028 C.ar    1  UNL1        0.1738
     34 F           2.9372   -1.8454   19.0644 F       1  UNL1       -0.2010
     35 C           0.5624   -0.0780   20.5541 C.3     1  UNL1        0.2526
     36 O           1.9632    0.2476   20.9804 O.3     1  UNL1       -0.4692
@<TRIPOS>BOND
     1    35    36    1
     2    36    28    1
     3    28    29   ar
     4    29    30   ar
     5    30    27    1
     6    27    23    1
     7    23    24   am
     8    24    25    2
     9    24     1    1
    10     1     2   ar
    11     2     3   ar
    12     3     8    1
    13     8     9   ar
    14     9    10   ar
    15    10    11   ar
    16    11    13    1
    17    14    13    1
    18    14    15    1
    19    15    16    1
    20    16    17    1
    21    17    20    1
    22    20    21    1
    23    17    18    1
    24    18    19    1
    25    11    12   ar
    26     3     4   ar
    27     4     5   ar
    28     5     6    1
    29     5     7   ar
    30    30    31   ar
    31    31    32   ar
    32    32    33   ar
    33    33    34    1
    34    33    28   ar
    35     7     1   ar
    36    12     8   ar
    37    19    14    1
    38    23    26    1
    39    21    22    1
@<TRIPOS>MOLECULE
*****
 36 39 0 0 0
SMALL
GASTEIGER

@<TRIPOS>ATOM
      1 C           4.4241   -2.8758   22.0830 C.ar    1  UNL1        0.1374
      2 C           3.5700   -1.7062   21.6925 C.ar    1  UNL1        0.0461
      3 C           3.0011   -1.6224   20.3071 C.ar    1  UNL1        0.1235
      4 N           3.2864   -2.7080   19.3122 N.ar    1  UNL1       -0.2275
      5 C           4.1406   -3.8777   19.7027 C.ar    1  UNL1        0.1398
      6 C           4.4259   -4.9633   18.7078 C.3     1  UNL1        0.0737
      7 N           4.7095   -3.9615   21.0881 N.ar    1  UNL1       -0.2261
      8 C           2.1469   -0.4527   19.9166 C.ar    1  UNL1        0.2233
      9 N           1.6163   -0.1682   18.5428 N.ar    1  UNL1       -0.1062
     10 N           0.8148    1.0981   18.6085 N.ar    1  UNL1       -0.0449
     11 N           0.8501    1.5961   20.0230 N.ar    1  UNL1       -0.1483
     12 N           1.6734    0.6376   20.8314 N.ar    1  UNL1       -0.1280
     13 C           0.1798    2.8350   20.5385 C.3     1  UNL1        0.1832
     14 C          -1.2231    3.1590   20.1180 C.3     1  UNL1        0.1710
     15 C          -1.4753    3.8277   18.7992 C.3     1  UNL1        0.1738
     16 O          -2.8782    4.1517   18.3787 O.3     1  UNL1       -0.3485
     17 C          -4.0289    3.8069   19.2770 C.3     1  UNL1        0.1739
     18 C          -3.7768    3.1382   20.5958 C.3     1  UNL1        0.1742
     19 O          -2.3738    2.8142   21.0163 O.3     1  UNL1       -0.3489
     20 C          -5.4319    4.1309   18.8565 C.3     1  UNL1        0.1692
     21 O          -6.4576    3.0404   18.7627 O.3     1  UNL1       -0.3794
     22 H          -6.2129    2.4266   18.0526 H       1  UNL1        0.2105
     23 N           6.1131   -3.9129   23.7628 N.am    1  UNL1       -0.2957
     24 C           4.9930   -2.9597   23.4684 C.2     1  UNL1        0.2639
     25 O           4.4418   -2.0902   24.5594 O.2     1  UNL1       -0.2685
     26 H           6.4749   -4.4835   23.0467 H       1  UNL1        0.1501
     27 C           6.6820   -3.9968   25.1482 C.3     1  UNL1        0.1167
     28 C           7.9754   -6.8272   27.6111 C.ar    1  UNL1        0.1657
     29 C           7.3928   -5.5365   27.1165 C.ar    1  UNL1        0.0366
     30 C           7.2646   -5.2875   25.6428 C.ar    1  UNL1        0.0006
     31 C           7.7191   -6.3292   24.6639 C.ar    1  UNL1       -0.0001
     32 C           8.3017   -7.6198   25.1586 C.ar    1  UNL1        0.0325
     33 C           8.4298   -7.8688   26.6322 C.ar    1  UNL1        0.1738
     34 F           9.0125   -9.1596   27.1268 F       1  UNL1       -0.2010
     35 C           7.6923   -6.0161   30.0631 C.3     1  UNL1        0.2526
     36 O           8.1036   -7.0762   29.0848 O.3     1  UNL1       -0.4692
@<TRIPOS>BOND
     1    35    36    1
     2    36    28    1
     3    28    29   ar
     4    29    30   ar
     5    30    27    1
     6    27    23    1
     7    23    24   am
     8    24    25    2
     9    24     1    1
    10     1     2   ar
    11     2     3   ar
    12     3     8    1
    13     8     9   ar
    14     9    10   ar
    15    10    11   ar
    16    11    13    1
    17    14    13    1
    18    14    15    1
    19    15    16    1
    20    16    17    1
    21    17    20    1
    22    20    21    1
    23    17    18    1
    24    18    19    1
    25    11    12   ar
    26     3     4   ar
    27     4     5   ar
    28     5     6    1
    29     5     7   ar
    30    30    31   ar
    31    31    32   ar
    32    32    33   ar
    33    33    34    1
    34    33    28   ar
    35     7     1   ar
    36    12     8   ar
    37    19    14    1
    38    23    26    1
    39    21    22    1
@<TRIPOS>MOLECULE
*****
 36 39 0 0 0
SMALL
GASTEIGER

@<TRIPOS>ATOM
      1 C           7.6771   -6.1187   25.4905 C.ar    1  UNL1        0.1374
      2 C           7.2737   -5.1723   26.5820 C.ar    1  UNL1        0.0461
      3 C           7.3349   -5.6104   28.0152 C.ar    1  UNL1        0.1235
      4 N           7.7996   -6.9950   28.3570 N.ar    1  UNL1       -0.2275
      5 C           8.2031   -7.9416   27.2655 C.ar    1  UNL1        0.1398
      6 C           8.6679   -9.3262   27.6073 C.3     1  UNL1        0.0737
      7 N           8.1419   -7.5034   25.8323 N.ar    1  UNL1       -0.2261
      8 C           6.9314   -4.6639   29.1068 C.ar    1  UNL1        0.2233
      9 N           6.9203   -4.9657   30.5761 N.ar    1  UNL1       -0.1062
     10 N           6.4503   -3.7378   31.2980 N.ar    1  UNL1       -0.0449
     11 N           6.1709   -2.6770   30.2748 N.ar    1  UNL1       -0.1483
     12 N           6.4683   -3.2494   28.9206 N.ar    1  UNL1       -0.1280
     13 C           5.6802   -1.2877   30.5565 C.3     1  UNL1        0.1832
     14 C           4.2811   -0.8964   30.1834 C.3     1  UNL1        0.1710
     15 C           3.3316   -0.4110   31.2383 C.3     1  UNL1        0.1738
     16 O           1.9324   -0.0197   30.8653 O.3     1  UNL1       -0.3485
     17 C           1.4827   -0.1139   29.4373 C.3     1  UNL1        0.1739
     18 C           2.4322   -0.5993   28.3825 C.3     1  UNL1        0.1742
     19 O           3.8314   -0.9906   28.7556 O.3     1  UNL1       -0.3489
     20 C           0.0835    0.2775   29.0643 C.3     1  UNL1        0.1692
     21 O          -0.6571   -0.4965   28.0143 O.3     1  UNL1       -0.3794
     22 H          -0.2208   -0.3766   27.1563 H       1  UNL1        0.2105
     23 N           6.9257   -4.3995   23.6934 N.am    1  UNL1       -0.2957
     24 C           7.6159   -5.6806   24.0572 C.2     1  UNL1        0.2639
     25 O           8.2448   -6.5236   22.9877 O.2     1  UNL1       -0.2685
     26 H           6.5129   -3.8462   24.3954 H       1  UNL1        0.1501
     27 C           6.8644   -3.9614   22.2601 C.3     1  UNL1        0.1167
     28 C           4.1918   -2.3889   19.7833 C.ar    1  UNL1        0.1657
     29 C           5.3856   -3.1453   20.2860 C.ar    1  UNL1        0.0366
     30 C           5.6706   -3.2049   21.7575 C.ar    1  UNL1        0.0006
     31 C           4.7617   -2.5082   22.7263 C.ar    1  UNL1       -0.0001
     32 C           3.5680   -1.7519   22.2236 C.ar    1  UNL1        0.0325
     33 C           3.2830   -1.6922   20.7521 C.ar    1  UNL1        0.1738
     34 F           2.0891   -0.9358   20.2495 F       1  UNL1       -0.2010
     35 C           4.0878   -1.0414   17.5645 C.3     1  UNL1        0.2526
     36 O           3.9068   -2.3293   18.3119 O.3     1  UNL1       -0.4692
@<TRIPOS>BOND
     1    35    36    1
     2    36    28    1
     3    28    29   ar
     4    29    30   ar
     5    30    27    1
     6    27    23    1
     7    23    24   am
     8    24    25    2
     9    24     1    1
    10     1     2   ar
    11     2     3   ar
    12     3     8    1
    13     8     9   ar
    14     9    10   ar
    15    10    11   ar
    16    11    13    1
    17    14    13    1
    18    14    15    1
    19    15    16    1
    20    16    17    1
    21    17    20    1
    22    20    21    1
    23    17    18    1
    24    18    19    1
    25    11    12   ar
    26     3     4   ar
    27     4     5   ar
    28     5     6    1
    29     5     7   ar
    30    30    31   ar
    31    31    32   ar
    32    32    33   ar
    33    33    34    1
    34    33    28   ar
    35     7     1   ar
    36    12     8   ar
    37    19    14    1
    38    23    26    1
    39    21    22    1
@<TRIPOS>MOLECULE
*****
 36 39 0 0 0
SMALL
GASTEIGER

@<TRIPOS>ATOM
      1 C           0.3778    2.0127   23.7272 C.ar    1  UNL1        0.1374
      2 C           1.2919    1.2806   24.6644 C.ar    1  UNL1        0.0461
      3 C           1.0419    1.3244   26.1428 C.ar    1  UNL1        0.1235
      4 N          -0.1222    2.1002   26.6840 N.ar    1  UNL1       -0.2275
      5 C          -1.0364    2.8323   25.7467 C.ar    1  UNL1        0.1398
      6 C          -2.2005    3.6081   26.2879 C.3     1  UNL1        0.0737
      7 N          -0.7864    2.7886   24.2684 N.ar    1  UNL1       -0.2261
      8 C           1.9561    0.5922   27.0800 C.ar    1  UNL1        0.2233
      9 N           1.5313   -0.3038   28.2056 N.ar    1  UNL1       -0.1062
     10 N           2.7681   -0.8222   28.8775 N.ar    1  UNL1       -0.0449
     11 N           3.9574   -0.2466   28.1671 N.ar    1  UNL1       -0.1483
     12 N           3.4555    0.6275   27.0563 N.ar    1  UNL1       -0.1280
     13 C           5.3959   -0.5006   28.5078 C.3     1  UNL1        0.1832
     14 C           5.8087   -1.8242   29.0803 C.3     1  UNL1        0.1710
     15 C           6.0466   -2.9932   28.1711 C.3     1  UNL1        0.1738
     16 O           6.4593   -4.3168   28.7436 O.3     1  UNL1       -0.3485
     17 C           6.6341   -4.4713   30.2254 C.3     1  UNL1        0.1739
     18 C           6.3962   -3.3023   31.1346 C.3     1  UNL1        0.1742
     19 O           5.9834   -1.9787   30.5620 O.3     1  UNL1       -0.3489
     20 C           7.0469   -5.7950   30.7979 C.3     1  UNL1        0.1692
     21 O           6.6956   -6.1419   32.2143 O.3     1  UNL1       -0.3794
     22 H           7.1683   -5.5489   32.8191 H       1  UNL1        0.2105
     23 N           0.0795    0.8393   21.4285 N.am    1  UNL1       -0.2957
     24 C           0.6279    1.9690   22.2489 C.2     1  UNL1        0.2639
     25 O           1.4263    3.0551   21.5908 O.2     1  UNL1       -0.2685
     26 H          -0.4446    0.1265   21.8604 H       1  UNL1        0.1501
     27 C           0.3295    0.7956   19.9502 C.3     1  UNL1        0.1167
     28 C           3.2003   -1.9096   19.5132 C.ar    1  UNL1        0.1657
     29 C           1.9942   -1.1967   20.0491 C.ar    1  UNL1        0.0366
     30 C           1.5356    0.0826   19.4143 C.ar    1  UNL1        0.0006
     31 C           2.2830    0.6491   18.2436 C.ar    1  UNL1       -0.0001
     32 C           3.4891   -0.0638   17.7078 C.ar    1  UNL1        0.0325
     33 C           3.9477   -1.3432   18.3426 C.ar    1  UNL1        0.1738
     34 F           5.1538   -2.0561   17.8067 F       1  UNL1       -0.2010
     35 C           3.5968   -4.4736   19.3762 C.3     1  UNL1        0.2526
     36 O           3.6589   -3.1889   20.1480 O.3     1  UNL1       -0.4692
@<TRIPOS>BOND
     1    35    36    1
     2    36    28    1
     3    28    29   ar
     4    29    30   ar
     5    30    27    1
     6    27    23    1
     7    23    24   am
     8    24    25    2
     9    24     1    1
    10     1     2   ar
    11     2     3   ar
    12     3     8    1
    13     8     9   ar
    14     9    10   ar
    15    10    11   ar
    16    11    13    1
    17    14    13    1
    18    14    15    1
    19    15    16    1
    20    16    17    1
    21    17    20    1
    22    20    21    1
    23    17    18    1
    24    18    19    1
    25    11    12   ar
    26     3     4   ar
    27     4     5   ar
    28     5     6    1
    29     5     7   ar
    30    30    31   ar
    31    31    32   ar
    32    32    33   ar
    33    33    34    1
    34    33    28   ar
    35     7     1   ar
    36    12     8   ar
    37    19    14    1
    38    23    26    1
    39    21    22    1
@<TRIPOS>MOLECULE
*****
 36 39 0 0 0
SMALL
GASTEIGER

@<TRIPOS>ATOM
      1 C           1.6223    1.7985   31.9958 C.ar    1  UNL1        0.1374
      2 C           2.7077    0.8107   32.3057 C.ar    1  UNL1        0.0461
      3 C           2.9186   -0.3764   31.4133 C.ar    1  UNL1        0.1235
      4 N           2.0441   -0.5757   30.2111 N.ar    1  UNL1       -0.2275
      5 C           0.9586    0.4121   29.9012 C.ar    1  UNL1        0.1398
      6 C           0.0841    0.2129   28.6989 C.3     1  UNL1        0.0737
      7 N           0.7477    1.5992   30.7935 N.ar    1  UNL1       -0.2261
      8 C           4.0041   -1.3643   31.7233 C.ar    1  UNL1        0.2233
      9 N           4.0895   -2.2247   32.9490 N.ar    1  UNL1       -0.1062
     10 N           5.3329   -3.0573   32.8452 N.ar    1  UNL1       -0.0449
     11 N           6.0159   -2.7115   31.5552 N.ar    1  UNL1       -0.1483
     12 N           5.1947   -1.6652   30.8619 N.ar    1  UNL1       -0.1280
     13 C           7.2955   -3.3074   31.0478 C.3     1  UNL1        0.1832
     14 C           7.2710   -4.2652   29.8936 C.3     1  UNL1        0.1710
     15 C           7.9174   -5.6125   30.0233 C.3     1  UNL1        0.1738
     16 O           7.8928   -6.5702   28.8691 O.3     1  UNL1       -0.3485
     17 C           7.2218   -6.1807   27.5854 C.3     1  UNL1        0.1739
     18 C           6.5754   -4.8333   27.4557 C.3     1  UNL1        0.1742
     19 O           6.6000   -3.8756   28.6100 O.3     1  UNL1       -0.3489
     20 C           7.1973   -7.1385   26.4312 C.3     1  UNL1        0.1692
     21 O           6.4947   -8.4569   26.5655 O.3     1  UNL1       -0.3794
     22 H           6.9559   -9.0039   27.2205 H       1  UNL1        0.2105
     23 N           2.2420    3.1501   34.1263 N.am    1  UNL1       -0.2957
     24 C           1.4114    2.9856   32.8882 C.2     1  UNL1        0.2639
     25 O           0.3699    4.0082   32.5424 O.2     1  UNL1       -0.2685
     26 H           2.9256    2.4789   34.3533 H       1  UNL1        0.1501
     27 C           2.0312    4.3372   35.0187 C.3     1  UNL1        0.1167
     28 C           2.6082    3.1310   38.7553 C.ar    1  UNL1        0.1657
     29 C           2.1258    3.1651   37.3355 C.ar    1  UNL1        0.0366
     30 C           2.5137    4.3032   36.4386 C.ar    1  UNL1        0.0006
     31 C           3.3839    5.4072   36.9617 C.ar    1  UNL1       -0.0001
     32 C           3.8664    5.3732   38.3815 C.ar    1  UNL1        0.0325
     33 C           3.4785    4.2351   39.2784 C.ar    1  UNL1        0.1738
     34 F           3.9610    4.2011   40.6983 F       1  UNL1       -0.2010
     35 C           1.7025    0.7153   39.0612 C.3     1  UNL1        0.2526
     36 O           2.2204    1.9929   39.6522 O.3     1  UNL1       -0.4692
@<TRIPOS>BOND
     1    35    36    1
     2    36    28    1
     3    28    29   ar
     4    29    30   ar
     5    30    27    1
     6    27    23    1
     7    23    24   am
     8    24    25    2
     9    24     1    1
    10     1     2   ar
    11     2     3   ar
    12     3     8    1
    13     8     9   ar
    14     9    10   ar
    15    10    11   ar
    16    11    13    1
    17    14    13    1
    18    14    15    1
    19    15    16    1
    20    16    17    1
    21    17    20    1
    22    20    21    1
    23    17    18    1
    24    18    19    1
    25    11    12   ar
    26     3     4   ar
    27     4     5   ar
    28     5     6    1
    29     5     7   ar
    30    30    31   ar
    31    31    32   ar
    32    32    33   ar
    33    33    34    1
    34    33    28   ar
    35     7     1   ar
    36    12     8   ar
    37    19    14    1
    38    23    26    1
    39    21    22    1
@<TRIPOS>MOLECULE
*****
 36 39 0 0 0
SMALL
GASTEIGER

@<TRIPOS>ATOM
      1 C           2.3766    0.2873   27.4486 C.ar    1  UNL1        0.1374
      2 C           3.0809    0.0117   28.7440 C.ar    1  UNL1        0.0461
      3 C           2.2923   -0.1203   30.0132 C.ar    1  UNL1        0.1235
      4 N           0.7995    0.0233   29.9870 N.ar    1  UNL1       -0.2275
      5 C           0.0951    0.2988   28.6916 C.ar    1  UNL1        0.1398
      6 C          -1.3978    0.4424   28.6654 C.3     1  UNL1        0.0737
      7 N           0.8836    0.4308   27.4224 N.ar    1  UNL1       -0.2261
      8 C           2.9967   -0.3958   31.3086 C.ar    1  UNL1        0.2233
      9 N           3.3127   -1.7507   31.8695 N.ar    1  UNL1       -0.1062
     10 N           4.0201   -1.5572   33.1780 N.ar    1  UNL1       -0.0449
     11 N           4.1412   -0.0827   33.4258 N.ar    1  UNL1       -0.1483
     12 N           3.5087    0.6350   32.2704 N.ar    1  UNL1       -0.1280
     13 C           4.7822    0.5610   34.6194 C.3     1  UNL1        0.1832
     14 C           3.9305    1.0762   35.7415 C.3     1  UNL1        0.1710
     15 C           2.9454    2.1790   35.4900 C.3     1  UNL1        0.1738
     16 O           2.0937    2.6941   36.6122 O.3     1  UNL1       -0.3485
     17 C           2.2271    2.1064   37.9858 C.3     1  UNL1        0.1739
     18 C           3.2123    1.0036   38.2373 C.3     1  UNL1        0.1742
     19 O           4.0640    0.4885   37.1151 O.3     1  UNL1       -0.3489
     20 C           1.3753    2.6216   39.1080 C.3     1  UNL1        0.1692
     21 O          -0.0752    2.2467   39.1817 O.3     1  UNL1       -0.3794
     22 H          -0.5478    2.6337   38.4282 H       1  UNL1        0.2105
     23 N           2.6161   -0.1274   24.8951 N.am    1  UNL1       -0.2957
     24 C           3.1651    0.4193   26.1795 C.2     1  UNL1        0.2639
     25 O           4.5027    1.0980   26.1947 O.2     1  UNL1       -0.2685
     26 H           1.7382   -0.5728   24.8851 H       1  UNL1        0.1501
     27 C           3.4046    0.0046   23.6259 C.3     1  UNL1        0.1167
     28 C           0.6893    0.9450   20.8886 C.ar    1  UNL1        0.1657
     29 C           1.3996    0.8501   22.2063 C.ar    1  UNL1        0.0366
     30 C           2.6943    0.0996   22.3081 C.ar    1  UNL1        0.0006
     31 C           3.2789   -0.5559   21.0921 C.ar    1  UNL1       -0.0001
     32 C           2.5686   -0.4609   19.7744 C.ar    1  UNL1        0.0325
     33 C           1.2738    0.2895   19.6726 C.ar    1  UNL1        0.1738
     34 F           0.5636    0.3845   18.3548 F       1  UNL1       -0.2010
     35 C          -0.6109    3.1223   20.3241 C.3     1  UNL1        0.2526
     36 O          -0.6054    1.6955   20.7868 O.3     1  UNL1       -0.4692
@<TRIPOS>BOND
     1    35    36    1
     2    36    28    1
     3    28    29   ar
     4    29    30   ar
     5    30    27    1
     6    27    23    1
     7    23    24   am
     8    24    25    2
     9    24     1    1
    10     1     2   ar
    11     2     3   ar
    12     3     8    1
    13     8     9   ar
    14     9    10   ar
    15    10    11   ar
    16    11    13    1
    17    14    13    1
    18    14    15    1
    19    15    16    1
    20    16    17    1
    21    17    20    1
    22    20    21    1
    23    17    18    1
    24    18    19    1
    25    11    12   ar
    26     3     4   ar
    27     4     5   ar
    28     5     6    1
    29     5     7   ar
    30    30    31   ar
    31    31    32   ar
    32    32    33   ar
    33    33    34    1
    34    33    28   ar
    35     7     1   ar
    36    12     8   ar
    37    19    14    1
    38    23    26    1
    39    21    22    1
@<TRIPOS>MOLECULE
*****
 36 39 0 0 0
SMALL
GASTEIGER

@<TRIPOS>ATOM
      1 C           3.9887   -1.6741   22.8123 C.ar    1  UNL1        0.1374
      2 C           5.0794   -2.4723   23.4628 C.ar    1  UNL1        0.0461
      3 C           5.6794   -3.6457   22.7464 C.ar    1  UNL1        0.1235
      4 N           5.1887   -4.0209   21.3795 N.ar    1  UNL1       -0.2275
      5 C           4.0979   -3.2227   20.7290 C.ar    1  UNL1        0.1398
      6 C           3.6073   -3.5978   19.3621 C.3     1  UNL1        0.0737
      7 N           3.4980   -2.0493   21.4453 N.ar    1  UNL1       -0.2261
      8 C           6.7701   -4.4440   23.3970 C.ar    1  UNL1        0.2233
      9 N           7.8908   -5.1463   22.6893 N.ar    1  UNL1       -0.1062
     10 N           8.7450   -5.8164   23.7243 N.ar    1  UNL1       -0.0449
     11 N           8.1522   -5.5281   25.0718 N.ar    1  UNL1       -0.1483
     12 N           6.9317   -4.6799   24.8695 N.ar    1  UNL1       -0.1280
     13 C           8.6862   -6.0045   26.3901 C.3     1  UNL1        0.1832
     14 C           8.1354   -5.4457   27.6685 C.3     1  UNL1        0.1710
     15 C           8.0903   -3.9614   27.8803 C.3     1  UNL1        0.1738
     16 O           7.5394   -3.4027   29.1587 O.3     1  UNL1       -0.3485
     17 C           7.0337   -4.3282   30.2253 C.3     1  UNL1        0.1739
     18 C           7.0788   -5.8125   30.0136 C.3     1  UNL1        0.1742
     19 O           7.6297   -6.3712   28.7351 O.3     1  UNL1       -0.3489
     20 C           6.4828   -3.7693   31.5038 C.3     1  UNL1        0.1692
     21 O           6.1135   -4.6915   32.6277 O.3     1  UNL1       -0.3794
     22 H           5.3655   -5.2469   32.3578 H       1  UNL1        0.2105
     23 N           3.8792   -0.1258   24.8957 N.am    1  UNL1       -0.2957
     24 C           3.3887   -0.5008   23.5286 C.2     1  UNL1        0.2639
     25 O           2.2982    0.2977   22.8779 O.2     1  UNL1       -0.2685
     26 H           4.5949   -0.6498   25.3227 H       1  UNL1        0.1501
     27 C           3.2792    1.0476   25.6120 C.3     1  UNL1        0.1167
     28 C           1.3429    0.0095   28.9170 C.ar    1  UNL1        0.1657
     29 C           2.4551    0.2203   27.9329 C.ar    1  UNL1        0.0366
     30 C           2.1669    0.8368   26.5962 C.ar    1  UNL1        0.0006
     31 C           0.7666    1.2425   26.2435 C.ar    1  UNL1       -0.0001
     32 C          -0.3456    1.0317   27.2276 C.ar    1  UNL1        0.0325
     33 C          -0.0575    0.4151   28.5644 C.ar    1  UNL1        0.1738
     34 F          -1.1698    0.2043   29.5485 F       1  UNL1       -0.2010
     35 C           2.7354   -0.0607   31.1093 C.3     1  UNL1        0.2526
     36 O           1.6310   -0.6070   30.2538 O.3     1  UNL1       -0.4692
@<TRIPOS>BOND
     1    35    36    1
     2    36    28    1
     3    28    29   ar
     4    29    30   ar
     5    30    27    1
     6    27    23    1
     7    23    24   am
     8    24    25    2
     9    24     1    1
    10     1     2   ar
    11     2     3   ar
    12     3     8    1
    13     8     9   ar
    14     9    10   ar
    15    10    11   ar
    16    11    13    1
    17    14    13    1
    18    14    15    1
    19    15    16    1
    20    16    17    1
    21    17    20    1
    22    20    21    1
    23    17    18    1
    24    18    19    1
    25    11    12   ar
    26     3     4   ar
    27     4     5   ar
    28     5     6    1
    29     5     7   ar
    30    30    31   ar
    31    31    32   ar
    32    32    33   ar
    33    33    34    1
    34    33    28   ar
    35     7     1   ar
    36    12     8   ar
    37    19    14    1
    38    23    26    1
    39    21    22    1
@<TRIPOS>MOLECULE
*****
 36 39 0 0 0
SMALL
GASTEIGER

@<TRIPOS>ATOM
      1 C           4.1272   -0.8798   28.6318 C.ar    1  UNL1        0.1374
      2 C           4.5010   -0.7924   30.0818 C.ar    1  UNL1        0.0461
      3 C           3.4485   -0.5066   31.1117 C.ar    1  UNL1        0.1235
      4 N           2.0223   -0.3083   30.6916 N.ar    1  UNL1       -0.2275
      5 C           1.6485   -0.3957   29.2415 C.ar    1  UNL1        0.1398
      6 C           0.2223   -0.1974   28.8213 C.3     1  UNL1        0.0737
      7 N           2.7010   -0.6815   28.2116 N.ar    1  UNL1       -0.2261
      8 C           3.8224   -0.4191   32.5618 C.ar    1  UNL1        0.2233
      9 N           4.0433   -1.5791   33.4868 N.ar    1  UNL1       -0.1062
     10 N           4.3984   -1.0333   34.8381 N.ar    1  UNL1       -0.0449
     11 N           4.3968    0.4641   34.7482 N.ar    1  UNL1       -0.1483
     12 N           4.0408    0.8436   33.3414 N.ar    1  UNL1       -0.1280
     13 C           4.6983    1.4150   35.8685 C.3     1  UNL1        0.1832
     14 C           3.6717    1.6708   36.9319 C.3     1  UNL1        0.1710
     15 C           3.5630    0.7455   38.1074 C.3     1  UNL1        0.1738
     16 O           2.5364    1.0013   39.1707 O.3     1  UNL1       -0.3485
     17 C           1.6186    2.1825   39.0585 C.3     1  UNL1        0.1739
     18 C           1.7274    3.1078   37.8830 C.3     1  UNL1        0.1742
     19 O           2.7540    2.8519   36.8197 O.3     1  UNL1       -0.3489
     20 C           0.5920    2.4383   40.1220 C.3     1  UNL1        0.1692
     21 O           0.6659    1.7041   41.4279 O.3     1  UNL1       -0.3794
     22 H           0.5107    0.7586   41.2765 H       1  UNL1        0.2105
     23 N           5.1801   -2.4771   26.8739 N.am    1  UNL1       -0.2957
     24 C           5.1797   -1.1656   27.6019 C.2     1  UNL1        0.2639
     25 O           6.2317   -0.1398   27.3000 O.2     1  UNL1       -0.2685
     26 H           4.4897   -3.1503   27.0721 H       1  UNL1        0.1501
     27 C           6.2326   -2.7629   25.8441 C.3     1  UNL1        0.1167
     28 C           8.0250   -5.9322   24.2653 C.ar    1  UNL1        0.1657
     29 C           7.4935   -4.5390   24.4279 C.ar    1  UNL1        0.0366
     30 C           6.7641   -4.1562   25.6814 C.ar    1  UNL1        0.0006
     31 C           6.5661   -5.1665   26.7723 C.ar    1  UNL1       -0.0001
     32 C           7.0975   -6.5597   26.6097 C.ar    1  UNL1        0.0325
     33 C           7.8270   -6.9425   25.3562 C.ar    1  UNL1        0.1738
     34 F           8.3585   -8.3358   25.1936 F       1  UNL1       -0.2010
     35 C           8.7573   -5.3879   21.8327 C.3     1  UNL1        0.2526
     36 O           8.7545   -6.3151   23.0118 O.3     1  UNL1       -0.4692
@<TRIPOS>BOND
     1    35    36    1
     2    36    28    1
     3    28    29   ar
     4    29    30   ar
     5    30    27    1
     6    27    23    1
     7    23    24   am
     8    24    25    2
     9    24     1    1
    10     1     2   ar
    11     2     3   ar
    12     3     8    1
    13     8     9   ar
    14     9    10   ar
    15    10    11   ar
    16    11    13    1
    17    14    13    1
    18    14    15    1
    19    15    16    1
    20    16    17    1
    21    17    20    1
    22    20    21    1
    23    17    18    1
    24    18    19    1
    25    11    12   ar
    26     3     4   ar
    27     4     5   ar
    28     5     6    1
    29     5     7   ar
    30    30    31   ar
    31    31    32   ar
    32    32    33   ar
    33    33    34    1
    34    33    28   ar
    35     7     1   ar
    36    12     8   ar
    37    19    14    1
    38    23    26    1
    39    21    22    1
@<TRIPOS>MOLECULE
*****
 36 39 0 0 0
SMALL
GASTEIGER

@<TRIPOS>ATOM
      1 C           6.8272   -4.5407   23.3922 C.ar    1  UNL1        0.1374
      2 C           6.5369   -3.9410   24.7361 C.ar    1  UNL1        0.0461
      3 C           7.0841   -4.5814   25.9772 C.ar    1  UNL1        0.1235
      4 N           7.9215   -5.8216   25.8745 N.ar    1  UNL1       -0.2275
      5 C           8.2118   -6.4214   24.5306 C.ar    1  UNL1        0.1398
      6 C           9.0492   -7.6616   24.4279 C.3     1  UNL1        0.0737
      7 N           7.6646   -5.7810   23.2895 N.ar    1  UNL1       -0.2261
      8 C           6.7938   -3.9816   27.3211 C.ar    1  UNL1        0.2233
      9 N           7.0420   -4.6327   28.6495 N.ar    1  UNL1       -0.1062
     10 N           6.6060   -3.6789   29.7219 N.ar    1  UNL1       -0.0449
     11 N           6.0883   -2.4383   29.0564 N.ar    1  UNL1       -0.1483
     12 N           6.2044   -2.6253   27.5726 N.ar    1  UNL1       -0.1280
     13 C           5.5492   -1.2238   29.7524 C.3     1  UNL1        0.1832
     14 C           4.1190   -0.8180   29.5529 C.3     1  UNL1        0.1710
     15 C           3.1544   -0.8817   30.6998 C.3     1  UNL1        0.1738
     16 O           1.7242   -0.4759   30.5003 O.3     1  UNL1       -0.3485
     17 C           1.2586   -0.0063   29.1539 C.3     1  UNL1        0.1739
     18 C           2.2233    0.0574   28.0070 C.3     1  UNL1        0.1742
     19 O           3.6535   -0.3485   28.2066 O.3     1  UNL1       -0.3489
     20 C          -0.1716    0.3995   28.9545 C.3     1  UNL1        0.1692
     21 O          -1.2758   -0.4366   29.5305 O.3     1  UNL1       -0.3794
     22 H          -1.2896   -1.3012   29.0911 H       1  UNL1        0.2105
     23 N           4.8822   -3.3564   22.1415 N.am    1  UNL1       -0.2957
     24 C           6.2800   -3.9003   22.1511 C.2     1  UNL1        0.2639
     25 O           7.1308   -3.8037   20.9194 O.2     1  UNL1       -0.2685
     26 H           4.3238   -3.4198   22.9499 H       1  UNL1        0.1501
     27 C           4.3350   -2.7160   20.9004 C.3     1  UNL1        0.1167
     28 C           2.1563    0.2682   22.3489 C.ar    1  UNL1        0.1657
     29 C           3.2036   -0.8003   22.2421 C.ar    1  UNL1        0.0366
     30 C           3.2877   -1.6474   21.0071 C.ar    1  UNL1        0.0006
     31 C           2.3245   -1.4260   19.8787 C.ar    1  UNL1       -0.0001
     32 C           1.2772   -0.3574   19.9855 C.ar    1  UNL1        0.0325
     33 C           1.1931    0.4896   21.2205 C.ar    1  UNL1        0.1738
     34 F           0.1458    1.5582   21.3272 F       1  UNL1       -0.2010
     35 C           0.8918    0.9894   24.5008 C.3     1  UNL1        0.2526
     36 O           2.0722    1.1153   23.5839 O.3     1  UNL1       -0.4692
@<TRIPOS>BOND
     1    35    36    1
     2    36    28    1
     3    28    29   ar
     4    29    30   ar
     5    30    27    1
     6    27    23    1
     7    23    24   am
     8    24    25    2
     9    24     1    1
    10     1     2   ar
    11     2     3   ar
    12     3     8    1
    13     8     9   ar
    14     9    10   ar
    15    10    11   ar
    16    11    13    1
    17    14    13    1
    18    14    15    1
    19    15    16    1
    20    16    17    1
    21    17    20    1
    22    20    21    1
    23    17    18    1
    24    18    19    1
    25    11    12   ar
    26     3     4   ar
    27     4     5   ar
    28     5     6    1
    29     5     7   ar
    30    30    31   ar
    31    31    32   ar
    32    32    33   ar
    33    33    34    1
    34    33    28   ar
    35     7     1   ar
    36    12     8   ar
    37    19    14    1
    38    23    26    1
    39    21    22    1
