@<TRIPOS>MOLECULE
*****
 22 25 0 0 0
SMALL
GASTEIGER

@<TRIPOS>ATOM
      1 O          -8.8391  -19.3173   19.1474 O.2     1  UNL1       -0.2448
      2 C          -9.0439  -18.5162   20.3988 C.2     1  UNL1        0.3428
      3 C         -10.4220  -18.0665   20.7845 C.2     1  UNL1        0.0958
      4 C         -11.3693  -17.2878   19.9207 C.2     1  UNL1        0.1049
      5 N         -12.6274  -17.0566   20.7041 N.2     1  UNL1       -0.2475
      6 C         -12.4576  -17.6924   22.0521 C.2     1  UNL1        0.0660
      7 C         -13.3681  -17.7836   23.2406 C.3     1  UNL1        0.1022
      8 C         -12.9154  -18.4989   24.4789 C.2     1  UNL1        0.1236
      9 F         -13.8259  -18.5902   25.6675 F       1  UNL1       -0.2085
     10 C         -11.5523  -19.1230   24.5286 C.2     1  UNL1        0.0256
     11 C         -10.6419  -19.0318   23.3400 C.2     1  UNL1        0.0034
     12 C         -11.0945  -18.3165   22.1018 C.2     1  UNL1        0.0218
     13 O          -7.8705  -18.1647   21.2647 O.3     1  UNL1       -0.4454
     14 C          -7.1147  -19.2459   21.9787 C.3     1  UNL1        0.2087
     15 C          -5.6937  -19.5425   21.6009 C.3     1  UNL1        0.0445
     16 C          -5.3977  -20.3610   20.3792 C.3     1  UNL1        0.0210
     17 C          -3.9767  -20.6576   20.0014 C.3     1  UNL1        0.0722
     18 N          -2.8517  -20.1359   20.8452 N.3     1  UNL1       -0.2727
     19 C          -3.1477  -19.3174   22.0669 C.3     1  UNL1        0.0722
     20 C          -4.5688  -19.0208   22.4448 C.3     1  UNL1        0.0210
     21 C          -3.6142  -19.9473   21.0923 C.3     1  UNL1        0.0722
     22 C          -4.8990  -19.6790   21.4340 C.3     1  UNL1        0.0210
@<TRIPOS>BOND
     1     1     2    2
     2     2    13    1
     3    13    14    1
     4    14    15    1
     5    15    16    1
     6    16    17    1
     7    17    18    1
     8    18    19    1
     9    19    20    1
    10    18    21    1
    11    21    22    1
    12     2     3    1
    13     3     4    2
    14     4     5    1
    15     5     6    2
    16     6     7    1
    17     7     8    1
    18     8     9    1
    19     8    10    2
    20    10    11    1
    21    11    12    2
    22    20    15    1
    23    12     3    1
    24    22    15    1
    25    12     6    1
@<TRIPOS>MOLECULE
*****
 22 25 0 0 0
SMALL
GASTEIGER

@<TRIPOS>ATOM
      1 O          -8.4151  -19.0160   19.9854 O.2     1  UNL1       -0.2448
      2 C          -8.8280  -17.9330   20.9375 C.2     1  UNL1        0.3428
      3 C         -10.2832  -17.6655   21.1839 C.2     1  UNL1        0.0958
      4 C         -11.2283  -16.9892   20.2355 C.2     1  UNL1        0.1049
      5 N         -12.5780  -16.9331   20.8875 N.2     1  UNL1       -0.2475
      6 C         -12.4671  -17.5748   22.2388 C.2     1  UNL1        0.0660
      7 C         -13.4744  -17.8054   23.3261 C.3     1  UNL1        0.1022
      8 C         -13.0633  -18.4886   24.5966 C.2     1  UNL1        0.1236
      9 F         -14.0706  -18.7193   25.6839 F       1  UNL1       -0.2085
     10 C         -11.6450  -18.9413   24.7797 C.2     1  UNL1        0.0256
     11 C         -10.6378  -18.7107   23.6925 C.2     1  UNL1        0.0034
     12 C         -11.0488  -18.0274   22.4220 C.2     1  UNL1        0.0218
     13 O          -7.7855  -17.1173   21.6432 O.3     1  UNL1       -0.4454
     14 C          -8.1841  -15.8894   22.4071 C.3     1  UNL1        0.2087
     15 C          -7.7591  -15.7243   23.8361 C.3     1  UNL1        0.0445
     16 C          -6.3233  -15.4394   24.1634 C.3     1  UNL1        0.0210
     17 C          -5.8984  -15.2743   25.5925 C.3     1  UNL1        0.0722
     18 N          -6.9092  -15.3941   26.6942 N.3     1  UNL1       -0.2727
     19 C          -8.3451  -15.6791   26.3669 C.3     1  UNL1        0.0722
     20 C          -8.7700  -15.8442   24.9377 C.3     1  UNL1        0.0210
     21 C          -7.1895  -15.4924   25.9263 C.3     1  UNL1        0.0722
     22 C          -7.5738  -15.6417   24.6341 C.3     1  UNL1        0.0210
@<TRIPOS>BOND
     1     1     2    2
     2     2    13    1
     3    13    14    1
     4    14    15    1
     5    15    16    1
     6    16    17    1
     7    17    18    1
     8    18    19    1
     9    19    20    1
    10    18    21    1
    11    21    22    1
    12     2     3    1
    13     3     4    2
    14     4     5    1
    15     5     6    2
    16     6     7    1
    17     7     8    1
    18     8     9    1
    19     8    10    2
    20    10    11    1
    21    11    12    2
    22    20    15    1
    23    12     3    1
    24    22    15    1
    25    12     6    1
@<TRIPOS>MOLECULE
*****
 22 25 0 0 0
SMALL
GASTEIGER

@<TRIPOS>ATOM
      1 O          -9.0590  -18.9378   19.2434 O.2     1  UNL1       -0.2448
      2 C          -8.2829  -18.8758   20.5254 C.2     1  UNL1        0.3428
      3 C          -8.9671  -19.1549   21.8308 C.2     1  UNL1        0.0958
      4 C          -8.4102  -19.9672   22.9622 C.2     1  UNL1        0.1049
      5 N          -9.4274  -19.9850   24.0645 N.2     1  UNL1       -0.2475
      6 C         -10.6129  -19.1839   23.6143 C.2     1  UNL1        0.0660
      7 C         -11.9147  -18.8553   24.2831 C.3     1  UNL1        0.1022
      8 C         -12.9320  -18.0136   23.5714 C.2     1  UNL1        0.1236
      9 F         -14.2339  -17.6849   24.2402 F       1  UNL1       -0.2085
     10 C         -12.6476  -17.5005   22.1909 C.2     1  UNL1        0.0256
     11 C         -11.3458  -17.8292   21.5221 C.2     1  UNL1        0.0034
     12 C         -10.3285  -18.6708   22.2338 C.2     1  UNL1        0.0218
     13 O          -6.8223  -18.5345   20.5022 O.3     1  UNL1       -0.4454
     14 C          -5.8036  -19.6130   20.2801 C.3     1  UNL1        0.2087
     15 C          -4.3420  -19.3023   20.4108 C.3     1  UNL1        0.0445
     16 C          -3.5940  -18.7124   19.2521 C.3     1  UNL1        0.0210
     17 C          -2.1324  -18.4018   19.3830 C.3     1  UNL1        0.0722
     18 N          -1.4187  -18.6810   20.6724 N.3     1  UNL1       -0.2727
     19 C          -2.1667  -19.2709   21.8311 C.3     1  UNL1        0.0722
     20 C          -3.6284  -19.5816   21.7003 C.3     1  UNL1        0.0210
     21 C          -2.2202  -18.8681   20.6483 C.3     1  UNL1        0.0722
     22 C          -3.5418  -19.1490   20.5301 C.3     1  UNL1        0.0210
@<TRIPOS>BOND
     1     1     2    2
     2     2    13    1
     3    13    14    1
     4    14    15    1
     5    15    16    1
     6    16    17    1
     7    17    18    1
     8    18    19    1
     9    19    20    1
    10    18    21    1
    11    21    22    1
    12     2     3    1
    13     3     4    2
    14     4     5    1
    15     5     6    2
    16     6     7    1
    17     7     8    1
    18     8     9    1
    19     8    10    2
    20    10    11    1
    21    11    12    2
    22    20    15    1
    23    12     3    1
    24    22    15    1
    25    12     6    1
@<TRIPOS>MOLECULE
*****
 22 25 0 0 0
SMALL
GASTEIGER

@<TRIPOS>ATOM
      1 O          -9.1770  -18.5424   23.8542 O.2     1  UNL1       -0.2448
      2 C          -8.5978  -17.8666   22.6470 C.2     1  UNL1        0.3428
      3 C          -7.8010  -18.6594   21.6536 C.2     1  UNL1        0.0958
      4 C          -8.3445  -19.3518   20.4390 C.2     1  UNL1        0.1049
      5 N          -7.2002  -20.0192   19.7352 N.2     1  UNL1       -0.2475
      6 C          -5.9497  -19.7393   20.5148 C.2     1  UNL1        0.0660
      7 C          -4.5209  -20.1411   20.2983 C.3     1  UNL1        0.1022
      8 C          -3.4634  -19.7024   21.2674 C.2     1  UNL1        0.1236
      9 F          -2.0344  -20.1042   21.0509 F       1  UNL1       -0.2085
     10 C          -3.8347  -18.8620   22.4530 C.2     1  UNL1        0.0256
     11 C          -5.2635  -18.4602   22.6696 C.2     1  UNL1        0.0034
     12 C          -6.3210  -18.8988   21.7005 C.2     1  UNL1        0.0218
     13 O          -8.8153  -16.3979   22.4330 O.3     1  UNL1       -0.4454
     14 C          -7.8065  -15.4090   22.9375 C.3     1  UNL1        0.2087
     15 C          -7.3848  -15.4359   24.3767 C.3     1  UNL1        0.0445
     16 C          -8.4204  -15.4809   25.4609 C.3     1  UNL1        0.0210
     17 C          -7.9986  -15.5077   26.9002 C.3     1  UNL1        0.0722
     18 N          -6.5413  -15.4896   27.2552 N.3     1  UNL1       -0.2727
     19 C          -5.5058  -15.4446   26.1710 C.3     1  UNL1        0.0722
     20 C          -5.9275  -15.4178   24.7317 C.3     1  UNL1        0.0210
     21 C          -6.7240  -15.4737   26.4525 C.3     1  UNL1        0.0722
     22 C          -7.1053  -15.4494   25.1511 C.3     1  UNL1        0.0210
@<TRIPOS>BOND
     1     1     2    2
     2     2    13    1
     3    13    14    1
     4    14    15    1
     5    15    16    1
     6    16    17    1
     7    17    18    1
     8    18    19    1
     9    19    20    1
    10    18    21    1
    11    21    22    1
    12     2     3    1
    13     3     4    2
    14     4     5    1
    15     5     6    2
    16     6     7    1
    17     7     8    1
    18     8     9    1
    19     8    10    2
    20    10    11    1
    21    11    12    2
    22    20    15    1
    23    12     3    1
    24    22    15    1
    25    12     6    1
@<TRIPOS>MOLECULE
*****
 22 25 0 0 0
SMALL
GASTEIGER

@<TRIPOS>ATOM
      1 O         -10.2044  -20.2901   24.5732 O.2     1  UNL1       -0.2448
      2 C         -10.5199  -18.8311   24.4269 C.2     1  UNL1        0.3428
      3 C          -9.4109  -17.8393   24.2362 C.2     1  UNL1        0.0958
      4 C          -8.7796  -17.4631   22.9286 C.2     1  UNL1        0.1049
      5 N          -7.7170  -16.4409   23.2040 N.2     1  UNL1       -0.2475
      6 C          -7.6915  -16.1853   24.6818 C.2     1  UNL1        0.0660
      7 C          -6.8502  -15.2773   25.5290 C.3     1  UNL1        0.1022
      8 C          -7.0559  -15.2335   27.0141 C.2     1  UNL1        0.1236
      9 F          -6.2146  -14.3255   27.8614 F       1  UNL1       -0.2085
     10 C          -8.1028  -16.0978   27.6521 C.2     1  UNL1        0.0256
     11 C          -8.9440  -17.0059   26.8050 C.2     1  UNL1        0.0034
     12 C          -8.7384  -17.0496   25.3198 C.2     1  UNL1        0.0218
     13 O         -11.9446  -18.3637   24.4713 O.3     1  UNL1       -0.4454
     14 C         -12.7750  -18.3692   23.2221 C.3     1  UNL1        0.2087
     15 C         -12.1781  -17.9159   21.9228 C.3     1  UNL1        0.0445
     16 C         -11.5173  -18.9095   21.0139 C.3     1  UNL1        0.0210
     17 C         -10.9204  -18.4562   19.7146 C.3     1  UNL1        0.0722
     18 N         -10.9842  -17.0092   19.3242 N.3     1  UNL1       -0.2727
     19 C         -11.6449  -16.0157   20.2331 C.3     1  UNL1        0.0722
     20 C         -12.2419  -16.4690   21.5325 C.3     1  UNL1        0.0210
     21 C         -11.3253  -17.2103   20.0462 C.3     1  UNL1        0.0722
     22 C         -11.8651  -17.6201   21.2210 C.3     1  UNL1        0.0210
@<TRIPOS>BOND
     1     1     2    2
     2     2    13    1
     3    13    14    1
     4    14    15    1
     5    15    16    1
     6    16    17    1
     7    17    18    1
     8    18    19    1
     9    19    20    1
    10    18    21    1
    11    21    22    1
    12     2     3    1
    13     3     4    2
    14     4     5    1
    15     5     6    2
    16     6     7    1
    17     7     8    1
    18     8     9    1
    19     8    10    2
    20    10    11    1
    21    11    12    2
    22    20    15    1
    23    12     3    1
    24    22    15    1
    25    12     6    1
@<TRIPOS>MOLECULE
*****
 22 25 0 0 0
SMALL
GASTEIGER

@<TRIPOS>ATOM
      1 O          -6.2447  -17.9131   22.3367 O.2     1  UNL1       -0.2448
      2 C          -6.8915  -19.1213   21.7272 C.2     1  UNL1        0.3428
      3 C          -8.3176  -19.0567   21.2666 C.2     1  UNL1        0.0958
      4 C          -8.8033  -19.2890   19.8665 C.2     1  UNL1        0.1049
      5 N         -10.2942  -19.1242   19.8598 N.2     1  UNL1       -0.2475
      6 C         -10.7299  -18.7902   21.2557 C.2     1  UNL1        0.0660
      7 C         -12.0813  -18.5186   21.8474 C.3     1  UNL1        0.1022
      8 C         -12.2110  -18.2053   23.3085 C.2     1  UNL1        0.1236
      9 F         -13.5623  -17.9338   23.9003 F       1  UNL1       -0.2085
     10 C         -10.9894  -18.1636   24.1780 C.2     1  UNL1        0.0256
     11 C          -9.6380  -18.4351   23.5863 C.2     1  UNL1        0.0034
     12 C          -9.5083  -18.7484   22.1252 C.2     1  UNL1        0.0218
     13 O          -6.1122  -20.3944   21.5784 O.3     1  UNL1       -0.4454
     14 C          -5.0974  -20.5287   20.4819 C.3     1  UNL1        0.2087
     15 C          -3.8914  -19.6370   20.4630 C.3     1  UNL1        0.0445
     16 C          -2.9209  -19.6637   21.6064 C.3     1  UNL1        0.0210
     17 C          -1.7149  -18.7720   21.5874 C.3     1  UNL1        0.0722
     18 N          -1.4793  -17.8535   20.4251 N.3     1  UNL1       -0.2727
     19 C          -2.4499  -17.8268   19.2817 C.3     1  UNL1        0.0722
     20 C          -3.6560  -18.7186   19.3007 C.3     1  UNL1        0.0210
     21 C          -2.1544  -18.3238   20.3908 C.3     1  UNL1        0.0722
     22 C          -3.2449  -19.1301   20.4078 C.3     1  UNL1        0.0210
@<TRIPOS>BOND
     1     1     2    2
     2     2    13    1
     3    13    14    1
     4    14    15    1
     5    15    16    1
     6    16    17    1
     7    17    18    1
     8    18    19    1
     9    19    20    1
    10    18    21    1
    11    21    22    1
    12     2     3    1
    13     3     4    2
    14     4     5    1
    15     5     6    2
    16     6     7    1
    17     7     8    1
    18     8     9    1
    19     8    10    2
    20    10    11    1
    21    11    12    2
    22    20    15    1
    23    12     3    1
    24    22    15    1
    25    12     6    1
@<TRIPOS>MOLECULE
*****
 22 25 0 0 0
SMALL
GASTEIGER

@<TRIPOS>ATOM
      1 O          -8.0541  -17.3636   23.1547 O.2     1  UNL1       -0.2448
      2 C          -7.9180  -18.8302   22.8713 C.2     1  UNL1        0.3428
      3 C          -6.8533  -19.3173   21.9337 C.2     1  UNL1        0.0958
      4 C          -7.0602  -20.2340   20.7645 C.2     1  UNL1        0.1049
      5 N          -5.7296  -20.4565   20.1089 N.2     1  UNL1       -0.2475
      6 C          -4.7003  -19.6773   20.8728 C.2     1  UNL1        0.0660
      7 C          -3.2204  -19.5180   20.6872 C.3     1  UNL1        0.1022
      8 C          -2.4351  -18.6546   21.6293 C.2     1  UNL1        0.1236
      9 F          -0.9551  -18.4953   21.4437 F       1  UNL1       -0.2085
     10 C          -3.1296  -17.9506   22.7571 C.2     1  UNL1        0.0256
     11 C          -4.6095  -18.1099   22.9428 C.2     1  UNL1        0.0034
     12 C          -5.3948  -18.9733   22.0006 C.2     1  UNL1        0.0218
     13 O          -8.8466  -19.8098   23.5257 O.3     1  UNL1       -0.4454
     14 C         -10.1375  -20.1807   22.8577 C.3     1  UNL1        0.2087
     15 C         -10.8992  -19.1527   22.0748 C.3     1  UNL1        0.0445
     16 C         -11.9543  -18.3267   22.7489 C.3     1  UNL1        0.0210
     17 C         -12.7159  -17.2987   21.9659 C.3     1  UNL1        0.0722
     18 N         -12.4225  -17.0967   20.5088 N.3     1  UNL1       -0.2727
     19 C         -11.3674  -17.9227   19.8347 C.3     1  UNL1        0.0722
     20 C         -10.6057  -18.9508   20.6177 C.3     1  UNL1        0.0210
     21 C         -11.9790  -17.6721   20.8965 C.3     1  UNL1        0.0722
     22 C         -11.2903  -18.6016   21.6044 C.3     1  UNL1        0.0210
@<TRIPOS>BOND
     1     1     2    2
     2     2    13    1
     3    13    14    1
     4    14    15    1
     5    15    16    1
     6    16    17    1
     7    17    18    1
     8    18    19    1
     9    19    20    1
    10    18    21    1
    11    21    22    1
    12     2     3    1
    13     3     4    2
    14     4     5    1
    15     5     6    2
    16     6     7    1
    17     7     8    1
    18     8     9    1
    19     8    10    2
    20    10    11    1
    21    11    12    2
    22    20    15    1
    23    12     3    1
    24    22    15    1
    25    12     6    1
@<TRIPOS>MOLECULE
*****
 22 25 0 0 0
SMALL
GASTEIGER

@<TRIPOS>ATOM
      1 O          -8.9596  -20.0927   22.9647 O.2     1  UNL1       -0.2448
      2 C          -8.1710  -19.4946   21.8377 C.2     1  UNL1        0.3428
      3 C          -6.8794  -18.7858   22.1193 C.2     1  UNL1        0.0958
      4 C          -6.7015  -17.6051   23.0272 C.2     1  UNL1        0.1049
      5 N          -5.2511  -17.2228   23.0115 N.2     1  UNL1       -0.2475
      6 C          -4.5327  -18.1672   22.0939 C.2     1  UNL1        0.0660
      7 C          -3.0922  -18.2723   21.6892 C.3     1  UNL1        0.1022
      8 C          -2.6580  -19.3435   20.7331 C.2     1  UNL1        0.1236
      9 F          -1.2174  -19.4486   20.3284 F       1  UNL1       -0.2085
     10 C          -3.6644  -20.3094   20.1817 C.2     1  UNL1        0.0256
     11 C          -5.1049  -20.2043   20.5864 C.2     1  UNL1        0.0034
     12 C          -5.5390  -19.1332   21.5425 C.2     1  UNL1        0.0218
     13 O          -8.6740  -19.6055   20.4288 O.3     1  UNL1       -0.4454
     14 C         -10.1489  -19.6588   20.1610 C.3     1  UNL1        0.2087
     15 C         -11.0303  -18.5230   20.5887 C.3     1  UNL1        0.0445
     16 C         -11.8200  -18.6239   21.8600 C.3     1  UNL1        0.0210
     17 C         -12.7013  -17.4880   22.2876 C.3     1  UNL1        0.0722
     18 N         -12.7931  -16.2511   21.4440 N.3     1  UNL1       -0.2727
     19 C         -12.0034  -16.1501   20.1727 C.3     1  UNL1        0.0722
     20 C         -11.1220  -17.2861   19.7450 C.3     1  UNL1        0.0210
     21 C         -12.2966  -16.8475   21.1686 C.3     1  UNL1        0.0722
     22 C         -11.4997  -17.8746   20.7819 C.3     1  UNL1        0.0210
@<TRIPOS>BOND
     1     1     2    2
     2     2    13    1
     3    13    14    1
     4    14    15    1
     5    15    16    1
     6    16    17    1
     7    17    18    1
     8    18    19    1
     9    19    20    1
    10    18    21    1
    11    21    22    1
    12     2     3    1
    13     3     4    2
    14     4     5    1
    15     5     6    2
    16     6     7    1
    17     7     8    1
    18     8     9    1
    19     8    10    2
    20    10    11    1
    21    11    12    2
    22    20    15    1
    23    12     3    1
    24    22    15    1
    25    12     6    1
@<TRIPOS>MOLECULE
*****
 22 25 0 0 0
SMALL
GASTEIGER

@<TRIPOS>ATOM
      1 O          -8.9860  -20.7398   23.8729 O.2     1  UNL1       -0.2448
      2 C          -9.0349  -19.7400   22.7558 C.2     1  UNL1        0.3428
      3 C          -8.5520  -18.3380   22.9823 C.2     1  UNL1        0.0958
      4 C          -7.9294  -17.4428   21.9523 C.2     1  UNL1        0.1049
      5 N          -7.5996  -16.1367   22.6120 N.2     1  UNL1       -0.2475
      6 C          -8.0183  -16.2246   24.0496 C.2     1  UNL1        0.0660
      7 C          -7.9397  -15.2417   25.1799 C.3     1  UNL1        0.1022
      8 C          -8.4497  -15.6192   26.5390 C.2     1  UNL1        0.1236
      9 F          -8.3711  -14.6362   27.6693 F       1  UNL1       -0.2085
     10 C          -9.0384  -16.9798   26.7679 C.2     1  UNL1        0.0256
     11 C          -9.1170  -17.9628   25.6376 C.2     1  UNL1        0.0034
     12 C          -8.6070  -17.5852   24.2785 C.2     1  UNL1        0.0218
     13 O          -9.5668  -20.1423   21.4121 O.3     1  UNL1       -0.4454
     14 C         -10.9903  -19.8405   21.0480 C.3     1  UNL1        0.2087
     15 C         -11.6265  -18.5617   21.5058 C.3     1  UNL1        0.0445
     16 C         -11.5992  -17.3513   20.6203 C.3     1  UNL1        0.0210
     17 C         -12.2355  -16.0724   21.0782 C.3     1  UNL1        0.0722
     18 N         -12.8991  -16.0039   22.4217 N.3     1  UNL1       -0.2727
     19 C         -12.9265  -17.2143   23.3073 C.3     1  UNL1        0.0722
     20 C         -12.2901  -18.4932   22.8493 C.3     1  UNL1        0.0210
     21 C         -12.5639  -16.7268   22.2141 C.3     1  UNL1        0.0722
     22 C         -11.9886  -17.8832   21.8001 C.3     1  UNL1        0.0210
@<TRIPOS>BOND
     1     1     2    2
     2     2    13    1
     3    13    14    1
     4    14    15    1
     5    15    16    1
     6    16    17    1
     7    17    18    1
     8    18    19    1
     9    19    20    1
    10    18    21    1
    11    21    22    1
    12     2     3    1
    13     3     4    2
    14     4     5    1
    15     5     6    2
    16     6     7    1
    17     7     8    1
    18     8     9    1
    19     8    10    2
    20    10    11    1
    21    11    12    2
    22    20    15    1
    23    12     3    1
    24    22    15    1
    25    12     6    1
