@<TRIPOS>MOLECULE
*****
 28 29 0 0 0
SMALL
GASTEIGER

@<TRIPOS>ATOM
      1 C          -9.9853  -19.0495   21.4828 C.ar    1  UNL1        0.1203
      2 N          -9.1673  -19.2981   20.2503 N.ar    1  UNL1       -0.2310
      3 C          -7.7225  -19.1095   20.6070 C.ar    1  UNL1        0.0983
      4 C          -6.4655  -19.2231   19.7965 C.ar    1  UNL1        0.0206
      5 C          -5.1336  -18.9715   20.4389 C.ar    1  UNL1        0.0017
      6 C          -5.0588  -18.6064   21.8919 C.ar    1  UNL1        0.0016
      7 C          -6.3158  -18.4928   22.7024 C.ar    1  UNL1        0.0188
      8 C          -7.6477  -18.7444   22.0599 C.ar    1  UNL1        0.0786
      9 N          -9.0461  -18.7073   22.6012 N.ar    1  UNL1       -0.3134
     10 C          -3.8765  -19.0851   19.6284 C.2     1  UNL1        0.0048
     11 C          -2.8306  -18.0133   19.7124 C.2     1  UNL1        0.0598
     12 C          -1.5735  -18.1269   18.9019 C.2     1  UNL1        0.2679
     13 O          -0.3023  -18.5891   19.5503 O.2     1  UNL1       -0.2681
     14 N          -1.5876  -17.7782   17.4431 N.am    1  UNL1       -0.1934
     15 O          -0.3305  -17.8918   16.6327 O.3     1  UNL1       -0.2949
     16 H          -2.4219  -17.4748   17.0175 H       1  UNL1        0.1825
     17 H           0.3929  -18.2017   17.1997 H       1  UNL1        0.2414
     18 C         -11.4800  -19.1291   21.5798 C.3     1  UNL1        0.0639
     19 C         -12.3092  -17.8897   21.4180 C.3     1  UNL1        0.0079
     20 C         -13.0848  -17.3489   22.5824 C.3     1  UNL1        0.0005
     21 C         -13.1670  -18.1336   23.8582 C.3     1  UNL1        0.0000
     22 C         -14.5047  -18.4790   26.0585 C.3     1  UNL1        0.0000
     23 C         -14.4786  -18.2662   24.5740 C.3     1  UNL1        0.0000
     24 C          -9.4368  -18.3846   24.0130 C.3     1  UNL1        0.1245
     25 C          -9.6831  -16.9611   24.4164 C.3     1  UNL1        0.0970
     26 N          -8.6109  -16.1854   25.1226 N.3     1  UNL1       -0.2687
     27 C          -7.7898  -15.1826   24.3675 C.3     1  UNL1        0.0897
     28 C          -8.3598  -16.4124   26.5839 C.3     1  UNL1        0.0897
@<TRIPOS>BOND
     1    22    23    1
     2    23    21    1
     3    21    20    1
     4    20    19    1
     5    19    18    1
     6    18     1    1
     7     1     2   ar
     8     2     3   ar
     9     3     4   ar
    10     4     5   ar
    11     5    10    1
    12    10    11    2
    13    11    12    1
    14    12    13    2
    15    12    14   am
    16    14    15    1
    17     5     6   ar
    18     6     7   ar
    19     7     8   ar
    20     8     9   ar
    21     9    24    1
    22    24    25    1
    23    25    26    1
    24    26    27    1
    25    26    28    1
    26     9     1   ar
    27     8     3   ar
    28    14    16    1
    29    15    17    1
@<TRIPOS>MOLECULE
*****
 28 29 0 0 0
SMALL
GASTEIGER

@<TRIPOS>ATOM
      1 C          -9.9443  -19.3362   22.0504 C.ar    1  UNL1        0.1203
      2 N          -9.1841  -19.6781   20.8034 N.ar    1  UNL1       -0.2310
      3 C          -7.7527  -19.2793   21.0091 C.ar    1  UNL1        0.0983
      4 C          -6.5466  -19.3759   20.1226 C.ar    1  UNL1        0.0206
      5 C          -5.2161  -18.8841   20.6103 C.ar    1  UNL1        0.0017
      6 C          -5.0918  -18.2958   21.9845 C.ar    1  UNL1        0.0016
      7 C          -6.2979  -18.1991   22.8710 C.ar    1  UNL1        0.0188
      8 C          -7.6284  -18.6909   22.3832 C.ar    1  UNL1        0.0786
      9 N          -8.9829  -18.7261   23.0268 N.ar    1  UNL1       -0.3134
     10 C          -4.0099  -18.9808   19.7239 C.2     1  UNL1        0.0048
     11 C          -2.8178  -18.1077   19.9818 C.2     1  UNL1        0.0598
     12 C          -1.6115  -18.2043   19.0953 C.2     1  UNL1        0.2679
     13 O          -0.3190  -18.7333   19.6426 O.2     1  UNL1       -0.2681
     14 N          -1.6978  -17.7719   17.6616 N.am    1  UNL1       -0.1934
     15 O          -0.4916  -17.8685   16.7752 O.3     1  UNL1       -0.2949
     16 H          -2.5461  -17.4247   17.3024 H       1  UNL1        0.1825
     17 H           0.2537  -18.2278   17.2815 H       1  UNL1        0.2414
     18 C         -11.4089  -19.5643   22.2806 C.3     1  UNL1        0.0639
     19 C         -12.4040  -18.5186   21.8730 C.3     1  UNL1        0.0079
     20 C         -12.5751  -17.2817   22.7041 C.3     1  UNL1        0.0005
     21 C         -12.1159  -15.9545   22.1769 C.3     1  UNL1        0.0000
     22 C         -11.4339  -15.8658   19.6715 C.3     1  UNL1        0.0000
     23 C         -11.0516  -15.8942   21.1217 C.3     1  UNL1        0.0000
     24 C          -9.3172  -18.2370   24.4049 C.3     1  UNL1        0.1245
     25 C          -9.4813  -16.7681   24.6601 C.3     1  UNL1        0.0970
     26 N          -8.3954  -16.0016   25.3555 N.3     1  UNL1       -0.2687
     27 C          -8.2095  -16.1417   26.8373 C.3     1  UNL1        0.0897
     28 C          -7.4956  -15.0952   24.5690 C.3     1  UNL1        0.0897
@<TRIPOS>BOND
     1    22    23    1
     2    23    21    1
     3    21    20    1
     4    20    19    1
     5    19    18    1
     6    18     1    1
     7     1     2   ar
     8     2     3   ar
     9     3     4   ar
    10     4     5   ar
    11     5    10    1
    12    10    11    2
    13    11    12    1
    14    12    13    2
    15    12    14   am
    16    14    15    1
    17     5     6   ar
    18     6     7   ar
    19     7     8   ar
    20     8     9   ar
    21     9    24    1
    22    24    25    1
    23    25    26    1
    24    26    27    1
    25    26    28    1
    26     9     1   ar
    27     8     3   ar
    28    14    16    1
    29    15    17    1
@<TRIPOS>MOLECULE
*****
 28 29 0 0 0
SMALL
GASTEIGER

@<TRIPOS>ATOM
      1 C          -8.5363  -17.5923   23.7739 C.ar    1  UNL1        0.1203
      2 N          -7.2622  -17.0522   23.1952 N.ar    1  UNL1       -0.2310
      3 C          -6.6857  -18.0976   22.2870 C.ar    1  UNL1        0.0983
      4 C          -5.4437  -18.1226   21.4464 C.ar    1  UNL1        0.0206
      5 C          -5.1195  -19.3339   20.6232 C.ar    1  UNL1        0.0017
      6 C          -6.0373  -20.5202   20.6407 C.ar    1  UNL1        0.0016
      7 C          -7.2794  -20.4952   21.4813 C.ar    1  UNL1        0.0188
      8 C          -7.6036  -19.2839   22.3044 C.ar    1  UNL1        0.0786
      9 N          -8.7472  -18.9716   23.2234 N.ar    1  UNL1       -0.3134
     10 C          -3.8774  -19.3589   19.7825 C.2     1  UNL1        0.0048
     11 C          -2.8859  -18.2373   19.8759 C.2     1  UNL1        0.0598
     12 C          -1.6438  -18.2623   19.0352 C.2     1  UNL1        0.2679
     13 O          -0.3580  -18.7762   19.6120 O.2     1  UNL1       -0.2681
     14 N          -1.6875  -17.7735   17.6178 N.am    1  UNL1       -0.1934
     15 O          -0.4454  -17.7986   16.7772 O.3     1  UNL1       -0.2949
     16 H          -2.5314  -17.4362   17.2392 H       1  UNL1        0.1825
     17 H           0.2903  -18.1569   17.2980 H       1  UNL1        0.2414
     18 C          -9.4406  -16.8785   24.7345 C.3     1  UNL1        0.0639
     19 C          -8.9428  -15.6765   25.4811 C.3     1  UNL1        0.0079
     20 C          -8.3942  -15.8297   26.8688 C.3     1  UNL1        0.0005
     21 C          -7.0383  -15.2825   27.2039 C.3     1  UNL1        0.0000
     22 C          -5.2221  -15.1111   25.3540 C.3     1  UNL1        0.0000
     23 C          -5.8189  -15.8329   26.5257 C.3     1  UNL1        0.0000
     24 C          -9.8996  -19.8793   23.5369 C.3     1  UNL1        0.1245
     25 C         -11.0620  -19.9688   22.5932 C.3     1  UNL1        0.0970
     26 N         -11.2641  -18.9106   21.5495 N.3     1  UNL1       -0.2687
     27 C         -12.0605  -17.6812   21.8723 C.3     1  UNL1        0.0897
     28 C         -10.6699  -19.0818   20.1829 C.3     1  UNL1        0.0897
@<TRIPOS>BOND
     1    22    23    1
     2    23    21    1
     3    21    20    1
     4    20    19    1
     5    19    18    1
     6    18     1    1
     7     1     2   ar
     8     2     3   ar
     9     3     4   ar
    10     4     5   ar
    11     5    10    1
    12    10    11    2
    13    11    12    1
    14    12    13    2
    15    12    14   am
    16    14    15    1
    17     5     6   ar
    18     6     7   ar
    19     7     8   ar
    20     8     9   ar
    21     9    24    1
    22    24    25    1
    23    25    26    1
    24    26    27    1
    25    26    28    1
    26     9     1   ar
    27     8     3   ar
    28    14    16    1
    29    15    17    1
@<TRIPOS>MOLECULE
*****
 28 29 0 0 0
SMALL
GASTEIGER

@<TRIPOS>ATOM
      1 C          -9.4743  -19.9147   22.7994 C.ar    1  UNL1        0.1203
      2 N          -8.0258  -19.9410   23.1883 N.ar    1  UNL1       -0.2310
      3 C          -7.2086  -19.7477   21.9455 C.ar    1  UNL1        0.0983
      4 C          -5.7273  -19.6855   21.7179 C.ar    1  UNL1        0.0206
      5 C          -5.1893  -19.4776   20.3332 C.ar    1  UNL1        0.0017
      6 C          -6.1327  -19.3319   19.1761 C.ar    1  UNL1        0.0016
      7 C          -7.6140  -19.3940   19.4037 C.ar    1  UNL1        0.0188
      8 C          -8.1519  -19.6019   20.7884 C.ar    1  UNL1        0.0786
      9 N          -9.5522  -19.7052   21.3162 N.ar    1  UNL1       -0.3134
     10 C          -3.7080  -19.4154   20.1056 C.2     1  UNL1        0.0048
     11 C          -3.0331  -18.0891   19.9174 C.2     1  UNL1        0.0598
     12 C          -1.5517  -18.0269   19.6898 C.2     1  UNL1        0.2679
     13 O          -1.0033  -18.1038   18.2957 O.2     1  UNL1       -0.2681
     14 N          -0.6189  -17.8879   20.8561 N.am    1  UNL1       -0.1934
     15 O           0.8624  -17.8257   20.6284 O.3     1  UNL1       -0.2949
     16 H          -0.9788  -17.8375   21.7711 H       1  UNL1        0.1825
     17 H           1.0464  -17.8883   19.6781 H       1  UNL1        0.2414
     18 C         -10.6401  -20.0707   23.7303 C.3     1  UNL1        0.0639
     19 C         -11.0503  -18.9317   24.6159 C.3     1  UNL1        0.0079
     20 C         -10.0209  -18.2082   25.4325 C.3     1  UNL1        0.0005
     21 C          -9.2248  -17.0942   24.8197 C.3     1  UNL1        0.0000
     22 C          -8.9328  -16.2760   22.3712 C.3     1  UNL1        0.0000
     23 C          -9.7559  -16.3636   23.6221 C.3     1  UNL1        0.0000
     24 C         -10.8097  -19.6148   20.5034 C.3     1  UNL1        0.1245
     25 C         -11.0823  -18.3931   19.6769 C.3     1  UNL1        0.0970
     26 N         -11.8315  -17.2374   20.2711 N.3     1  UNL1       -0.2687
     27 C         -11.7072  -15.8713   19.6642 C.3     1  UNL1        0.0897
     28 C         -12.7049  -17.4477   21.4723 C.3     1  UNL1        0.0897
@<TRIPOS>BOND
     1    22    23    1
     2    23    21    1
     3    21    20    1
     4    20    19    1
     5    19    18    1
     6    18     1    1
     7     1     2   ar
     8     2     3   ar
     9     3     4   ar
    10     4     5   ar
    11     5    10    1
    12    10    11    2
    13    11    12    1
    14    12    13    2
    15    12    14   am
    16    14    15    1
    17     5     6   ar
    18     6     7   ar
    19     7     8   ar
    20     8     9   ar
    21     9    24    1
    22    24    25    1
    23    25    26    1
    24    26    27    1
    25    26    28    1
    26     9     1   ar
    27     8     3   ar
    28    14    16    1
    29    15    17    1
@<TRIPOS>MOLECULE
*****
 28 29 0 0 0
SMALL
GASTEIGER

@<TRIPOS>ATOM
      1 C          -4.9504  -19.8145   21.2868 C.ar    1  UNL1        0.1203
      2 N          -6.2990  -20.3860   20.9635 N.ar    1  UNL1       -0.2310
      3 C          -7.3351  -19.5456   21.6492 C.ar    1  UNL1        0.0983
      4 C          -8.8320  -19.6327   21.6898 C.ar    1  UNL1        0.0206
      5 C          -9.6206  -18.6290   22.4775 C.ar    1  UNL1        0.0017
      6 C          -8.9122  -17.5381   23.2247 C.ar    1  UNL1        0.0016
      7 C          -7.4154  -17.4509   23.1840 C.ar    1  UNL1        0.0188
      8 C          -6.6268  -18.4547   22.3963 C.ar    1  UNL1        0.0786
      9 N          -5.1530  -18.6209   22.1723 N.ar    1  UNL1       -0.3134
     10 C         -11.1175  -18.7161   22.5182 C.2     1  UNL1        0.0048
     11 C         -11.8708  -18.1429   23.6817 C.2     1  UNL1        0.0598
     12 C         -13.3678  -18.2300   23.7224 C.2     1  UNL1        0.2679
     13 O         -14.1624  -18.0802   22.4589 O.2     1  UNL1       -0.2681
     14 N         -14.0702  -18.4669   25.0264 N.am    1  UNL1       -0.1934
     15 O         -15.5670  -18.5540   25.0670 O.3     1  UNL1       -0.2949
     16 H         -13.5487  -18.5652   25.8556 H       1  UNL1        0.1825
     17 H         -15.9221  -18.4366   24.1720 H       1  UNL1        0.2414
     18 C          -3.6308  -20.3438   20.8085 C.3     1  UNL1        0.0639
     19 C          -2.9402  -19.6961   19.6451 C.3     1  UNL1        0.0079
     20 C          -3.3596  -18.3299   19.1896 C.3     1  UNL1        0.0005
     21 C          -2.3619  -17.2101   19.1599 C.3     1  UNL1        0.0000
     22 C           0.0607  -17.7414   19.9335 C.3     1  UNL1        0.0000
     23 C          -1.2855  -17.1368   20.2020 C.3     1  UNL1        0.0000
     24 C          -4.0716  -17.7469   22.7351 C.3     1  UNL1        0.1245
     25 C          -4.1103  -17.3413   24.1786 C.3     1  UNL1        0.0970
     26 N          -4.7885  -16.0654   24.5813 N.3     1  UNL1       -0.2687
     27 C          -5.2517  -15.8762   25.9954 C.3     1  UNL1        0.0897
     28 C          -5.0035  -14.9787   23.5699 C.3     1  UNL1        0.0897
@<TRIPOS>BOND
     1    22    23    1
     2    23    21    1
     3    21    20    1
     4    20    19    1
     5    19    18    1
     6    18     1    1
     7     1     2   ar
     8     2     3   ar
     9     3     4   ar
    10     4     5   ar
    11     5    10    1
    12    10    11    2
    13    11    12    1
    14    12    13    2
    15    12    14   am
    16    14    15    1
    17     5     6   ar
    18     6     7   ar
    19     7     8   ar
    20     8     9   ar
    21     9    24    1
    22    24    25    1
    23    25    26    1
    24    26    27    1
    25    26    28    1
    26     9     1   ar
    27     8     3   ar
    28    14    16    1
    29    15    17    1
@<TRIPOS>MOLECULE
*****
 28 29 0 0 0
SMALL
GASTEIGER

@<TRIPOS>ATOM
      1 C         -12.7091   -3.3157   18.8691 C.ar    1  UNL1        0.1203
      2 N         -13.8809   -3.7158   19.7157 N.ar    1  UNL1       -0.2310
      3 C         -14.5122   -4.9251   19.0918 C.ar    1  UNL1        0.0983
      4 C         -15.6978   -5.7548   19.4865 C.ar    1  UNL1        0.0206
      5 C         -16.1016   -6.9318   18.6490 C.ar    1  UNL1        0.0017
      6 C         -15.3199   -7.2791   17.4168 C.ar    1  UNL1        0.0016
      7 C         -14.1344   -6.4493   17.0221 C.ar    1  UNL1        0.0188
      8 C         -13.7305   -5.2723   17.8596 C.ar    1  UNL1        0.0786
      9 N         -12.6161   -4.2777   17.7220 N.ar    1  UNL1       -0.3134
     10 C         -17.2873   -7.7617   19.0437 C.2     1  UNL1        0.0048
     11 C         -17.8375   -8.7833   18.0932 C.2     1  UNL1        0.0598
     12 C         -19.0232   -9.6132   18.4879 C.2     1  UNL1        0.2679
     13 O         -20.0000   -9.0919   19.4999 O.2     1  UNL1       -0.2681
     14 N         -19.2319  -10.9642   17.8706 N.am    1  UNL1       -0.1934
     15 O         -20.4175  -11.7940   18.2653 O.3     1  UNL1       -0.2949
     16 H         -18.5908  -11.3063   17.2064 H       1  UNL1        0.1825
     17 H         -20.9434  -11.3137   18.9239 H       1  UNL1        0.2414
     18 C         -11.7914   -2.1570   19.1248 C.3     1  UNL1        0.0639
     19 C         -12.0440   -0.8384   18.4559 C.3     1  UNL1        0.0079
     20 C         -13.3419   -0.5947   17.7446 C.3     1  UNL1        0.0005
     21 C         -14.3982    0.2581   18.3826 C.3     1  UNL1        0.0000
     22 C         -16.0466   -0.6427   20.1774 C.3     1  UNL1        0.0000
     23 C         -15.7263   -0.3381   18.7440 C.3     1  UNL1        0.0000
     24 C         -11.5891   -4.2499   16.6291 C.3     1  UNL1        0.1245
     25 C         -10.3639   -5.1093   16.7292 C.3     1  UNL1        0.0970
     26 N         -10.1671   -5.9991   17.9206 N.3     1  UNL1       -0.2687
     27 C          -9.5761   -5.4433   19.1823 C.3     1  UNL1        0.0897
     28 C         -10.5613   -7.4446   17.8504 C.3     1  UNL1        0.0897
@<TRIPOS>BOND
     1    22    23    1
     2    23    21    1
     3    21    20    1
     4    20    19    1
     5    19    18    1
     6    18     1    1
     7     1     2   ar
     8     2     3   ar
     9     3     4   ar
    10     4     5   ar
    11     5    10    1
    12    10    11    2
    13    11    12    1
    14    12    13    2
    15    12    14   am
    16    14    15    1
    17     5     6   ar
    18     6     7   ar
    19     7     8   ar
    20     8     9   ar
    21     9    24    1
    22    24    25    1
    23    25    26    1
    24    26    27    1
    25    26    28    1
    26     9     1   ar
    27     8     3   ar
    28    14    16    1
    29    15    17    1
@<TRIPOS>MOLECULE
*****
 28 29 0 0 0
SMALL
GASTEIGER

@<TRIPOS>ATOM
      1 C          -5.5776  -19.2600   20.9535 C.ar    1  UNL1        0.1203
      2 N          -5.1345  -18.2982   22.0159 N.ar    1  UNL1       -0.2310
      3 C          -6.3599  -17.6875   22.6286 C.ar    1  UNL1        0.0983
      4 C          -6.5377  -16.6748   23.7208 C.ar    1  UNL1        0.0206
      5 C          -7.9160  -16.2465   24.1292 C.ar    1  UNL1        0.0017
      6 C          -9.1164  -16.8308   23.4454 C.ar    1  UNL1        0.0016
      7 C          -8.9386  -17.8434   22.3533 C.ar    1  UNL1        0.0188
      8 C          -7.5604  -18.2718   21.9449 C.ar    1  UNL1        0.0786
      9 N          -7.0769  -19.2436   20.9096 N.ar    1  UNL1       -0.3134
     10 C          -8.0939  -15.2337   25.2214 C.2     1  UNL1        0.0048
     11 C          -7.5238  -15.4927   26.5844 C.2     1  UNL1        0.0598
     12 C          -7.7017  -14.4800   27.6766 C.2     1  UNL1        0.2679
     13 O          -9.0354  -14.3244   28.3452 O.2     1  UNL1       -0.2681
     14 N          -6.5458  -13.6230   28.1003 N.am    1  UNL1       -0.1934
     15 O          -6.7237  -12.6104   29.1924 O.3     1  UNL1       -0.2949
     16 H          -5.6704  -13.7251   27.6615 H       1  UNL1        0.1825
     17 H          -7.6384  -12.6390   29.5140 H       1  UNL1        0.2414
     18 C          -4.6792  -20.0920   20.0871 C.3     1  UNL1        0.0639
     19 C          -3.1984  -19.8528   20.0945 C.3     1  UNL1        0.0079
     20 C          -2.5944  -18.8593   19.1467 C.3     1  UNL1        0.0005
     21 C          -2.4866  -17.4161   19.5412 C.3     1  UNL1        0.0000
     22 C          -2.1514  -16.2346   21.8307 C.3     1  UNL1        0.0000
     23 C          -1.5931  -17.0139   20.6770 C.3     1  UNL1        0.0000
     24 C          -7.9410  -20.0564   19.9916 C.3     1  UNL1        0.1245
     25 C          -9.0418  -19.3951   19.2167 C.3     1  UNL1        0.0970
     26 N         -10.3635  -19.1252   19.8728 N.3     1  UNL1       -0.2687
     27 C         -10.9407  -20.1212   20.8345 C.3     1  UNL1        0.0897
     28 C         -11.1080  -17.8594   19.5671 C.3     1  UNL1        0.0897
@<TRIPOS>BOND
     1    22    23    1
     2    23    21    1
     3    21    20    1
     4    20    19    1
     5    19    18    1
     6    18     1    1
     7     1     2   ar
     8     2     3   ar
     9     3     4   ar
    10     4     5   ar
    11     5    10    1
    12    10    11    2
    13    11    12    1
    14    12    13    2
    15    12    14   am
    16    14    15    1
    17     5     6   ar
    18     6     7   ar
    19     7     8   ar
    20     8     9   ar
    21     9    24    1
    22    24    25    1
    23    25    26    1
    24    26    27    1
    25    26    28    1
    26     9     1   ar
    27     8     3   ar
    28    14    16    1
    29    15    17    1
@<TRIPOS>MOLECULE
*****
 28 29 0 0 0
SMALL
GASTEIGER

@<TRIPOS>ATOM
      1 C          -0.9771    2.6236   20.3459 C.ar    1  UNL1        0.1203
      2 N          -0.6114    1.3346   21.0203 N.ar    1  UNL1       -0.2310
      3 C           0.5469    0.7358   20.2788 C.ar    1  UNL1        0.0983
      4 C           1.3280   -0.5274   20.4887 C.ar    1  UNL1        0.0206
      5 C           2.4592   -0.8718   19.5658 C.ar    1  UNL1        0.0017
      6 C           2.8093    0.0471   18.4331 C.ar    1  UNL1        0.0016
      7 C           2.0282    1.3103   18.2232 C.ar    1  UNL1        0.0188
      8 C           0.8970    1.6547   19.1461 C.ar    1  UNL1        0.0786
      9 N          -0.0449    2.8213   19.1875 N.ar    1  UNL1       -0.3134
     10 C           3.2403   -2.1351   19.7757 C.2     1  UNL1        0.0048
     11 C           4.2900   -2.1989   20.8453 C.2     1  UNL1        0.0598
     12 C           5.0711   -3.4622   21.0552 C.2     1  UNL1        0.2679
     13 O           4.3938   -4.6789   21.6127 O.2     1  UNL1       -0.2681
     14 N           6.5295   -3.5087   20.7076 N.am    1  UNL1       -0.1934
     15 O           7.3106   -4.7719   20.9175 O.3     1  UNL1       -0.2949
     16 H           6.9741   -2.7101   20.3417 H       1  UNL1        0.1825
     17 H           6.7272   -5.4561   21.2813 H       1  UNL1        0.2414
     18 C          -2.0812    3.5518   20.7576 C.3     1  UNL1        0.0639
     19 C          -3.4822    3.3092   20.2797 C.3     1  UNL1        0.0079
     20 C          -4.5766    3.0416   21.2700 C.3     1  UNL1        0.0005
     21 C          -4.7416    3.9335   22.4647 C.3     1  UNL1        0.0000
     22 C          -5.0429    3.6599   25.0307 C.3     1  UNL1        0.0000
     23 C          -4.2017    3.5085   23.7981 C.3     1  UNL1        0.0000
     24 C          -0.0531    3.9820   18.2374 C.3     1  UNL1        0.1245
     25 C          -0.8803    3.9224   16.9876 C.3     1  UNL1        0.0970
     26 N          -2.2773    4.4686   16.9860 N.3     1  UNL1       -0.2687
     27 C          -3.3976    3.6610   16.4007 C.3     1  UNL1        0.0897
     28 C          -2.5540    5.8224   17.5696 C.3     1  UNL1        0.0897
@<TRIPOS>BOND
     1    22    23    1
     2    23    21    1
     3    21    20    1
     4    20    19    1
     5    19    18    1
     6    18     1    1
     7     1     2   ar
     8     2     3   ar
     9     3     4   ar
    10     4     5   ar
    11     5    10    1
    12    10    11    2
    13    11    12    1
    14    12    13    2
    15    12    14   am
    16    14    15    1
    17     5     6   ar
    18     6     7   ar
    19     7     8   ar
    20     8     9   ar
    21     9    24    1
    22    24    25    1
    23    25    26    1
    24    26    27    1
    25    26    28    1
    26     9     1   ar
    27     8     3   ar
    28    14    16    1
    29    15    17    1
@<TRIPOS>MOLECULE
*****
 28 29 0 0 0
SMALL
GASTEIGER

@<TRIPOS>ATOM
      1 C          -0.4792    2.6775   24.1765 C.ar    1  UNL1        0.1203
      2 N           0.6095    1.6611   23.9986 N.ar    1  UNL1       -0.2310
      3 C           0.8070    1.4460   22.5273 C.ar    1  UNL1        0.0983
      4 C           1.7422    0.5598   21.7591 C.ar    1  UNL1        0.0206
      5 C           1.7106    0.5571   20.2595 C.ar    1  UNL1        0.0017
      6 C           0.7439    1.4405   19.5280 C.ar    1  UNL1        0.0016
      7 C          -0.1912    2.3267   20.2962 C.ar    1  UNL1        0.0188
      8 C          -0.1597    2.3294   21.7958 C.ar    1  UNL1        0.0786
      9 N          -0.9546    3.0905   22.8151 N.ar    1  UNL1       -0.3134
     10 C           2.6458   -0.3291   19.4912 C.2     1  UNL1        0.0048
     11 C           3.2806    0.1678   18.2263 C.2     1  UNL1        0.0598
     12 C           4.2157   -0.7185   17.4580 C.2     1  UNL1        0.2679
     13 O           3.8258   -1.2221   16.1000 O.2     1  UNL1       -0.2681
     14 N           5.5408   -1.1009   18.0478 N.am    1  UNL1       -0.1934
     15 O           6.4759   -1.9871   17.2796 O.3     1  UNL1       -0.2949
     16 H           5.7967   -0.7704   18.9391 H       1  UNL1        0.1825
     17 H           6.0738   -2.2208   16.4283 H       1  UNL1        0.2414
     18 C          -1.0009    3.1907   25.4858 C.3     1  UNL1        0.0639
     19 C          -1.2622    2.2379   26.6144 C.3     1  UNL1        0.0079
     20 C          -0.2534    2.0826   27.7136 C.3     1  UNL1        0.0005
     21 C           0.3568    0.7399   27.9874 C.3     1  UNL1        0.0000
     22 C          -1.8004    0.0123   29.2390 C.3     1  UNL1        0.0000
     23 C          -0.4014   -0.2802   28.7839 C.3     1  UNL1        0.0000
     24 C          -2.0352    4.0894   22.5240 C.3     1  UNL1        0.1245
     25 C          -3.3789    3.6232   22.0478 C.3     1  UNL1        0.0970
     26 N          -3.8170    3.9087   20.6419 N.3     1  UNL1       -0.2687
     27 C          -2.9671    4.7652   19.7508 C.3     1  UNL1        0.0897
     28 C          -5.1049    3.3376   20.1270 C.3     1  UNL1        0.0897
@<TRIPOS>BOND
     1    22    23    1
     2    23    21    1
     3    21    20    1
     4    20    19    1
     5    19    18    1
     6    18     1    1
     7     1     2   ar
     8     2     3   ar
     9     3     4   ar
    10     4     5   ar
    11     5    10    1
    12    10    11    2
    13    11    12    1
    14    12    13    2
    15    12    14   am
    16    14    15    1
    17     5     6   ar
    18     6     7   ar
    19     7     8   ar
    20     8     9   ar
    21     9    24    1
    22    24    25    1
    23    25    26    1
    24    26    27    1
    25    26    28    1
    26     9     1   ar
    27     8     3   ar
    28    14    16    1
    29    15    17    1
