@<TRIPOS>MOLECULE
*****
 27 29 0 0 0
SMALL
GASTEIGER

@<TRIPOS>ATOM
      1 N           1.9719    0.8476   29.9165 N.3     1  UNL1       -0.1549
      2 C           0.6806    1.6100   29.8810 C.3     1  UNL1        0.1002
      3 C           0.0116    1.8914   28.5682 C.3     1  UNL1        0.0418
      4 C           0.6340    1.4103   27.2910 C.2     1  UNL1       -0.0331
      5 C          -0.0349    1.6917   25.9782 C.2     1  UNL1        0.0412
      6 C           1.9253    0.6480   27.3266 C.3     1  UNL1        0.0418
      7 C           2.5942    0.3666   28.6394 C.3     1  UNL1        0.1002
      8 S           2.6408    0.5663   31.2293 S.O2    1  UNL1        0.0633
      9 O           2.9146    2.0307   31.4036 O.2     1  UNL1       -0.1528
     10 O           2.3669   -0.8982   31.0550 O.2     1  UNL1       -0.1528
     11 C           4.6476   -0.2778   35.1676 C.ar    1  UNL1        0.1388
     12 C           4.0077    1.0565   34.9227 C.ar    1  UNL1        0.0383
     13 C           3.3388    1.3379   33.6099 C.ar    1  UNL1        0.0230
     14 C           3.3097    0.2849   32.5421 C.ar    1  UNL1        0.1224
     15 C           3.9495   -1.0495   32.7870 C.ar    1  UNL1        0.0230
     16 C           4.6184   -1.3308   34.0998 C.ar    1  UNL1        0.0383
     17 C           6.7598   -0.2021   36.6785 C.3     1  UNL1        0.2525
     18 O           5.3165   -0.5592   36.4804 O.3     1  UNL1       -0.4714
     19 C          -1.3262    2.4541   25.9426 C.1     1  UNL1       -0.0583
     20 C          -2.6176    3.2165   25.9071 C.1     1  UNL1       -0.0405
     21 C          -3.9088    3.9789   25.8715 C.ar    1  UNL1        0.1224
     22 C          -4.2836    4.8733   27.0159 C.ar    1  UNL1        0.0276
     23 C          -5.5748    5.6357   26.9803 C.ar    1  UNL1        0.0034
     24 C          -6.4915    5.5037   25.8004 C.ar    1  UNL1        0.0148
     25 C          -6.1168    4.6094   24.6560 C.ar    1  UNL1        0.0600
     26 C          -7.0334    4.4774   23.4760 C.3     1  UNL1        0.0521
     27 N          -4.8255    3.8469   24.6915 N.ar    1  UNL1       -0.2414
@<TRIPOS>BOND
     1    17    18    1
     2    18    11    1
     3    11    12   ar
     4    12    13   ar
     5    13    14   ar
     6    14     8    1
     7     8     9    2
     8     8    10    2
     9     8     1    1
    10     1     2    1
    11     2     3    1
    12     3     4    1
    13     4     5    2
    14     5    19    1
    15    19    20    3
    16    20    21    1
    17    21    22   ar
    18    22    23   ar
    19    23    24   ar
    20    24    25   ar
    21    25    26    1
    22    25    27   ar
    23     4     6    1
    24     6     7    1
    25    14    15   ar
    26    15    16   ar
    27    16    11   ar
    28     7     1    1
    29    27    21   ar
@<TRIPOS>MOLECULE
*****
 27 29 0 0 0
SMALL
GASTEIGER

@<TRIPOS>ATOM
      1 N           6.5828   -2.9350   30.0766 N.3     1  UNL1       -0.1549
      2 C           5.8170   -2.4675   28.8746 C.3     1  UNL1        0.1002
      3 C           6.0717   -3.0904   27.5341 C.3     1  UNL1        0.0418
      4 C           7.0923   -4.1809   27.3956 C.2     1  UNL1       -0.0331
      5 C           7.3470   -4.8039   26.0550 C.2     1  UNL1        0.0412
      6 C           7.8581   -4.6484   28.5976 C.3     1  UNL1        0.0418
      7 C           7.6034   -4.0254   29.9381 C.3     1  UNL1        0.1002
      8 S           6.3281   -2.3120   31.4171 S.O2    1  UNL1        0.0633
      9 O           5.6695   -1.1420   30.7483 O.2     1  UNL1       -0.1528
     10 O           6.9867   -3.4819   32.0860 O.2     1  UNL1       -0.1528
     11 C           5.5639   -0.4430   35.4387 C.ar    1  UNL1        0.1388
     12 C           6.9005   -0.2800   34.7777 C.ar    1  UNL1        0.0383
     13 C           7.1552   -0.9030   33.4372 C.ar    1  UNL1        0.0230
     14 C           6.0734   -1.6890   32.7577 C.ar    1  UNL1        0.1224
     15 C           4.7368   -1.8520   33.4187 C.ar    1  UNL1        0.0230
     16 C           4.4821   -1.2290   34.7592 C.ar    1  UNL1        0.0383
     17 C           4.0675    0.9905   37.0059 C.3     1  UNL1        0.2525
     18 O           5.3092    0.1800   36.7792 O.3     1  UNL1       -0.4714
     19 C           6.5812   -4.3364   24.8530 C.1     1  UNL1       -0.0583
     20 C           5.8153   -3.8689   23.6509 C.1     1  UNL1       -0.0405
     21 C           5.0494   -3.4014   22.4489 C.ar    1  UNL1        0.1224
     22 C           4.2940   -2.1064   22.4980 C.ar    1  UNL1        0.0276
     23 C           3.5281   -1.6389   21.2959 C.ar    1  UNL1        0.0034
     24 C           3.5177   -2.4664   20.0449 C.ar    1  UNL1        0.0148
     25 C           4.2730   -3.7613   19.9958 C.ar    1  UNL1        0.0600
     26 C           4.2626   -4.5888   18.7447 C.3     1  UNL1        0.0521
     27 N           5.0389   -4.2289   21.1979 N.ar    1  UNL1       -0.2414
@<TRIPOS>BOND
     1    17    18    1
     2    18    11    1
     3    11    12   ar
     4    12    13   ar
     5    13    14   ar
     6    14     8    1
     7     8     9    2
     8     8    10    2
     9     8     1    1
    10     1     2    1
    11     2     3    1
    12     3     4    1
    13     4     5    2
    14     5    19    1
    15    19    20    3
    16    20    21    1
    17    21    22   ar
    18    22    23   ar
    19    23    24   ar
    20    24    25   ar
    21    25    26    1
    22    25    27   ar
    23     4     6    1
    24     6     7    1
    25    14    15   ar
    26    15    16   ar
    27    16    11   ar
    28     7     1    1
    29    27    21   ar
@<TRIPOS>MOLECULE
*****
 27 29 0 0 0
SMALL
GASTEIGER

@<TRIPOS>ATOM
      1 N           4.7696   -2.3859   21.8798 N.3     1  UNL1       -0.1549
      2 C           4.6843   -2.3987   23.3773 C.3     1  UNL1        0.1002
      3 C           5.6177   -3.2609   24.1743 C.3     1  UNL1        0.0418
      4 C           6.6365   -4.1103   23.4739 C.2     1  UNL1       -0.0331
      5 C           7.5699   -4.9725   24.2709 C.2     1  UNL1        0.0412
      6 C           6.7218   -4.0975   21.9764 C.3     1  UNL1        0.0418
      7 C           5.7883   -3.2353   21.1793 C.3     1  UNL1        0.1002
      8 S           3.8361   -1.5236   21.0828 S.O2    1  UNL1        0.0633
      9 O           4.6497   -1.7828   19.8495 O.2     1  UNL1       -0.1528
     10 O           3.0225   -1.2645   22.3160 O.2     1  UNL1       -0.1528
     11 C           1.0358    1.0630   18.6917 C.ar    1  UNL1        0.1388
     12 C           2.4706    0.9273   18.2760 C.ar    1  UNL1        0.0383
     13 C           3.4041    0.0651   19.0730 C.ar    1  UNL1        0.0230
     14 C           2.9027   -0.6614   20.2857 C.ar    1  UNL1        0.1224
     15 C           1.4679   -0.5257   20.7014 C.ar    1  UNL1        0.0230
     16 C           0.5345    0.3365   19.9044 C.ar    1  UNL1        0.0383
     17 C           0.1612    3.4180   18.0291 C.3     1  UNL1        0.2525
     18 O           0.1024    1.9252   17.8946 O.3     1  UNL1       -0.4714
     19 C           7.4846   -4.9854   25.7684 C.1     1  UNL1       -0.0583
     20 C           7.3994   -4.9982   27.2659 C.1     1  UNL1       -0.0405
     21 C           7.3141   -5.0110   28.7634 C.ar    1  UNL1        0.1224
     22 C           7.8991   -6.1546   29.5382 C.ar    1  UNL1        0.0276
     23 C           7.8138   -6.1674   31.0357 C.ar    1  UNL1        0.0034
     24 C           7.1435   -5.0368   31.7585 C.ar    1  UNL1        0.0148
     25 C           6.5586   -3.8933   30.9838 C.ar    1  UNL1        0.0600
     26 C           5.8883   -2.7627   31.7066 C.3     1  UNL1        0.0521
     27 N           6.6438   -3.8804   29.4862 N.ar    1  UNL1       -0.2414
@<TRIPOS>BOND
     1    17    18    1
     2    18    11    1
     3    11    12   ar
     4    12    13   ar
     5    13    14   ar
     6    14     8    1
     7     8     9    2
     8     8    10    2
     9     8     1    1
    10     1     2    1
    11     2     3    1
    12     3     4    1
    13     4     5    2
    14     5    19    1
    15    19    20    3
    16    20    21    1
    17    21    22   ar
    18    22    23   ar
    19    23    24   ar
    20    24    25   ar
    21    25    26    1
    22    25    27   ar
    23     4     6    1
    24     6     7    1
    25    14    15   ar
    26    15    16   ar
    27    16    11   ar
    28     7     1    1
    29    27    21   ar
@<TRIPOS>MOLECULE
*****
 27 29 0 0 0
SMALL
GASTEIGER

@<TRIPOS>ATOM
      1 N          -1.6575    3.3105   20.2054 N.3     1  UNL1       -0.1549
      2 C          -0.8723    2.0831   20.5617 C.3     1  UNL1        0.1002
      3 C           0.4625    1.8353   19.9238 C.3     1  UNL1        0.0418
      4 C           1.0121    2.8148   18.9296 C.2     1  UNL1       -0.0331
      5 C           2.3469    2.5669   18.2917 C.2     1  UNL1        0.0412
      6 C           0.2269    4.0421   18.5733 C.3     1  UNL1        0.0418
      7 C          -1.1079    4.2900   19.2112 C.3     1  UNL1        0.1002
      8 S          -2.9923    3.5584   20.8433 S.O2    1  UNL1        0.0633
      9 O          -3.6245    3.6472   19.4859 O.2     1  UNL1       -0.1528
     10 O          -2.3601    3.4695   22.2007 O.2     1  UNL1       -0.1528
     11 C          -6.9966    4.3020   22.7570 C.ar    1  UNL1        0.1388
     12 C          -6.8061    4.5602   21.2918 C.ar    1  UNL1        0.0383
     13 C          -5.4713    4.3124   20.6539 C.ar    1  UNL1        0.0230
     14 C          -4.3271    3.8063   21.4812 C.ar    1  UNL1        0.1224
     15 C          -4.5176    3.5480   22.9464 C.ar    1  UNL1        0.0230
     16 C          -5.8524    3.7959   23.5843 C.ar    1  UNL1        0.0383
     17 C          -8.4749    5.6100   24.4463 C.3     1  UNL1        0.2525
     18 O          -8.3314    4.5499   23.3949 O.3     1  UNL1       -0.4714
     19 C           3.1320    1.3395   18.6480 C.1     1  UNL1       -0.0583
     20 C           3.9173    0.1121   19.0043 C.1     1  UNL1       -0.0405
     21 C           4.7025   -1.1153   19.3606 C.ar    1  UNL1        0.1224
     22 C           5.9600   -0.9927   20.1691 C.ar    1  UNL1        0.0276
     23 C           6.7452   -2.2201   20.5254 C.ar    1  UNL1        0.0034
     24 C           6.2729   -3.5701   20.0732 C.ar    1  UNL1        0.0148
     25 C           5.0154   -3.6927   19.2647 C.ar    1  UNL1        0.0600
     26 C           4.5431   -5.0427   18.8126 C.3     1  UNL1        0.0521
     27 N           4.2302   -2.4653   18.9084 N.ar    1  UNL1       -0.2414
@<TRIPOS>BOND
     1    17    18    1
     2    18    11    1
     3    11    12   ar
     4    12    13   ar
     5    13    14   ar
     6    14     8    1
     7     8     9    2
     8     8    10    2
     9     8     1    1
    10     1     2    1
    11     2     3    1
    12     3     4    1
    13     4     5    2
    14     5    19    1
    15    19    20    3
    16    20    21    1
    17    21    22   ar
    18    22    23   ar
    19    23    24   ar
    20    24    25   ar
    21    25    26    1
    22    25    27   ar
    23     4     6    1
    24     6     7    1
    25    14    15   ar
    26    15    16   ar
    27    16    11   ar
    28     7     1    1
    29    27    21   ar
@<TRIPOS>MOLECULE
*****
 27 29 0 0 0
SMALL
GASTEIGER

@<TRIPOS>ATOM
      1 N           1.0670    1.5705   26.6461 N.3     1  UNL1       -0.1549
      2 C           2.0418    0.7583   25.8462 C.3     1  UNL1        0.1002
      3 C           1.8791    0.6421   24.3596 C.3     1  UNL1        0.0418
      4 C           0.7416    1.3381   23.6729 C.2     1  UNL1       -0.0331
      5 C           0.5790    1.2219   22.1862 C.2     1  UNL1        0.0412
      6 C          -0.2332    2.1504   24.4728 C.3     1  UNL1        0.0418
      7 C          -0.0705    2.2666   25.9594 C.3     1  UNL1        0.1002
      8 S           1.2296    1.6867   28.1327 S.O2    1  UNL1        0.0633
      9 O           2.3508    0.6912   28.0878 O.2     1  UNL1       -0.1528
     10 O           0.1085    2.6822   28.1776 O.2     1  UNL1       -0.1528
     11 C           1.7176    2.0353   32.5926 C.ar    1  UNL1        0.1388
     12 C           0.8225    2.9896   31.8592 C.ar    1  UNL1        0.0383
     13 C           0.6598    2.8734   30.3726 C.ar    1  UNL1        0.0230
     14 C           1.3923    1.8029   29.6193 C.ar    1  UNL1        0.1224
     15 C           2.2874    0.8486   30.3527 C.ar    1  UNL1        0.0230
     16 C           2.4501    0.9647   31.8394 C.ar    1  UNL1        0.0383
     17 C           3.2145    1.8851   34.7108 C.3     1  UNL1        0.2525
     18 O           1.8803    2.1515   34.0792 O.3     1  UNL1       -0.4714
     19 C           1.5538    0.4097   21.3863 C.1     1  UNL1       -0.0583
     20 C           2.5287   -0.4026   20.5863 C.1     1  UNL1       -0.0405
     21 C           3.5035   -1.2148   19.7864 C.ar    1  UNL1        0.1224
     22 C           4.5749   -0.5302   18.9905 C.ar    1  UNL1        0.0276
     23 C           5.5497   -1.3424   18.1906 C.ar    1  UNL1        0.0034
     24 C           5.4532   -2.8393   18.1865 C.ar    1  UNL1        0.0148
     25 C           4.3818   -3.5240   18.9823 C.ar    1  UNL1        0.0600
     26 C           4.2852   -5.0208   18.9782 C.3     1  UNL1        0.0521
     27 N           3.4069   -2.7117   19.7823 N.ar    1  UNL1       -0.2414
@<TRIPOS>BOND
     1    17    18    1
     2    18    11    1
     3    11    12   ar
     4    12    13   ar
     5    13    14   ar
     6    14     8    1
     7     8     9    2
     8     8    10    2
     9     8     1    1
    10     1     2    1
    11     2     3    1
    12     3     4    1
    13     4     5    2
    14     5    19    1
    15    19    20    3
    16    20    21    1
    17    21    22   ar
    18    22    23   ar
    19    23    24   ar
    20    24    25   ar
    21    25    26    1
    22    25    27   ar
    23     4     6    1
    24     6     7    1
    25    14    15   ar
    26    15    16   ar
    27    16    11   ar
    28     7     1    1
    29    27    21   ar
@<TRIPOS>MOLECULE
*****
 27 29 0 0 0
SMALL
GASTEIGER

@<TRIPOS>ATOM
      1 N           1.9259    0.8360   29.9222 N.3     1  UNL1       -0.1549
      2 C           2.5243    0.3960   28.6191 C.3     1  UNL1        0.1002
      3 C           1.8162    0.6926   27.3304 C.3     1  UNL1        0.0418
      4 C           0.5096    1.4291   27.3449 C.2     1  UNL1       -0.0331
      5 C          -0.1986    1.7257   26.0563 C.2     1  UNL1        0.0412
      6 C          -0.0889    1.8691   28.6481 C.3     1  UNL1        0.0418
      7 C           0.6193    1.5725   29.9367 C.3     1  UNL1        0.1002
      8 S           2.6340    0.5394   31.2108 S.O2    1  UNL1        0.0633
      9 O           2.3826   -0.9259   31.0117 O.2     1  UNL1       -0.1528
     10 O           2.8854    2.0047   31.4099 O.2     1  UNL1       -0.1528
     11 C           4.7584   -0.3504   35.0767 C.ar    1  UNL1        0.1388
     12 C           4.1778    1.0116   34.8363 C.ar    1  UNL1        0.0383
     13 C           3.4696    1.3081   33.5476 C.ar    1  UNL1        0.0230
     14 C           3.3421    0.2428   32.4995 C.ar    1  UNL1        0.1224
     15 C           3.9228   -1.1192   32.7399 C.ar    1  UNL1        0.0230
     16 C           4.6309   -1.4158   34.0286 C.ar    1  UNL1        0.0383
     17 C           5.7668    0.4627   37.3288 C.3     1  UNL1        0.2525
     18 O           5.4666   -0.6470   36.3654 O.3     1  UNL1       -0.4714
     19 C           0.3999    1.2858   24.7532 C.1     1  UNL1       -0.0583
     20 C           0.9984    0.8458   23.4500 C.1     1  UNL1       -0.0405
     21 C           1.5968    0.4058   22.1468 C.ar    1  UNL1        0.1224
     22 C           2.7544   -0.5482   22.1372 C.ar    1  UNL1        0.0276
     23 C           3.3528   -0.9882   20.8340 C.ar    1  UNL1        0.0034
     24 C           2.7938   -0.4742   19.5405 C.ar    1  UNL1        0.0148
     25 C           1.6363    0.4798   19.5501 C.ar    1  UNL1        0.0600
     26 C           1.0773    0.9938   18.2565 C.3     1  UNL1        0.0521
     27 N           1.0378    0.9198   20.8533 N.ar    1  UNL1       -0.2414
@<TRIPOS>BOND
     1    17    18    1
     2    18    11    1
     3    11    12   ar
     4    12    13   ar
     5    13    14   ar
     6    14     8    1
     7     8     9    2
     8     8    10    2
     9     8     1    1
    10     1     2    1
    11     2     3    1
    12     3     4    1
    13     4     5    2
    14     5    19    1
    15    19    20    3
    16    20    21    1
    17    21    22   ar
    18    22    23   ar
    19    23    24   ar
    20    24    25   ar
    21    25    26    1
    22    25    27   ar
    23     4     6    1
    24     6     7    1
    25    14    15   ar
    26    15    16   ar
    27    16    11   ar
    28     7     1    1
    29    27    21   ar
@<TRIPOS>MOLECULE
*****
 27 29 0 0 0
SMALL
GASTEIGER

@<TRIPOS>ATOM
      1 N           4.8550   -1.0468   29.7760 N.3     1  UNL1       -0.1549
      2 C           4.2302   -0.9387   28.4166 C.3     1  UNL1        0.1002
      3 C           4.8023   -1.7107   27.2647 C.3     1  UNL1        0.0418
      4 C           5.9991   -2.5908   27.4722 C.2     1  UNL1       -0.0331
      5 C           6.5711   -3.3628   26.3204 C.2     1  UNL1        0.0412
      6 C           6.6238   -2.6989   28.8316 C.3     1  UNL1        0.0418
      7 C           6.0518   -1.9269   29.9835 C.3     1  UNL1        0.1002
      8 S           4.2829   -0.2748   30.9279 S.O2    1  UNL1        0.0633
      9 O           3.6728    0.7040   29.9689 O.2     1  UNL1       -0.1528
     10 O           4.8931   -1.2536   31.8869 O.2     1  UNL1       -0.1528
     11 C           2.5668    2.0411   34.3835 C.ar    1  UNL1        0.1388
     12 C           3.8381    1.2646   34.5586 C.ar    1  UNL1        0.0383
     13 C           4.4102    0.4926   33.4067 C.ar    1  UNL1        0.0230
     14 C           3.7109    0.4971   32.0797 C.ar    1  UNL1        0.1224
     15 C           2.4396    1.2737   31.9046 C.ar    1  UNL1        0.0230
     16 C           1.8675    2.0457   33.0565 C.ar    1  UNL1        0.0383
     17 C           1.8313    4.3007   35.4339 C.3     1  UNL1        0.2525
     18 O           1.9948    2.8131   35.5354 O.3     1  UNL1       -0.4714
     19 C           5.9464   -3.2547   24.9610 C.1     1  UNL1       -0.0583
     20 C           5.3215   -3.1466   23.6016 C.1     1  UNL1       -0.0405
     21 C           4.6968   -3.0385   22.2422 C.ar    1  UNL1        0.1224
     22 C           3.8579   -1.8443   21.8951 C.ar    1  UNL1        0.0276
     23 C           3.2332   -1.7363   20.5357 C.ar    1  UNL1        0.0034
     24 C           3.4472   -2.8223   19.5234 C.ar    1  UNL1        0.0148
     25 C           4.2859   -4.0164   19.8705 C.ar    1  UNL1        0.0600
     26 C           4.5000   -5.1024   18.8582 C.3     1  UNL1        0.0521
     27 N           4.9108   -4.1245   21.2299 N.ar    1  UNL1       -0.2414
@<TRIPOS>BOND
     1    17    18    1
     2    18    11    1
     3    11    12   ar
     4    12    13   ar
     5    13    14   ar
     6    14     8    1
     7     8     9    2
     8     8    10    2
     9     8     1    1
    10     1     2    1
    11     2     3    1
    12     3     4    1
    13     4     5    2
    14     5    19    1
    15    19    20    3
    16    20    21    1
    17    21    22   ar
    18    22    23   ar
    19    23    24   ar
    20    24    25   ar
    21    25    26    1
    22    25    27   ar
    23     4     6    1
    24     6     7    1
    25    14    15   ar
    26    15    16   ar
    27    16    11   ar
    28     7     1    1
    29    27    21   ar
@<TRIPOS>MOLECULE
*****
 27 29 0 0 0
SMALL
GASTEIGER

@<TRIPOS>ATOM
      1 N           1.8743    0.3802   19.7848 N.3     1  UNL1       -0.1549
      2 C           0.7883    0.5520   20.8051 C.3     1  UNL1        0.1002
      3 C          -0.2518    1.6171   20.6213 C.3     1  UNL1        0.0418
      4 C          -0.2059    2.5104   19.4172 C.2     1  UNL1       -0.0331
      5 C          -1.2460    3.5755   19.2335 C.2     1  UNL1        0.0412
      6 C           0.8801    2.3386   18.3969 C.3     1  UNL1        0.0418
      7 C           1.9202    1.2734   18.5807 C.3     1  UNL1        0.1002
      8 S           2.9143   -0.6850   19.9686 S.O2    1  UNL1        0.0633
      9 O           2.3796   -0.9704   21.3406 O.2     1  UNL1       -0.1528
     10 O           3.4491   -0.3995   18.5965 O.2     1  UNL1       -0.1528
     11 C           6.0346   -3.8803   20.5199 C.ar    1  UNL1        0.1388
     12 C           5.2013   -3.4367   21.6856 C.ar    1  UNL1        0.0383
     13 C           4.1612   -2.3716   21.5018 C.ar    1  UNL1        0.0230
     14 C           3.9544   -1.7501   20.1524 C.ar    1  UNL1        0.1224
     15 C           4.7877   -2.1937   18.9867 C.ar    1  UNL1        0.0230
     16 C           5.8278   -3.2588   19.1705 C.ar    1  UNL1        0.0383
     17 C           8.3229   -4.6487   21.4807 C.3     1  UNL1        0.2525
     18 O           7.0746   -4.9454   20.7037 O.3     1  UNL1       -0.4714
     19 C          -2.3319    3.7473   20.2538 C.1     1  UNL1       -0.0583
     20 C          -3.4180    3.9192   21.2742 C.1     1  UNL1       -0.0405
     21 C          -4.5039    4.0910   22.2945 C.ar    1  UNL1        0.1224
     22 C          -5.9372    4.1677   21.8586 C.ar    1  UNL1        0.0276
     23 C          -7.0232    4.3395   22.8789 C.ar    1  UNL1        0.0034
     24 C          -6.6760    4.4346   24.3351 C.ar    1  UNL1        0.0148
     25 C          -5.2428    4.3579   24.7709 C.ar    1  UNL1        0.0600
     26 C          -4.8956    4.4530   26.2271 C.3     1  UNL1        0.0521
     27 N          -4.1567    4.1861   23.7506 N.ar    1  UNL1       -0.2414
@<TRIPOS>BOND
     1    17    18    1
     2    18    11    1
     3    11    12   ar
     4    12    13   ar
     5    13    14   ar
     6    14     8    1
     7     8     9    2
     8     8    10    2
     9     8     1    1
    10     1     2    1
    11     2     3    1
    12     3     4    1
    13     4     5    2
    14     5    19    1
    15    19    20    3
    16    20    21    1
    17    21    22   ar
    18    22    23   ar
    19    23    24   ar
    20    24    25   ar
    21    25    26    1
    22    25    27   ar
    23     4     6    1
    24     6     7    1
    25    14    15   ar
    26    15    16   ar
    27    16    11   ar
    28     7     1    1
    29    27    21   ar
@<TRIPOS>MOLECULE
*****
 27 29 0 0 0
SMALL
GASTEIGER

@<TRIPOS>ATOM
      1 N           6.5983   -3.0936   29.2371 N.3     1  UNL1       -0.1549
      2 C           5.8337   -2.6301   28.0327 C.3     1  UNL1        0.1002
      3 C           6.1596   -3.1855   26.6780 C.3     1  UNL1        0.0418
      4 C           7.2501   -4.2044   26.5276 C.2     1  UNL1       -0.0331
      5 C           7.5760   -4.7598   25.1729 C.2     1  UNL1        0.0412
      6 C           8.0147   -4.6679   27.7320 C.3     1  UNL1        0.0418
      7 C           7.6888   -4.1125   29.0867 C.3     1  UNL1        0.1002
      8 S           6.2724   -2.5382   30.5918 S.O2    1  UNL1        0.0633
      9 O           6.4621   -3.8984   31.1951 O.2     1  UNL1       -0.1528
     10 O           6.0827   -1.1780   29.9885 O.2     1  UNL1       -0.1528
     11 C           5.2947   -0.8720   34.6560 C.ar    1  UNL1        0.1388
     12 C           4.3450   -1.8200   33.9858 C.ar    1  UNL1        0.0383
     13 C           4.6709   -2.3754   32.6311 C.ar    1  UNL1        0.0230
     14 C           5.9465   -1.9828   31.9465 C.ar    1  UNL1        0.1224
     15 C           6.8962   -1.0348   32.6168 C.ar    1  UNL1        0.0230
     16 C           6.5703   -0.4794   33.9715 C.ar    1  UNL1        0.0383
     17 C           5.0025    1.1651   36.2418 C.3     1  UNL1        0.2525
     18 O           4.9688   -0.3165   36.0108 O.3     1  UNL1       -0.4714
     19 C           6.8114   -4.2963   23.9685 C.1     1  UNL1       -0.0583
     20 C           6.0468   -3.8327   22.7640 C.1     1  UNL1       -0.0405
     21 C           5.2823   -3.3692   21.5597 C.ar    1  UNL1        0.1224
     22 C           5.6280   -3.9024   20.2009 C.ar    1  UNL1        0.0276
     23 C           4.8635   -3.4389   18.9965 C.ar    1  UNL1        0.0034
     24 C           3.7531   -2.4422   19.1508 C.ar    1  UNL1        0.0148
     25 C           3.4073   -1.9090   20.5096 C.ar    1  UNL1        0.0600
     26 C           2.2970   -0.9124   20.6639 C.3     1  UNL1        0.0521
     27 N           4.1719   -2.3726   21.7140 N.ar    1  UNL1       -0.2414
@<TRIPOS>BOND
     1    17    18    1
     2    18    11    1
     3    11    12   ar
     4    12    13   ar
     5    13    14   ar
     6    14     8    1
     7     8     9    2
     8     8    10    2
     9     8     1    1
    10     1     2    1
    11     2     3    1
    12     3     4    1
    13     4     5    2
    14     5    19    1
    15    19    20    3
    16    20    21    1
    17    21    22   ar
    18    22    23   ar
    19    23    24   ar
    20    24    25   ar
    21    25    26    1
    22    25    27   ar
    23     4     6    1
    24     6     7    1
    25    14    15   ar
    26    15    16   ar
    27    16    11   ar
    28     7     1    1
    29    27    21   ar
