@<TRIPOS>MOLECULE
*****
 32 35 0 0 0
SMALL
GASTEIGER

@<TRIPOS>ATOM
      1 C           3.8218    0.0147   32.6132 C.ar    1  UNL1        0.1103
      2 C           4.0618   -1.0451   33.6474 C.ar    1  UNL1        0.0185
      3 C           4.8884   -2.2500   33.3087 C.ar    1  UNL1       -0.0013
      4 C           5.4752   -2.3953   31.9359 C.ar    1  UNL1       -0.0024
      5 C           5.2353   -1.3356   30.9017 C.ar    1  UNL1       -0.0013
      6 C           4.4086   -0.1306   31.2404 C.ar    1  UNL1        0.0185
      7 S           2.9952    1.2196   32.9519 S.O2    1  UNL1        0.0289
      8 O           2.0860    0.9204   31.7970 O.2     1  UNL1       -0.1642
      9 O           3.9044    1.5187   34.1067 O.2     1  UNL1       -0.1642
     10 N          -0.3115    6.0394   34.3065 N.pl3   1  UNL1       -0.3426
     11 C           0.5152    4.8345   33.9678 C.ar    1  UNL1        0.1255
     12 C           0.3428    4.1553   32.6416 C.ar    1  UNL1        0.0352
     13 C           1.1694    2.9504   32.3029 C.ar    1  UNL1        0.0232
     14 C           2.1685    2.4245   33.2905 C.ar    1  UNL1        0.1295
     15 C           2.3410    3.1037   34.6168 C.ar    1  UNL1        0.1190
     16 N           1.5142    4.3087   34.9554 N.ar    1  UNL1       -0.2283
     17 H          -0.9672    6.3845   33.6583 H       1  UNL1        0.1437
     18 H          -0.1983    6.4852   35.1770 H       1  UNL1        0.1437
     19 C           6.3018   -3.6003   31.5973 C.3     1  UNL1        0.1177
     20 N           6.5519   -3.9592   30.1624 N.am    1  UNL1       -0.2847
     21 C           7.1199   -5.3028   29.8134 C.2     1  UNL1        0.3047
     22 O           7.4380   -6.2876   30.8992 O.2     1  UNL1       -0.2526
     23 N           7.3700   -5.6617   28.3786 N.am    1  UNL1       -0.2560
     24 C           7.9308   -6.9602   27.8793 C.3     1  UNL1        0.1218
     25 C           8.0105   -6.8861   26.3833 C.ar    1  UNL1       -0.0016
     26 C           8.4828   -7.8690   25.3534 C.ar    1  UNL1        0.0178
     27 C           8.4436   -7.5076   23.8982 C.ar    1  UNL1        0.0986
     28 N           7.9320   -6.1632   23.4728 N.ar    1  UNL1       -0.2426
     29 C           7.4596   -5.1803   24.5026 C.ar    1  UNL1        0.0960
     30 C           7.4989   -5.5417   25.9579 C.ar    1  UNL1        0.0146
     31 C           7.1030   -4.7850   27.1911 C.3     1  UNL1        0.1233
     32 H           6.3431   -3.3128   29.4498 H       1  UNL1        0.1513
@<TRIPOS>BOND
     1    10    11    1
     2    11    12   ar
     3    12    13   ar
     4    13    14   ar
     5    14     7    1
     6     7     8    2
     7     7     9    2
     8     7     1    1
     9     1     2   ar
    10     2     3   ar
    11     3     4   ar
    12     4    19    1
    13    19    20    1
    14    20    21   am
    15    21    22    2
    16    21    23   am
    17    23    24    1
    18    24    25    1
    19    25    26   ar
    20    26    27   ar
    21    27    28   ar
    22    28    29   ar
    23    29    30   ar
    24    30    31    1
    25     4     5   ar
    26     5     6   ar
    27    14    15   ar
    28    15    16   ar
    29    16    11   ar
    30     6     1   ar
    31    31    23    1
    32    30    25   ar
    33    10    17    1
    34    10    18    1
    35    20    32    1
@<TRIPOS>MOLECULE
*****
 32 35 0 0 0
SMALL
GASTEIGER

@<TRIPOS>ATOM
      1 C          -3.0535    3.6659   24.8450 C.ar    1  UNL1        0.1103
      2 C          -2.4873    3.1839   26.1478 C.ar    1  UNL1        0.0185
      3 C          -1.1012    2.6127   26.1976 C.ar    1  UNL1       -0.0013
      4 C          -0.2812    2.5236   24.9448 C.ar    1  UNL1       -0.0024
      5 C          -0.8473    3.0056   23.6420 C.ar    1  UNL1       -0.0013
      6 C          -2.2335    3.5768   23.5921 C.ar    1  UNL1        0.0185
      7 S          -4.4395    4.2371   24.7951 S.O2    1  UNL1        0.0289
      8 O          -4.7156    3.6866   26.1628 O.2     1  UNL1       -0.1642
      9 O          -4.1635    4.7876   23.4274 O.2     1  UNL1       -0.1642
     10 N          -9.9839    6.5218   24.5957 N.pl3   1  UNL1       -0.3426
     11 C          -8.5978    5.9507   24.6455 C.ar    1  UNL1        0.1255
     12 C          -7.6761    6.3160   25.7711 C.ar    1  UNL1        0.0352
     13 C          -6.2900    5.7448   25.8210 C.ar    1  UNL1        0.0232
     14 C          -5.8256    4.8083   24.7452 C.ar    1  UNL1        0.1295
     15 C          -6.7473    4.4429   23.6196 C.ar    1  UNL1        0.1190
     16 N          -8.1334    5.0142   23.5698 N.ar    1  UNL1       -0.2283
     17 H         -10.2887    7.1365   25.3017 H       1  UNL1        0.1437
     18 H         -10.5888    6.2820   23.8569 H       1  UNL1        0.1437
     19 C           1.1049    1.9524   24.9947 C.3     1  UNL1        0.1177
     20 N           1.6063    1.1009   23.8662 N.am    1  UNL1       -0.2847
     21 C           2.5917    0.0027   24.1357 C.2     1  UNL1        0.3047
     22 O           3.0759   -0.2441   25.5338 O.2     1  UNL1       -0.2526
     23 N           3.0931   -0.8488   23.0072 N.am    1  UNL1       -0.2560
     24 C           4.0742   -1.9776   23.1228 C.3     1  UNL1        0.1218
     25 C           4.2889   -2.5474   21.7520 C.ar    1  UNL1       -0.0016
     26 C           5.1473   -3.6731   21.2561 C.ar    1  UNL1        0.0178
     27 C           5.1572   -4.0222   19.7973 C.ar    1  UNL1        0.0986
     28 N           4.3088   -3.2457   18.8345 N.ar    1  UNL1       -0.2426
     29 C           3.4503   -2.1201   19.3304 C.ar    1  UNL1        0.0960
     30 C           3.4404   -1.7709   20.7891 C.ar    1  UNL1        0.0146
     31 C           2.7014   -0.7212   21.5649 C.3     1  UNL1        0.1233
     32 H           1.2885    1.2628   22.9485 H       1  UNL1        0.1513
@<TRIPOS>BOND
     1    10    11    1
     2    11    12   ar
     3    12    13   ar
     4    13    14   ar
     5    14     7    1
     6     7     8    2
     7     7     9    2
     8     7     1    1
     9     1     2   ar
    10     2     3   ar
    11     3     4   ar
    12     4    19    1
    13    19    20    1
    14    20    21   am
    15    21    22    2
    16    21    23   am
    17    23    24    1
    18    24    25    1
    19    25    26   ar
    20    26    27   ar
    21    27    28   ar
    22    28    29   ar
    23    29    30   ar
    24    30    31    1
    25     4     5   ar
    26     5     6   ar
    27    14    15   ar
    28    15    16   ar
    29    16    11   ar
    30     6     1   ar
    31    31    23    1
    32    30    25   ar
    33    10    17    1
    34    10    18    1
    35    20    32    1
@<TRIPOS>MOLECULE
*****
 32 35 0 0 0
SMALL
GASTEIGER

@<TRIPOS>ATOM
      1 C           2.9965   -0.1678   19.7690 C.ar    1  UNL1        0.1103
      2 C           1.6273   -0.4013   20.3354 C.ar    1  UNL1        0.0185
      3 C           0.5305    0.5891   20.0784 C.ar    1  UNL1       -0.0013
      4 C           0.8028    1.8130   19.2551 C.ar    1  UNL1       -0.0024
      5 C           2.1720    2.0465   18.6887 C.ar    1  UNL1       -0.0013
      6 C           3.2689    1.0561   18.9457 C.ar    1  UNL1        0.0185
      7 S           4.0933   -1.1582   20.0260 S.O2    1  UNL1        0.0289
      8 O           5.0640   -0.0319   20.2239 O.2     1  UNL1       -0.1642
      9 O           3.1227   -2.2845   19.8280 O.2     1  UNL1       -0.1642
     10 N           8.4807   -5.1198   21.0538 N.pl3   1  UNL1       -0.3426
     11 C           7.3839   -4.1294   20.7968 C.ar    1  UNL1        0.1255
     12 C           7.6401   -2.9359   19.9251 C.ar    1  UNL1        0.0352
     13 C           6.5433   -1.9455   19.6681 C.ar    1  UNL1        0.0232
     14 C           5.1902   -2.1486   20.2829 C.ar    1  UNL1        0.1295
     15 C           4.9340   -3.3421   21.1547 C.ar    1  UNL1        0.1190
     16 N           6.0309   -4.3325   21.4117 N.ar    1  UNL1       -0.2283
     17 H           9.3688   -4.9865   20.6503 H       1  UNL1        0.1437
     18 H           8.3126   -5.9031   21.6260 H       1  UNL1        0.1437
     19 C          -0.2941    2.8034   18.9982 C.3     1  UNL1        0.1177
     20 N          -1.3353    3.0583   20.0474 N.am    1  UNL1       -0.2847
     21 C          -2.6755    3.6070   19.6564 C.2     1  UNL1        0.3047
     22 O          -2.9744    3.9007   18.2162 O.2     1  UNL1       -0.2526
     23 N          -3.7167    3.8619   20.7056 N.am    1  UNL1       -0.2560
     24 C          -5.0943    4.4052   20.4670 C.3     1  UNL1        0.1218
     25 C          -5.7922    4.4974   21.7916 C.ar    1  UNL1       -0.0016
     26 C          -7.1670    4.9613   22.1716 C.ar    1  UNL1        0.0178
     27 C          -7.5955    4.9389   23.6089 C.ar    1  UNL1        0.0986
     28 N          -6.6492    4.4525   24.6662 N.ar    1  UNL1       -0.2426
     29 C          -5.2743    3.9885   24.2862 C.ar    1  UNL1        0.0960
     30 C          -4.8458    4.0110   22.8489 C.ar    1  UNL1        0.0146
     31 C          -3.5631    3.6182   22.1777 C.3     1  UNL1        0.1233
     32 H          -1.1391    2.8655   20.9927 H       1  UNL1        0.1513
@<TRIPOS>BOND
     1    10    11    1
     2    11    12   ar
     3    12    13   ar
     4    13    14   ar
     5    14     7    1
     6     7     8    2
     7     7     9    2
     8     7     1    1
     9     1     2   ar
    10     2     3   ar
    11     3     4   ar
    12     4    19    1
    13    19    20    1
    14    20    21   am
    15    21    22    2
    16    21    23   am
    17    23    24    1
    18    24    25    1
    19    25    26   ar
    20    26    27   ar
    21    27    28   ar
    22    28    29   ar
    23    29    30   ar
    24    30    31    1
    25     4     5   ar
    26     5     6   ar
    27    14    15   ar
    28    15    16   ar
    29    16    11   ar
    30     6     1   ar
    31    31    23    1
    32    30    25   ar
    33    10    17    1
    34    10    18    1
    35    20    32    1
@<TRIPOS>MOLECULE
*****
 32 35 0 0 0
SMALL
GASTEIGER

@<TRIPOS>ATOM
      1 C           2.0565    0.7102   29.7227 C.ar    1  UNL1        0.1103
      2 C           2.9338    0.7723   28.5075 C.ar    1  UNL1        0.0185
      3 C           2.3233    0.9610   27.1505 C.ar    1  UNL1       -0.0013
      4 C           0.8354    1.0877   27.0085 C.ar    1  UNL1       -0.0024
      5 C          -0.0419    1.0256   28.2235 C.ar    1  UNL1       -0.0013
      6 C           0.5686    0.8369   29.5807 C.ar    1  UNL1        0.0185
      7 S           2.6670    0.5215   31.0797 S.O2    1  UNL1        0.0289
      8 O           2.9697    1.9890   31.1476 O.2     1  UNL1       -0.1642
      9 O           2.3643   -0.9460   31.0118 O.2     1  UNL1       -0.1642
     10 N           5.1092   -0.2334   36.5079 N.pl3   1  UNL1       -0.3426
     11 C           4.4986   -0.0447   35.1509 C.ar    1  UNL1        0.1255
     12 C           4.5406   -1.1593   34.1479 C.ar    1  UNL1        0.0352
     13 C           3.9301   -0.9706   32.7909 C.ar    1  UNL1        0.0232
     14 C           3.2775    0.3328   32.4367 C.ar    1  UNL1        0.1295
     15 C           3.2355    1.4474   33.4397 C.ar    1  UNL1        0.1190
     16 N           3.8461    1.2586   34.7968 N.ar    1  UNL1       -0.2283
     17 H           5.5375   -1.0889   36.7403 H       1  UNL1        0.1437
     18 H           5.0816    0.4981   37.1661 H       1  UNL1        0.1437
     19 C           0.2249    1.2764   25.6514 C.3     1  UNL1        0.1177
     20 N           0.9042    0.7131   24.4385 N.am    1  UNL1       -0.2847
     21 C           0.7615    1.3992   23.1123 C.2     1  UNL1        0.3047
     22 O          -0.0606    2.6487   22.9990 O.2     1  UNL1       -0.2526
     23 N           1.4408    0.8358   21.8994 N.am    1  UNL1       -0.2560
     24 C           1.3894    1.4088   20.5141 C.3     1  UNL1        0.1218
     25 C           2.2077    0.5277   19.6174 C.ar    1  UNL1       -0.0016
     26 C           2.5174    0.5986   18.1514 C.ar    1  UNL1        0.0178
     27 C           3.3842   -0.4481   17.5166 C.ar    1  UNL1        0.0986
     28 N           3.9413   -1.5657   18.3477 N.ar    1  UNL1       -0.2426
     29 C           3.6315   -1.6366   19.8136 C.ar    1  UNL1        0.0960
     30 C           2.7647   -0.5899   20.4485 C.ar    1  UNL1        0.0146
     31 C           2.2907   -0.3995   21.8588 C.3     1  UNL1        0.1233
     32 H           1.4438   -0.1071   24.5128 H       1  UNL1        0.1513
@<TRIPOS>BOND
     1    10    11    1
     2    11    12   ar
     3    12    13   ar
     4    13    14   ar
     5    14     7    1
     6     7     8    2
     7     7     9    2
     8     7     1    1
     9     1     2   ar
    10     2     3   ar
    11     3     4   ar
    12     4    19    1
    13    19    20    1
    14    20    21   am
    15    21    22    2
    16    21    23   am
    17    23    24    1
    18    24    25    1
    19    25    26   ar
    20    26    27   ar
    21    27    28   ar
    22    28    29   ar
    23    29    30   ar
    24    30    31    1
    25     4     5   ar
    26     5     6   ar
    27    14    15   ar
    28    15    16   ar
    29    16    11   ar
    30     6     1   ar
    31    31    23    1
    32    30    25   ar
    33    10    17    1
    34    10    18    1
    35    20    32    1
@<TRIPOS>MOLECULE
*****
 32 35 0 0 0
SMALL
GASTEIGER

@<TRIPOS>ATOM
      1 C          -7.2166    4.9308   24.3228 C.ar    1  UNL1        0.1103
      2 C          -6.2264    5.3774   25.3572 C.ar    1  UNL1        0.0185
      3 C          -4.7727    5.0444   25.1969 C.ar    1  UNL1       -0.0013
      4 C          -4.3091    4.2648   24.0023 C.ar    1  UNL1       -0.0024
      5 C          -5.2992    3.8181   22.9679 C.ar    1  UNL1       -0.0013
      6 C          -6.7531    4.1511   23.1281 C.ar    1  UNL1        0.0185
      7 S          -8.6704    5.2638   24.4830 S.O2    1  UNL1        0.0289
      8 O          -8.3010    6.5529   25.1550 O.2     1  UNL1       -0.1642
      9 O          -9.0398    3.9746   23.8111 O.2     1  UNL1       -0.1642
     10 N         -14.4854    6.5957   25.1241 N.pl3   1  UNL1       -0.3426
     11 C         -13.0316    6.2627   24.9639 C.ar    1  UNL1        0.1255
     12 C         -12.5829    4.8317   24.9884 C.ar    1  UNL1        0.0352
     13 C         -11.1292    4.4987   24.8281 C.ar    1  UNL1        0.0232
     14 C         -10.1241    5.5968   24.6433 C.ar    1  UNL1        0.1295
     15 C         -10.5729    7.0279   24.6188 C.ar    1  UNL1        0.1190
     16 N         -12.0267    7.3608   24.7791 N.ar    1  UNL1       -0.2283
     17 H         -15.1450    5.8750   25.2454 H       1  UNL1        0.1437
     18 H         -14.7799    7.5350   25.1080 H       1  UNL1        0.1437
     19 C          -2.8553    3.9318   23.8420 C.3     1  UNL1        0.1177
     20 N          -2.1482    3.1328   24.8964 N.am    1  UNL1       -0.2847
     21 C          -1.3552    3.8313   25.9609 C.2     1  UNL1        0.3047
     22 O          -1.2692    5.3287   25.9710 O.2     1  UNL1       -0.2526
     23 N          -0.6482    3.0323   27.0153 N.am    1  UNL1       -0.2560
     24 C           0.1780    3.5883   28.1370 C.3     1  UNL1        0.1218
     25 C           0.6936    2.4367   28.9481 C.ar    1  UNL1       -0.0016
     26 C           1.5597    2.3787   30.1714 C.ar    1  UNL1        0.0178
     27 C           1.9182    1.0528   30.7743 C.ar    1  UNL1        0.0986
     28 N           1.4106   -0.2150   30.1538 N.ar    1  UNL1       -0.2426
     29 C           0.5446   -0.1571   28.9305 C.ar    1  UNL1        0.0960
     30 C           0.1861    1.1688   28.3276 C.ar    1  UNL1        0.0146
     31 C          -0.6432    1.5369   27.1331 C.3     1  UNL1        0.1233
     32 H          -2.2047    2.1499   24.8898 H       1  UNL1        0.1513
@<TRIPOS>BOND
     1    10    11    1
     2    11    12   ar
     3    12    13   ar
     4    13    14   ar
     5    14     7    1
     6     7     8    2
     7     7     9    2
     8     7     1    1
     9     1     2   ar
    10     2     3   ar
    11     3     4   ar
    12     4    19    1
    13    19    20    1
    14    20    21   am
    15    21    22    2
    16    21    23   am
    17    23    24    1
    18    24    25    1
    19    25    26   ar
    20    26    27   ar
    21    27    28   ar
    22    28    29   ar
    23    29    30   ar
    24    30    31    1
    25     4     5   ar
    26     5     6   ar
    27    14    15   ar
    28    15    16   ar
    29    16    11   ar
    30     6     1   ar
    31    31    23    1
    32    30    25   ar
    33    10    17    1
    34    10    18    1
    35    20    32    1
@<TRIPOS>MOLECULE
*****
 32 35 0 0 0
SMALL
GASTEIGER

@<TRIPOS>ATOM
      1 C           6.3371   -2.8302   30.2285 C.ar    1  UNL1        0.1103
      2 C           5.9842   -2.0651   28.9874 C.ar    1  UNL1        0.0185
      3 C           6.1441   -2.7057   27.6406 C.ar    1  UNL1       -0.0013
      4 C           6.6568   -4.1114   27.5348 C.ar    1  UNL1       -0.0024
      5 C           7.0096   -4.8765   28.7758 C.ar    1  UNL1       -0.0013
      6 C           6.8498   -4.2358   30.1227 C.ar    1  UNL1        0.0185
      7 S           6.1772   -2.1895   31.5753 S.O2    1  UNL1        0.0289
      8 O           6.1981   -3.5430   32.2216 O.2     1  UNL1       -0.1642
      9 O           6.1564   -0.8361   30.9291 O.2     1  UNL1       -0.1642
     10 N           5.5378    0.3731   36.9627 N.pl3   1  UNL1       -0.3426
     11 C           5.6976   -0.2676   35.6159 C.ar    1  UNL1        0.1255
     12 C           4.5366   -0.9705   34.9771 C.ar    1  UNL1        0.0352
     13 C           4.6965   -1.6111   33.6303 C.ar    1  UNL1        0.0232
     14 C           6.0174   -1.5489   32.9222 C.ar    1  UNL1        0.1295
     15 C           7.1784   -0.8460   33.5609 C.ar    1  UNL1        0.1190
     16 N           7.0185   -0.2053   34.9078 N.ar    1  UNL1       -0.2283
     17 H           4.6708    0.3322   37.4275 H       1  UNL1        0.1437
     18 H           6.2998    0.8344   37.3819 H       1  UNL1        0.1437
     19 C           6.8166   -4.7521   26.1878 C.3     1  UNL1        0.1177
     20 N           6.1627   -4.1407   24.9842 N.am    1  UNL1       -0.2847
     21 C           6.7696   -4.3269   23.6252 C.2     1  UNL1        0.3047
     22 O           8.0304   -5.1244   23.4698 O.2     1  UNL1       -0.2526
     23 N           6.1157   -3.7156   22.4216 N.am    1  UNL1       -0.2560
     24 C           6.6037   -3.8158   21.0068 C.3     1  UNL1        0.1218
     25 C           5.6485   -3.0588   20.1323 C.ar    1  UNL1       -0.0016
     26 C           5.6214   -2.8134   18.6528 C.ar    1  UNL1        0.0178
     27 C           4.5159   -2.0000   18.0476 C.ar    1  UNL1        0.0986
     28 N           3.4375   -1.4321   18.9220 N.ar    1  UNL1       -0.2426
     29 C           3.4646   -1.6775   20.4015 C.ar    1  UNL1        0.0960
     30 C           4.5701   -2.4909   21.0066 C.ar    1  UNL1        0.0146
     31 C           4.8589   -2.8968   22.4215 C.3     1  UNL1        0.1233
     32 H           5.3351   -3.6173   25.0863 H       1  UNL1        0.1513
@<TRIPOS>BOND
     1    10    11    1
     2    11    12   ar
     3    12    13   ar
     4    13    14   ar
     5    14     7    1
     6     7     8    2
     7     7     9    2
     8     7     1    1
     9     1     2   ar
    10     2     3   ar
    11     3     4   ar
    12     4    19    1
    13    19    20    1
    14    20    21   am
    15    21    22    2
    16    21    23   am
    17    23    24    1
    18    24    25    1
    19    25    26   ar
    20    26    27   ar
    21    27    28   ar
    22    28    29   ar
    23    29    30   ar
    24    30    31    1
    25     4     5   ar
    26     5     6   ar
    27    14    15   ar
    28    15    16   ar
    29    16    11   ar
    30     6     1   ar
    31    31    23    1
    32    30    25   ar
    33    10    17    1
    34    10    18    1
    35    20    32    1
@<TRIPOS>MOLECULE
*****
 32 35 0 0 0
SMALL
GASTEIGER

@<TRIPOS>ATOM
      1 C           2.3238    0.4515   19.8119 C.ar    1  UNL1        0.1103
      2 C           3.5513    0.5083   18.9515 C.ar    1  UNL1        0.0185
      3 C           4.6887   -0.4362   19.2044 C.ar    1  UNL1       -0.0013
      4 C           4.5988   -1.4375   20.3176 C.ar    1  UNL1       -0.0024
      5 C           3.3715   -1.4943   21.1780 C.ar    1  UNL1       -0.0013
      6 C           2.2339   -0.5497   20.9252 C.ar    1  UNL1        0.0185
      7 S           1.1863    1.3961   19.5590 S.O2    1  UNL1        0.0289
      8 O           1.4979    2.1139   20.8387 O.2     1  UNL1       -0.1642
      9 O           0.8748    0.6782   18.2793 O.2     1  UNL1       -0.1642
     10 N          -3.3636    5.1742   18.5474 N.pl3   1  UNL1       -0.3426
     11 C          -2.2261    4.2296   18.8003 C.ar    1  UNL1        0.1255
     12 C          -1.2409    3.9328   17.7088 C.ar    1  UNL1        0.0352
     13 C          -0.1035    2.9883   17.9617 C.ar    1  UNL1        0.0232
     14 C           0.0489    2.3406   19.3061 C.ar    1  UNL1        0.1295
     15 C          -0.9363    2.6374   20.3976 C.ar    1  UNL1        0.1190
     16 N          -2.0739    3.5820   20.1446 N.ar    1  UNL1       -0.2283
     17 H          -3.4636    5.5993   17.6650 H       1  UNL1        0.1437
     18 H          -4.0102    5.3690   19.2638 H       1  UNL1        0.1437
     19 C           5.7364   -2.3821   20.5705 C.3     1  UNL1        0.1177
     20 N           5.9574   -2.9387   21.9457 N.am    1  UNL1       -0.2847
     21 C           6.8485   -4.1299   22.1384 C.2     1  UNL1        0.3047
     22 O           7.5185   -4.7643   20.9558 O.2     1  UNL1       -0.2526
     23 N           7.0695   -4.6866   23.5136 N.am    1  UNL1       -0.2560
     24 C           7.9286   -5.8665   23.8596 C.3     1  UNL1        0.1218
     25 C           7.8603   -6.0702   25.3442 C.ar    1  UNL1       -0.0016
     26 C           8.5024   -7.0794   26.2493 C.ar    1  UNL1        0.0178
     27 C           8.2431   -7.0344   27.7260 C.ar    1  UNL1        0.0986
     28 N           7.3418   -5.9804   28.2976 N.ar    1  UNL1       -0.2426
     29 C           6.6998   -4.9713   27.3924 C.ar    1  UNL1        0.0960
     30 C           6.9590   -5.0162   25.9157 C.ar    1  UNL1        0.0146
     31 C           6.4703   -4.1611   24.7844 C.3     1  UNL1        0.1233
     32 H           5.5177   -2.5223   22.7219 H       1  UNL1        0.1513
@<TRIPOS>BOND
     1    10    11    1
     2    11    12   ar
     3    12    13   ar
     4    13    14   ar
     5    14     7    1
     6     7     8    2
     7     7     9    2
     8     7     1    1
     9     1     2   ar
    10     2     3   ar
    11     3     4   ar
    12     4    19    1
    13    19    20    1
    14    20    21   am
    15    21    22    2
    16    21    23   am
    17    23    24    1
    18    24    25    1
    19    25    26   ar
    20    26    27   ar
    21    27    28   ar
    22    28    29   ar
    23    29    30   ar
    24    30    31    1
    25     4     5   ar
    26     5     6   ar
    27    14    15   ar
    28    15    16   ar
    29    16    11   ar
    30     6     1   ar
    31    31    23    1
    32    30    25   ar
    33    10    17    1
    34    10    18    1
    35    20    32    1
@<TRIPOS>MOLECULE
*****
 32 35 0 0 0
SMALL
GASTEIGER

@<TRIPOS>ATOM
      1 C          -2.6418    3.8293   22.7690 C.ar    1  UNL1        0.1103
      2 C          -3.2315    3.6725   21.3987 C.ar    1  UNL1        0.0185
      3 C          -2.3708    3.2115   20.2600 C.ar    1  UNL1       -0.0013
      4 C          -0.9203    2.9073   20.4916 C.ar    1  UNL1       -0.0024
      5 C          -0.3306    3.0640   21.8619 C.ar    1  UNL1       -0.0013
      6 C          -1.1913    3.5250   23.0006 C.ar    1  UNL1        0.0185
      7 S          -3.5025    4.2903   23.9077 S.O2    1  UNL1        0.0289
      8 O          -2.4754    5.3230   24.2660 O.2     1  UNL1       -0.1642
      9 O          -4.5296    3.2576   23.5494 O.2     1  UNL1       -0.1642
     10 N          -6.9455    6.1344   28.4623 N.pl3   1  UNL1       -0.3426
     11 C          -6.0848    5.6734   27.3237 C.ar    1  UNL1        0.1255
     12 C          -6.5601    5.8363   25.9103 C.ar    1  UNL1        0.0352
     13 C          -5.6994    5.3753   24.7717 C.ar    1  UNL1        0.0232
     14 C          -4.3632    4.7513   25.0463 C.ar    1  UNL1        0.1295
     15 C          -3.8878    4.5884   26.4596 C.ar    1  UNL1        0.1190
     16 N          -4.7486    5.0495   27.5983 N.ar    1  UNL1       -0.2283
     17 H          -7.8224    6.5439   28.2821 H       1  UNL1        0.1437
     18 H          -6.6335    6.0274   29.3899 H       1  UNL1        0.1437
     19 C          -0.0596    2.4462   19.3529 C.3     1  UNL1        0.1177
     20 N           0.7177    1.1687   19.4697 N.am    1  UNL1       -0.2847
     21 C           2.2028    1.2106   19.6764 C.2     1  UNL1        0.3047
     22 O           2.9106    2.5300   19.7662 O.2     1  UNL1       -0.2526
     23 N           2.9801   -0.0670   19.7932 N.am    1  UNL1       -0.2560
     24 C           4.4613   -0.1821   20.0004 C.3     1  UNL1        0.1218
     25 C           4.8094   -1.6400   20.0586 C.ar    1  UNL1       -0.0016
     26 C           6.1155   -2.3533   20.2454 C.ar    1  UNL1        0.0178
     27 C           6.1557   -3.8527   20.2610 C.ar    1  UNL1        0.0986
     28 N           4.8896   -4.6387   20.0898 N.ar    1  UNL1       -0.2426
     29 C           3.5834   -3.9253   19.9030 C.ar    1  UNL1        0.0960
     30 C           3.5433   -2.4259   19.8874 C.ar    1  UNL1        0.0146
     31 C           2.4128   -1.4538   19.7234 C.3     1  UNL1        0.1233
     32 H           0.2532    0.3027   19.4108 H       1  UNL1        0.1513
@<TRIPOS>BOND
     1    10    11    1
     2    11    12   ar
     3    12    13   ar
     4    13    14   ar
     5    14     7    1
     6     7     8    2
     7     7     9    2
     8     7     1    1
     9     1     2   ar
    10     2     3   ar
    11     3     4   ar
    12     4    19    1
    13    19    20    1
    14    20    21   am
    15    21    22    2
    16    21    23   am
    17    23    24    1
    18    24    25    1
    19    25    26   ar
    20    26    27   ar
    21    27    28   ar
    22    28    29   ar
    23    29    30   ar
    24    30    31    1
    25     4     5   ar
    26     5     6   ar
    27    14    15   ar
    28    15    16   ar
    29    16    11   ar
    30     6     1   ar
    31    31    23    1
    32    30    25   ar
    33    10    17    1
    34    10    18    1
    35    20    32    1
@<TRIPOS>MOLECULE
*****
 32 35 0 0 0
SMALL
GASTEIGER

@<TRIPOS>ATOM
      1 C           0.7394    2.4851   29.8539 C.ar    1  UNL1        0.1103
      2 C           1.0499    3.4758   28.7712 C.ar    1  UNL1        0.0185
      3 C           0.7649    3.1350   27.3385 C.ar    1  UNL1       -0.0013
      4 C           0.1694    1.8035   26.9884 C.ar    1  UNL1       -0.0024
      5 C          -0.1411    0.8128   28.0710 C.ar    1  UNL1       -0.0013
      6 C           0.1439    1.1536   29.5038 C.ar    1  UNL1        0.0185
      7 S           1.0244    2.8259   31.2865 S.O2    1  UNL1        0.0289
      8 O           1.2222    4.2630   30.9053 O.2     1  UNL1       -0.1642
      9 O           0.8267    1.3887   31.6677 O.2     1  UNL1       -0.1642
     10 N           2.1645    4.1891   37.0173 N.pl3   1  UNL1       -0.3426
     11 C           1.8794    3.8483   35.5846 C.ar    1  UNL1        0.1255
     12 C           1.1838    4.8414   34.7015 C.ar    1  UNL1        0.0352
     13 C           0.8988    4.5006   33.2688 C.ar    1  UNL1        0.0232
     14 C           1.3094    3.1667   32.7192 C.ar    1  UNL1        0.1295
     15 C           2.0051    2.1736   33.6023 C.ar    1  UNL1        0.1190
     16 N           2.2901    2.5144   35.0350 N.ar    1  UNL1       -0.2283
     17 H           1.8950    5.0646   37.3780 H       1  UNL1        0.1437
     18 H           2.6210    3.5373   37.5969 H       1  UNL1        0.1437
     19 C          -0.1156    1.4627   25.5557 C.3     1  UNL1        0.1177
     20 N           0.8917    0.6939   24.7530 N.am    1  UNL1       -0.2847
     21 C           1.0362    0.9549   23.2829 C.2     1  UNL1        0.3047
     22 O           0.1735    1.9846   22.6156 O.2     1  UNL1       -0.2526
     23 N           2.0435    0.1861   22.4802 N.am    1  UNL1       -0.2560
     24 C           2.3001    0.3370   21.0101 C.3     1  UNL1        0.1218
     25 C           3.3862   -0.6244   20.6280 C.ar    1  UNL1       -0.0016
     26 C           4.0512   -0.9176   19.3158 C.ar    1  UNL1        0.0178
     27 C           5.1308   -1.9560   19.2377 C.ar    1  UNL1        0.0986
     28 N           5.5455   -2.7012   20.4717 N.ar    1  UNL1       -0.2426
     29 C           4.8805   -2.4080   21.7838 C.ar    1  UNL1        0.0960
     30 C           3.8009   -1.3696   21.8620 C.ar    1  UNL1        0.0146
     31 C           2.9710   -0.8687   23.0067 C.3     1  UNL1        0.1233
     32 H           1.4579    0.0181   25.1909 H       1  UNL1        0.1513
@<TRIPOS>BOND
     1    10    11    1
     2    11    12   ar
     3    12    13   ar
     4    13    14   ar
     5    14     7    1
     6     7     8    2
     7     7     9    2
     8     7     1    1
     9     1     2   ar
    10     2     3   ar
    11     3     4   ar
    12     4    19    1
    13    19    20    1
    14    20    21   am
    15    21    22    2
    16    21    23   am
    17    23    24    1
    18    24    25    1
    19    25    26   ar
    20    26    27   ar
    21    27    28   ar
    22    28    29   ar
    23    29    30   ar
    24    30    31    1
    25     4     5   ar
    26     5     6   ar
    27    14    15   ar
    28    15    16   ar
    29    16    11   ar
    30     6     1   ar
    31    31    23    1
    32    30    25   ar
    33    10    17    1
    34    10    18    1
    35    20    32    1
