@<TRIPOS>MOLECULE
*****
 24 27 0 0 0
SMALL
GASTEIGER

@<TRIPOS>ATOM
      1 C          -8.2917  -15.1090   25.2603 C.3     1  UNL1        0.1363
      2 N          -7.1672  -15.8017   24.5491 N.ar    1  UNL1       -0.2667
      3 C          -7.4509  -16.6498   23.3449 C.ar    1  UNL1        0.2036
      4 N          -6.3264  -17.3425   22.6336 N.ar    1  UNL1       -0.2147
      5 C          -4.9184  -17.1871   23.1266 C.ar    1  UNL1        0.0911
      6 C          -4.6346  -16.3389   24.3309 C.ar    1  UNL1        0.0801
      7 C          -5.7591  -15.6463   25.0421 C.ar    1  UNL1        0.2645
      8 O          -5.4754  -14.7981   26.2464 O.2     1  UNL1       -0.2668
      9 N          -8.8590  -16.8053   22.8518 N.pl3   1  UNL1       -0.2735
     10 C          -9.3379  -15.9965   21.6829 C.3     1  UNL1        0.1257
     11 C         -10.7459  -16.1519   21.1898 C.3     1  UNL1        0.1637
     12 O         -11.6752  -17.1162   21.8657 O.3     1  UNL1       -0.3501
     13 C         -11.1963  -17.9250   23.0347 C.3     1  UNL1        0.1652
     14 C         -11.8786  -18.9466   23.8953 C.3     1  UNL1        0.1734
     15 O         -10.8923  -19.4225   24.9202 O.3     1  UNL1       -0.3493
     16 C          -9.6003  -18.6951   24.6931 C.3     1  UNL1        0.1645
     17 C          -9.7882  -17.7695   23.5277 C.3     1  UNL1        0.1346
     18 C          -3.7939  -17.8797   22.4154 C.ar    1  UNL1        0.0485
     19 C          -3.8262  -19.3681   22.2322 C.ar    1  UNL1        0.0244
     20 C          -2.7017  -20.0608   21.5210 C.ar    1  UNL1        0.0991
     21 N          -1.5450  -19.2649   20.9930 N.ar    1  UNL1       -0.2400
     22 C          -1.5127  -17.7766   21.1763 C.ar    1  UNL1        0.1285
     23 C          -2.6372  -17.0839   21.8875 C.ar    1  UNL1        0.1606
     24 F          -2.6049  -15.5955   22.0707 F       1  UNL1       -0.2025
@<TRIPOS>BOND
     1     1     2    1
     2     2     3   ar
     3     3     9    1
     4     9    10    1
     5    10    11    1
     6    11    12    1
     7    12    13    1
     8    13    14    1
     9    14    15    1
    10    15    16    1
    11    17    16    1
    12     3     4   ar
    13     4     5   ar
    14     5    18    1
    15    18    19   ar
    16    19    20   ar
    17    20    21   ar
    18    21    22   ar
    19    22    23   ar
    20    23    24    1
    21     5     6   ar
    22     6     7   ar
    23     7     8    2
    24     7     2   ar
    25    17     9    1
    26    23    18   ar
    27    17    13    1
@<TRIPOS>MOLECULE
*****
 24 27 0 0 0
SMALL
GASTEIGER

@<TRIPOS>ATOM
      1 C          -8.6579  -15.2503   25.0479 C.3     1  UNL1        0.1363
      2 N          -7.6988  -16.1196   24.2899 N.ar    1  UNL1       -0.2667
      3 C          -8.2101  -17.2832   23.4934 C.ar    1  UNL1        0.2036
      4 N          -7.2510  -18.1526   22.7353 N.ar    1  UNL1       -0.2147
      5 C          -5.7808  -17.8583   22.7739 C.ar    1  UNL1        0.0911
      6 C          -5.2694  -16.6946   23.5705 C.ar    1  UNL1        0.0801
      7 C          -6.2285  -15.8253   24.3285 C.ar    1  UNL1        0.2645
      8 O          -5.7172  -14.6617   25.1251 O.2     1  UNL1       -0.2668
      9 N          -9.6805  -17.5776   23.4548 N.pl3   1  UNL1       -0.2735
     10 C         -10.2968  -18.4584   24.5008 C.3     1  UNL1        0.1257
     11 C         -11.7670  -18.7527   24.4622 C.3     1  UNL1        0.1637
     12 O         -12.6212  -18.1662   23.3775 O.3     1  UNL1       -0.3501
     13 C         -12.0049  -17.2854   22.3315 C.3     1  UNL1        0.1652
     14 C         -12.5899  -16.5706   21.1495 C.3     1  UNL1        0.1734
     15 O         -11.4810  -15.8345   20.4577 O.3     1  UNL1       -0.3493
     16 C         -10.2108  -16.0944   21.2120 C.3     1  UNL1        0.1645
     17 C         -10.5345  -16.9910   22.3701 C.3     1  UNL1        0.1346
     18 C          -4.8217  -18.7276   22.0160 C.ar    1  UNL1        0.0485
     19 C          -5.3114  -19.5634   20.8707 C.ar    1  UNL1        0.0244
     20 C          -4.3524  -20.4327   20.1127 C.ar    1  UNL1        0.0991
     21 N          -2.9036  -20.4662   20.5001 N.ar    1  UNL1       -0.2400
     22 C          -2.4140  -19.6305   21.6454 C.ar    1  UNL1        0.1285
     23 C          -3.3730  -18.7612   22.4033 C.ar    1  UNL1        0.1606
     24 F          -2.8833  -17.9254   23.5487 F       1  UNL1       -0.2025
@<TRIPOS>BOND
     1     1     2    1
     2     2     3   ar
     3     3     9    1
     4     9    10    1
     5    10    11    1
     6    11    12    1
     7    12    13    1
     8    13    14    1
     9    14    15    1
    10    15    16    1
    11    17    16    1
    12     3     4   ar
    13     4     5   ar
    14     5    18    1
    15    18    19   ar
    16    19    20   ar
    17    20    21   ar
    18    21    22   ar
    19    22    23   ar
    20    23    24    1
    21     5     6   ar
    22     6     7   ar
    23     7     8    2
    24     7     2   ar
    25    17     9    1
    26    23    18   ar
    27    17    13    1
@<TRIPOS>MOLECULE
*****
 24 27 0 0 0
SMALL
GASTEIGER

@<TRIPOS>ATOM
      1 C         -10.1424  -19.3919   20.8631 C.3     1  UNL1        0.1363
      2 N          -8.6496  -19.2916   20.7555 N.ar    1  UNL1       -0.2667
      3 C          -7.8436  -18.8146   21.9272 C.ar    1  UNL1        0.2036
      4 N          -6.3508  -18.7142   21.8196 N.ar    1  UNL1       -0.2147
      5 C          -5.6640  -19.0909   20.5405 C.ar    1  UNL1        0.0911
      6 C          -6.4700  -19.5679   19.3687 C.ar    1  UNL1        0.0801
      7 C          -7.9628  -19.6682   19.4763 C.ar    1  UNL1        0.2645
      8 O          -8.7688  -20.1452   18.3046 O.2     1  UNL1       -0.2668
      9 N          -8.5304  -18.4379   23.2065 N.pl3   1  UNL1       -0.2735
     10 C          -9.3980  -19.4362   23.9140 C.3     1  UNL1        0.1257
     11 C         -10.0847  -19.0596   25.1932 C.3     1  UNL1        0.1637
     12 O          -9.9039  -17.6846   25.7650 O.3     1  UNL1       -0.3501
     13 C          -9.0362  -16.6863   25.0574 C.3     1  UNL1        0.1652
     14 C          -8.6727  -15.2668   25.3782 C.3     1  UNL1        0.1734
     15 O          -7.7613  -14.7662   24.2971 O.3     1  UNL1       -0.3493
     16 C          -7.5615  -15.8763   23.3083 C.3     1  UNL1        0.1645
     17 C          -8.3495  -17.0630   23.7782 C.3     1  UNL1        0.1346
     18 C          -4.1713  -18.9905   20.4329 C.ar    1  UNL1        0.0485
     19 C          -3.5416  -18.5122   19.1582 C.ar    1  UNL1        0.0244
     20 C          -2.0489  -18.4119   19.0506 C.ar    1  UNL1        0.0991
     21 N          -1.1858  -18.7899   20.2178 N.ar    1  UNL1       -0.2400
     22 C          -1.8154  -19.2682   21.4924 C.ar    1  UNL1        0.1285
     23 C          -3.3081  -19.3685   21.6000 C.ar    1  UNL1        0.1606
     24 F          -3.9377  -19.8468   22.8746 F       1  UNL1       -0.2025
@<TRIPOS>BOND
     1     1     2    1
     2     2     3   ar
     3     3     9    1
     4     9    10    1
     5    10    11    1
     6    11    12    1
     7    12    13    1
     8    13    14    1
     9    14    15    1
    10    15    16    1
    11    17    16    1
    12     3     4   ar
    13     4     5   ar
    14     5    18    1
    15    18    19   ar
    16    19    20   ar
    17    20    21   ar
    18    21    22   ar
    19    22    23   ar
    20    23    24    1
    21     5     6   ar
    22     6     7   ar
    23     7     8    2
    24     7     2   ar
    25    17     9    1
    26    23    18   ar
    27    17    13    1
@<TRIPOS>MOLECULE
*****
 24 27 0 0 0
SMALL
GASTEIGER

@<TRIPOS>ATOM
      1 C          -5.3164  -15.9080   25.7220 C.3     1  UNL1        0.1363
      2 N          -6.5779  -16.1012   24.9338 N.ar    1  UNL1       -0.2667
      3 C          -6.5220  -16.7210   23.5690 C.ar    1  UNL1        0.2036
      4 N          -7.7836  -16.9142   22.7808 N.ar    1  UNL1       -0.2147
      5 C          -9.1009  -16.4876   23.3574 C.ar    1  UNL1        0.0911
      6 C          -9.1569  -15.8678   24.7223 C.ar    1  UNL1        0.0801
      7 C          -7.8954  -15.6747   25.5104 C.ar    1  UNL1        0.2645
      8 O          -7.9512  -15.0549   26.8752 O.2     1  UNL1       -0.2668
      9 N          -5.2046  -17.1476   22.9924 N.pl3   1  UNL1       -0.2735
     10 C          -3.9872  -16.2943   23.1915 C.3     1  UNL1        0.1257
     11 C          -2.6699  -16.7208   22.6149 C.3     1  UNL1        0.1637
     12 O          -2.5698  -18.0008   21.8391 O.3     1  UNL1       -0.3501
     13 C          -3.7873  -18.8541   21.6399 C.3     1  UNL1        0.1652
     14 C          -3.9937  -20.1572   20.9264 C.3     1  UNL1        0.1734
     15 O          -5.4388  -20.5360   21.0621 O.3     1  UNL1       -0.3493
     16 C          -6.1254  -19.4670   21.8594 C.3     1  UNL1        0.1645
     17 C          -5.1047  -18.4275   22.2166 C.3     1  UNL1        0.1346
     18 C         -10.3624  -16.6808   22.5692 C.ar    1  UNL1        0.0485
     19 C         -10.5238  -16.0123   21.2362 C.ar    1  UNL1        0.0244
     20 C         -11.7853  -16.2054   20.4480 C.ar    1  UNL1        0.0991
     21 N         -12.8855  -17.0673   20.9930 N.ar    1  UNL1       -0.2400
     22 C         -12.7242  -17.7358   22.3259 C.ar    1  UNL1        0.1285
     23 C         -11.4626  -17.5426   23.1141 C.ar    1  UNL1        0.1606
     24 F         -11.3013  -18.2112   24.4471 F       1  UNL1       -0.2025
@<TRIPOS>BOND
     1     1     2    1
     2     2     3   ar
     3     3     9    1
     4     9    10    1
     5    10    11    1
     6    11    12    1
     7    12    13    1
     8    13    14    1
     9    14    15    1
    10    15    16    1
    11    17    16    1
    12     3     4   ar
    13     4     5   ar
    14     5    18    1
    15    18    19   ar
    16    19    20   ar
    17    20    21   ar
    18    21    22   ar
    19    22    23   ar
    20    23    24    1
    21     5     6   ar
    22     6     7   ar
    23     7     8    2
    24     7     2   ar
    25    17     9    1
    26    23    18   ar
    27    17    13    1
@<TRIPOS>MOLECULE
*****
 24 27 0 0 0
SMALL
GASTEIGER

@<TRIPOS>ATOM
      1 C         -10.4415  -19.7362   19.8386 C.3     1  UNL1        0.1363
      2 N          -9.0048  -19.5742   20.2380 N.ar    1  UNL1       -0.2667
      3 C          -8.6570  -19.1756   21.6416 C.ar    1  UNL1        0.2036
      4 N          -7.2202  -19.0136   22.0411 N.ar    1  UNL1       -0.2147
      5 C          -6.1313  -19.2501   21.0370 C.ar    1  UNL1        0.0911
      6 C          -6.4791  -19.6487   19.6333 C.ar    1  UNL1        0.0801
      7 C          -7.9158  -19.8107   19.2339 C.ar    1  UNL1        0.2645
      8 O          -8.2636  -20.2093   17.8303 O.2     1  UNL1       -0.2668
      9 N          -9.7459  -18.9391   22.6458 N.pl3   1  UNL1       -0.2735
     10 C          -9.8905  -19.8548   23.8250 C.3     1  UNL1        0.1257
     11 C         -10.9793  -19.6183   24.8291 C.3     1  UNL1        0.1637
     12 O         -11.9237  -18.4660   24.6541 O.3     1  UNL1       -0.3501
     13 C         -11.7791  -17.5503   23.4749 C.3     1  UNL1        0.1652
     14 C         -12.5547  -16.3417   23.0417 C.3     1  UNL1        0.1734
     15 O         -11.9452  -15.8313   21.7697 O.3     1  UNL1       -0.3493
     16 C         -10.7928  -16.7244   21.4168 C.3     1  UNL1        0.1645
     17 C         -10.6902  -17.7869   22.4708 C.3     1  UNL1        0.1346
     18 C          -4.6946  -19.0881   21.4364 C.ar    1  UNL1        0.0485
     19 C          -4.3226  -18.1239   22.5236 C.ar    1  UNL1        0.0244
     20 C          -2.8859  -17.9618   22.9230 C.ar    1  UNL1        0.0991
     21 N          -1.8212  -18.7640   22.2352 N.ar    1  UNL1       -0.2400
     22 C          -2.1932  -19.7282   21.1481 C.ar    1  UNL1        0.1285
     23 C          -3.6299  -19.8902   20.7487 C.ar    1  UNL1        0.1606
     24 F          -4.0020  -20.8544   19.6615 F       1  UNL1       -0.2025
@<TRIPOS>BOND
     1     1     2    1
     2     2     3   ar
     3     3     9    1
     4     9    10    1
     5    10    11    1
     6    11    12    1
     7    12    13    1
     8    13    14    1
     9    14    15    1
    10    15    16    1
    11    17    16    1
    12     3     4   ar
    13     4     5   ar
    14     5    18    1
    15    18    19   ar
    16    19    20   ar
    17    20    21   ar
    18    21    22   ar
    19    22    23   ar
    20    23    24    1
    21     5     6   ar
    22     6     7   ar
    23     7     8    2
    24     7     2   ar
    25    17     9    1
    26    23    18   ar
    27    17    13    1
@<TRIPOS>MOLECULE
*****
 24 27 0 0 0
SMALL
GASTEIGER

@<TRIPOS>ATOM
      1 C         -10.4451  -19.7767   19.8642 C.3     1  UNL1        0.1363
      2 N          -9.0072  -19.6046   20.2551 N.ar    1  UNL1       -0.2667
      3 C          -8.6553  -19.1667   21.6459 C.ar    1  UNL1        0.2036
      4 N          -7.2173  -18.9946   22.0367 N.ar    1  UNL1       -0.2147
      5 C          -6.1313  -19.2603   21.0368 C.ar    1  UNL1        0.0911
      6 C          -6.4832  -19.6983   19.6459 C.ar    1  UNL1        0.0801
      7 C          -7.9211  -19.8704   19.2551 C.ar    1  UNL1        0.2645
      8 O          -8.2730  -20.3083   17.8643 O.2     1  UNL1       -0.2668
      9 N          -9.7413  -18.9009   22.6459 N.pl3   1  UNL1       -0.2735
     10 C          -9.9025  -19.8009   23.8350 C.3     1  UNL1        0.1257
     11 C         -10.9884  -19.5351   24.8349 C.3     1  UNL1        0.1637
     12 O         -11.9133  -18.3693   24.6458 O.3     1  UNL1       -0.3501
     13 C         -11.7521  -17.4694   23.4567 C.3     1  UNL1        0.1652
     14 C         -12.5070  -16.2530   23.0089 C.3     1  UNL1        0.1734
     15 O         -11.8875  -15.7670   21.7322 O.3     1  UNL1       -0.3493
     16 C         -10.7498  -16.6830   21.3909 C.3     1  UNL1        0.1645
     17 C         -10.6661  -17.7352   22.4567 C.3     1  UNL1        0.1346
     18 C          -4.6934  -19.0882   21.4277 C.ar    1  UNL1        0.0485
     19 C          -3.6264  -19.8770   20.7281 C.ar    1  UNL1        0.0244
     20 C          -2.1885  -19.7049   21.1189 C.ar    1  UNL1        0.0991
     21 N          -1.8176  -18.7439   22.2094 N.ar    1  UNL1       -0.2400
     22 C          -2.8845  -17.9552   22.9090 C.ar    1  UNL1        0.1285
     23 C          -4.3224  -18.1273   22.5181 C.ar    1  UNL1        0.1606
     24 F          -5.3894  -17.3386   23.2178 F       1  UNL1       -0.2025
@<TRIPOS>BOND
     1     1     2    1
     2     2     3   ar
     3     3     9    1
     4     9    10    1
     5    10    11    1
     6    11    12    1
     7    12    13    1
     8    13    14    1
     9    14    15    1
    10    15    16    1
    11    17    16    1
    12     3     4   ar
    13     4     5   ar
    14     5    18    1
    15    18    19   ar
    16    19    20   ar
    17    20    21   ar
    18    21    22   ar
    19    22    23   ar
    20    23    24    1
    21     5     6   ar
    22     6     7   ar
    23     7     8    2
    24     7     2   ar
    25    17     9    1
    26    23    18   ar
    27    17    13    1
@<TRIPOS>MOLECULE
*****
 24 27 0 0 0
SMALL
GASTEIGER

@<TRIPOS>ATOM
      1 C         -10.3835  -19.8705   19.3901 C.3     1  UNL1        0.1363
      2 N          -8.9920  -19.6484   19.9043 N.ar    1  UNL1       -0.2667
      3 C          -8.7514  -18.6768   21.0214 C.ar    1  UNL1        0.2036
      4 N          -7.3598  -18.4547   21.5357 N.ar    1  UNL1       -0.2147
      5 C          -6.2089  -19.2043   20.9328 C.ar    1  UNL1        0.0911
      6 C          -6.4495  -20.1760   19.8156 C.ar    1  UNL1        0.0801
      7 C          -7.8410  -20.3980   19.3014 C.ar    1  UNL1        0.2645
      8 O          -8.0816  -21.3697   18.1843 O.2     1  UNL1       -0.2668
      9 N          -9.9022  -17.9272   21.6244 N.pl3   1  UNL1       -0.2735
     10 C         -10.3503  -16.6290   21.0211 C.3     1  UNL1        0.1257
     11 C         -11.5011  -15.8794   21.6240 C.3     1  UNL1        0.1637
     12 O         -12.2040  -16.4279   22.8303 O.3     1  UNL1       -0.3501
     13 C         -11.7560  -17.7261   23.4336 C.3     1  UNL1        0.1652
     14 C         -12.2516  -18.5085   24.6135 C.3     1  UNL1        0.1734
     15 O         -11.4071  -19.7417   24.7398 O.3     1  UNL1       -0.3493
     16 C         -10.3895  -19.7214   23.6379 C.3     1  UNL1        0.1645
     17 C         -10.6051  -18.4757   22.8306 C.3     1  UNL1        0.1346
     18 C          -4.8174  -18.9822   21.4469 C.ar    1  UNL1        0.0485
     19 C          -4.5998  -18.1993   22.7077 C.ar    1  UNL1        0.0244
     20 C          -3.2083  -17.9772   23.2219 C.ar    1  UNL1        0.0991
     21 N          -2.0344  -18.5382   22.4752 N.ar    1  UNL1       -0.2400
     22 C          -2.2521  -19.3212   21.2145 C.ar    1  UNL1        0.1285
     23 C          -3.6436  -19.5432   20.7003 C.ar    1  UNL1        0.1606
     24 F          -3.8613  -20.3262   19.4396 F       1  UNL1       -0.2025
@<TRIPOS>BOND
     1     1     2    1
     2     2     3   ar
     3     3     9    1
     4     9    10    1
     5    10    11    1
     6    11    12    1
     7    12    13    1
     8    13    14    1
     9    14    15    1
    10    15    16    1
    11    17    16    1
    12     3     4   ar
    13     4     5   ar
    14     5    18    1
    15    18    19   ar
    16    19    20   ar
    17    20    21   ar
    18    21    22   ar
    19    22    23   ar
    20    23    24    1
    21     5     6   ar
    22     6     7   ar
    23     7     8    2
    24     7     2   ar
    25    17     9    1
    26    23    18   ar
    27    17    13    1
@<TRIPOS>MOLECULE
*****
 24 27 0 0 0
SMALL
GASTEIGER

@<TRIPOS>ATOM
      1 C          -6.3648  -19.4114   19.7521 C.3     1  UNL1        0.1363
      2 N          -7.6364  -19.1908   20.5167 N.ar    1  UNL1       -0.2667
      3 C          -7.5926  -18.5710   21.8820 C.ar    1  UNL1        0.2036
      4 N          -8.8642  -18.3504   22.6466 N.ar    1  UNL1       -0.2147
      5 C         -10.1794  -18.7495   22.0460 C.ar    1  UNL1        0.0911
      6 C         -10.2232  -19.3694   20.6807 C.ar    1  UNL1        0.0801
      7 C          -8.9517  -19.5900   19.9161 C.ar    1  UNL1        0.2645
      8 O          -8.9954  -20.2098   18.5508 O.2     1  UNL1       -0.2668
      9 N          -6.2774  -18.1719   22.4827 N.pl3   1  UNL1       -0.2735
     10 C          -5.0707  -19.0422   22.2918 C.3     1  UNL1        0.1257
     11 C          -3.7555  -18.6431   22.8925 C.3     1  UNL1        0.1637
     12 O          -3.6469  -17.3735   23.6840 O.3     1  UNL1       -0.3501
     13 C          -4.8536  -16.5032   23.8748 C.3     1  UNL1        0.1652
     14 C          -5.0500  -15.2048   24.5999 C.3     1  UNL1        0.1734
     15 O          -6.4867  -14.8016   24.4473 O.3     1  UNL1       -0.3493
     16 C          -7.1782  -15.8507   23.6279 C.3     1  UNL1        0.1645
     17 C          -6.1688  -16.9023   23.2742 C.3     1  UNL1        0.1346
     18 C         -11.4509  -18.5289   22.8105 C.ar    1  UNL1        0.0485
     19 C         -12.5841  -17.7751   22.1799 C.ar    1  UNL1        0.0244
     20 C         -13.8556  -17.5545   22.9445 C.ar    1  UNL1        0.0991
     21 N         -13.9938  -18.0877   24.3397 N.ar    1  UNL1       -0.2400
     22 C         -12.8607  -18.8415   24.9703 C.ar    1  UNL1        0.1285
     23 C         -11.5892  -19.0621   24.2057 C.ar    1  UNL1        0.1606
     24 F         -10.4560  -19.8159   24.8364 F       1  UNL1       -0.2025
@<TRIPOS>BOND
     1     1     2    1
     2     2     3   ar
     3     3     9    1
     4     9    10    1
     5    10    11    1
     6    11    12    1
     7    12    13    1
     8    13    14    1
     9    14    15    1
    10    15    16    1
    11    17    16    1
    12     3     4   ar
    13     4     5   ar
    14     5    18    1
    15    18    19   ar
    16    19    20   ar
    17    20    21   ar
    18    21    22   ar
    19    22    23   ar
    20    23    24    1
    21     5     6   ar
    22     6     7   ar
    23     7     8    2
    24     7     2   ar
    25    17     9    1
    26    23    18   ar
    27    17    13    1
@<TRIPOS>MOLECULE
*****
 24 27 0 0 0
SMALL
GASTEIGER

@<TRIPOS>ATOM
      1 C          -9.8442  -19.1010   20.6845 C.3     1  UNL1        0.1363
      2 N          -8.3503  -19.0475   20.5603 N.ar    1  UNL1       -0.2667
      3 C          -7.5363  -18.3364   21.6004 C.ar    1  UNL1        0.2036
      4 N          -6.0423  -18.2829   21.4762 N.ar    1  UNL1       -0.2147
      5 C          -5.3625  -18.9403   20.3120 C.ar    1  UNL1        0.0911
      6 C          -6.1765  -19.6513   19.2719 C.ar    1  UNL1        0.0801
      7 C          -7.6704  -19.7049   19.3961 C.ar    1  UNL1        0.2645
      8 O          -8.4844  -20.4159   18.3560 O.2     1  UNL1       -0.2668
      9 N          -8.2162  -17.6790   22.7647 N.pl3   1  UNL1       -0.2735
     10 C          -8.1569  -16.1886   22.9240 C.3     1  UNL1        0.1257
     11 C          -8.8367  -15.5312   24.0882 C.3     1  UNL1        0.1637
     12 O          -9.5759  -16.3641   25.0933 O.3     1  UNL1       -0.3501
     13 C          -9.6351  -17.8544   24.9340 C.3     1  UNL1        0.1652
     14 C         -10.2836  -18.9268   25.7582 C.3     1  UNL1        0.1734
     15 O         -10.0046  -20.2471   25.1032 O.3     1  UNL1       -0.3493
     16 C          -9.1836  -19.9907   23.8743 C.3     1  UNL1        0.1645
     17 C          -8.9553  -18.5118   23.7697 C.3     1  UNL1        0.1346
     18 C          -3.8686  -18.8867   20.1878 C.ar    1  UNL1        0.0485
     19 C          -3.2386  -18.2721   18.9732 C.ar    1  UNL1        0.0244
     20 C          -1.7447  -18.2185   18.8490 C.ar    1  UNL1        0.0991
     21 N          -0.8809  -18.7796   19.9395 N.ar    1  UNL1       -0.2400
     22 C          -1.5109  -19.3942   21.1540 C.ar    1  UNL1        0.1285
     23 C          -3.0048  -19.4478   21.2782 C.ar    1  UNL1        0.1606
     24 F          -3.6349  -20.0624   22.4928 F       1  UNL1       -0.2025
@<TRIPOS>BOND
     1     1     2    1
     2     2     3   ar
     3     3     9    1
     4     9    10    1
     5    10    11    1
     6    11    12    1
     7    12    13    1
     8    13    14    1
     9    14    15    1
    10    15    16    1
    11    17    16    1
    12     3     4   ar
    13     4     5   ar
    14     5    18    1
    15    18    19   ar
    16    19    20   ar
    17    20    21   ar
    18    21    22   ar
    19    22    23   ar
    20    23    24    1
    21     5     6   ar
    22     6     7   ar
    23     7     8    2
    24     7     2   ar
    25    17     9    1
    26    23    18   ar
    27    17    13    1
