@<TRIPOS>MOLECULE
*****
 32 34 0 0 0
SMALL
GASTEIGER

@<TRIPOS>ATOM
      1 C           5.6185   -3.2591   23.1652 C.ar    1  UNL1        0.0381
      2 C           4.9402   -2.1622   23.9312 C.ar    1  UNL1        0.1021
      3 N           5.2111   -1.9923   25.3966 N.ar    1  UNL1       -0.2250
      4 C           6.1604   -2.9195   26.0963 C.ar    1  UNL1        0.1623
      5 N           6.8387   -4.0164   25.3304 N.ar    1  UNL1       -0.2250
      6 C           6.5677   -4.1863   23.8648 C.ar    1  UNL1        0.1021
      7 C           6.2141   -2.7344   20.6914 C.ar    1  UNL1       -0.0260
      8 C           5.9431   -2.9043   19.2259 C.ar    1  UNL1       -0.0261
      9 C           4.8056   -3.7686   18.7687 C.ar    1  UNL1       -0.0046
     10 C           3.9391   -4.4632   19.7770 C.ar    1  UNL1       -0.0003
     11 C           4.2101   -4.2933   21.2425 C.ar    1  UNL1       -0.0002
     12 C           5.3476   -3.4290   21.6997 C.ar    1  UNL1       -0.0013
     13 C           7.1266   -0.4101   21.4089 C.3     1  UNL1        0.0050
     14 C           7.3516   -1.8701   21.1485 C.3     1  UNL1        0.0260
     15 C           6.8097   -2.2097   18.2175 C.3     1  UNL1        0.0264
     16 C           6.4152   -0.8616   17.6914 C.3     1  UNL1        0.0106
     17 C           5.1780   -0.1879   18.2069 C.3     1  UNL1        0.0421
     18 C           3.8879   -0.3089   17.4513 C.2     1  UNL1        0.0503
     19 O           3.8286   -1.1252   16.1942 O.co2   1  UNL1       -0.5492
     20 O           2.6570    0.3863   17.9528 O.co2   1  UNL1       -0.5492
     21 C           6.4313   -2.7496   27.5618 C.ar    1  UNL1        0.0367
     22 C           6.6331   -1.3775   28.1331 C.ar    1  UNL1        0.0062
     23 C           6.9040   -1.2076   29.5986 C.ar    1  UNL1        0.0377
     24 C           6.9731   -2.4100   30.4929 C.ar    1  UNL1        0.1479
     25 C           6.7713   -3.7821   29.9216 C.ar    1  UNL1        0.1024
     26 C           6.5003   -3.9520   28.4560 C.ar    1  UNL1        0.0164
     27 C           6.8403   -4.9845   30.8157 C.1     1  UNL1        0.1035
     28 N           6.9094   -6.1868   31.7099 N.1     1  UNL1       -0.1907
     29 O           7.2440   -2.2401   31.9584 O.3     1  UNL1       -0.4785
     30 C           6.1445   -1.7983   32.8781 C.3     1  UNL1        0.1662
     31 C           6.3433   -0.6061   33.7663 C.3     1  UNL1        0.0472
     32 C           4.8461   -2.5487   32.9096 C.3     1  UNL1        0.0472
@<TRIPOS>UNITY_ATOM_ATTR
19 1
charge -1
@<TRIPOS>BOND
     1    13    14    1
     2    14     7    1
     3     7     8   ar
     4     8    15    1
     5    15    16    1
     6    16    17    1
     7    17    18    1
     8    18    19   ar
     9    18    20   ar
    10     8     9   ar
    11     9    10   ar
    12    10    11   ar
    13    11    12   ar
    14    12     1    1
    15     1     2   ar
    16     2     3   ar
    17     3     4   ar
    18     4    21    1
    19    21    22   ar
    20    22    23   ar
    21    23    24   ar
    22    24    29    1
    23    29    30    1
    24    30    31    1
    25    30    32    1
    26    24    25   ar
    27    25    27    1
    28    27    28    3
    29    25    26   ar
    30     4     5   ar
    31     5     6   ar
    32    12     7   ar
    33     6     1   ar
    34    26    21   ar
@<TRIPOS>MOLECULE
*****
 32 34 0 0 0
SMALL
GASTEIGER

@<TRIPOS>ATOM
      1 C           0.9507    2.7274   19.5245 C.ar    1  UNL1        0.0381
      2 C          -0.1554    3.2179   18.6380 C.ar    1  UNL1        0.1021
      3 N          -1.5226    3.4568   19.2069 N.ar    1  UNL1       -0.2250
      4 C          -1.7837    3.2052   20.6625 C.ar    1  UNL1        0.1623
      5 N          -0.6775    2.7148   21.5491 N.ar    1  UNL1       -0.2250
      6 C           0.6897    2.4759   20.9800 C.ar    1  UNL1        0.1021
      7 C           2.7223    1.1084   18.5295 C.ar    1  UNL1       -0.0260
      8 C           4.0895    0.8695   17.9605 C.ar    1  UNL1       -0.0261
      9 C           5.0522    2.0109   17.8175 C.ar    1  UNL1       -0.0046
     10 C           4.6478    3.3911   18.2435 C.ar    1  UNL1       -0.0003
     11 C           3.2807    3.6299   18.8125 C.ar    1  UNL1       -0.0002
     12 C           2.3179    2.4885   18.9555 C.ar    1  UNL1       -0.0013
     13 C           1.7730   -0.8744   19.9142 C.3     1  UNL1        0.0050
     14 C           1.7596   -0.0330   18.6725 C.3     1  UNL1        0.0260
     15 C           4.4940   -0.5107   17.5345 C.3     1  UNL1        0.0264
     16 C           5.2505   -1.3959   18.4799 C.3     1  UNL1        0.0106
     17 C           5.3677   -2.8651   18.2006 C.3     1  UNL1        0.0421
     18 C           4.7086   -3.8569   19.1126 C.2     1  UNL1        0.0503
     19 O           5.5270   -4.6085   20.1202 O.co2   1  UNL1       -0.5492
     20 O           3.2311   -4.0970   19.0171 O.co2   1  UNL1       -0.5492
     21 C          -3.1508    3.4441   21.2315 C.ar    1  UNL1        0.0367
     22 C          -4.3334    3.5643   20.3166 C.ar    1  UNL1        0.0062
     23 C          -5.7006    3.8032   20.8856 C.ar    1  UNL1        0.0377
     24 C          -5.8852    3.9219   22.3695 C.ar    1  UNL1        0.1479
     25 C          -4.7026    3.8017   23.2843 C.ar    1  UNL1        0.1024
     26 C          -3.3354    3.5628   22.7153 C.ar    1  UNL1        0.0164
     27 C          -4.8871    3.9204   24.7682 C.1     1  UNL1        0.1035
     28 N          -5.0717    4.0391   26.2520 N.1     1  UNL1       -0.1907
     29 O          -7.2523    4.1608   22.9384 O.3     1  UNL1       -0.4785
     30 C          -7.6700    5.5473   23.3299 C.3     1  UNL1        0.1662
     31 C          -7.3709    6.7046   22.4239 C.3     1  UNL1        0.0472
     32 C          -8.3868    5.7763   24.6275 C.3     1  UNL1        0.0472
@<TRIPOS>UNITY_ATOM_ATTR
19 1
charge -1
@<TRIPOS>BOND
     1    13    14    1
     2    14     7    1
     3     7     8   ar
     4     8    15    1
     5    15    16    1
     6    16    17    1
     7    17    18    1
     8    18    19   ar
     9    18    20   ar
    10     8     9   ar
    11     9    10   ar
    12    10    11   ar
    13    11    12   ar
    14    12     1    1
    15     1     2   ar
    16     2     3   ar
    17     3     4   ar
    18     4    21    1
    19    21    22   ar
    20    22    23   ar
    21    23    24   ar
    22    24    29    1
    23    29    30    1
    24    30    31    1
    25    30    32    1
    26    24    25   ar
    27    25    27    1
    28    27    28    3
    29    25    26   ar
    30     4     5   ar
    31     5     6   ar
    32    12     7   ar
    33     6     1   ar
    34    26    21   ar
@<TRIPOS>MOLECULE
*****
 32 34 0 0 0
SMALL
GASTEIGER

@<TRIPOS>ATOM
      1 C           1.5990    2.1486   26.4962 C.ar    1  UNL1        0.0381
      2 C           0.4857    1.7137   25.5898 C.ar    1  UNL1        0.1021
      3 N           0.7938    0.9458   24.3387 N.ar    1  UNL1       -0.2250
      4 C           2.2152    0.6127   23.9939 C.ar    1  UNL1        0.1623
      5 N           3.3284    1.0476   24.9003 N.ar    1  UNL1       -0.2250
      6 C           3.0203    1.8156   26.1514 C.ar    1  UNL1        0.1021
      7 C           1.0260    2.1854   29.0301 C.ar    1  UNL1       -0.0260
      8 C           0.7179    2.9534   30.2812 C.ar    1  UNL1       -0.0261
      9 C           0.6747    4.4524   30.2496 C.ar    1  UNL1       -0.0046
     10 C           0.9395    5.1835   28.9669 C.ar    1  UNL1       -0.0003
     11 C           1.2476    4.4156   27.7158 C.ar    1  UNL1       -0.0002
     12 C           1.2909    2.9165   27.7474 C.ar    1  UNL1       -0.0013
     13 C          -0.1830   -0.1052   28.8266 C.3     1  UNL1        0.0050
     14 C           1.0693    0.6864   29.0617 C.3     1  UNL1        0.0260
     15 C           0.4530    2.2223   31.5639 C.3     1  UNL1        0.0264
     16 C           1.5285    2.1194   32.6044 C.3     1  UNL1        0.0106
     17 C           2.8823    1.5899   32.2341 C.3     1  UNL1        0.0421
     18 C           3.2190    0.1501   32.4859 C.2     1  UNL1        0.0503
     19 O           4.0411   -0.2298   33.6817 O.co2   1  UNL1       -0.5492
     20 O           2.7337   -0.9098   31.5420 O.co2   1  UNL1       -0.5492
     21 C           2.5232   -0.1552   22.7428 C.ar    1  UNL1        0.0367
     22 C           1.8154    0.1801   21.4635 C.ar    1  UNL1        0.0062
     23 C           2.1234   -0.5878   20.2124 C.ar    1  UNL1        0.0377
     24 C           3.1394   -1.6911   20.2405 C.ar    1  UNL1        0.1479
     25 C           3.8472   -2.0264   21.5197 C.ar    1  UNL1        0.1024
     26 C           3.5391   -1.2584   22.7709 C.ar    1  UNL1        0.0164
     27 C           4.8631   -3.1296   21.5479 C.1     1  UNL1        0.1035
     28 N           5.8790   -4.2328   21.5760 N.1     1  UNL1       -0.1907
     29 O           3.4474   -2.4590   18.9893 O.3     1  UNL1       -0.4785
     30 C           4.4206   -1.9063   17.9905 C.3     1  UNL1        0.1662
     31 C           3.9571   -0.9238   16.9563 C.3     1  UNL1        0.0472
     32 C           5.8572   -2.3362   18.0261 C.3     1  UNL1        0.0472
@<TRIPOS>UNITY_ATOM_ATTR
19 1
charge -1
@<TRIPOS>BOND
     1    13    14    1
     2    14     7    1
     3     7     8   ar
     4     8    15    1
     5    15    16    1
     6    16    17    1
     7    17    18    1
     8    18    19   ar
     9    18    20   ar
    10     8     9   ar
    11     9    10   ar
    12    10    11   ar
    13    11    12   ar
    14    12     1    1
    15     1     2   ar
    16     2     3   ar
    17     3     4   ar
    18     4    21    1
    19    21    22   ar
    20    22    23   ar
    21    23    24   ar
    22    24    29    1
    23    29    30    1
    24    30    31    1
    25    30    32    1
    26    24    25   ar
    27    25    27    1
    28    27    28    3
    29    25    26   ar
    30     4     5   ar
    31     5     6   ar
    32    12     7   ar
    33     6     1   ar
    34    26    21   ar
@<TRIPOS>MOLECULE
*****
 32 34 0 0 0
SMALL
GASTEIGER

@<TRIPOS>ATOM
      1 C           0.6543    2.6653   19.4895 C.ar    1  UNL1        0.0381
      2 C           0.2849    2.3815   20.9153 C.ar    1  UNL1        0.1021
      3 N          -1.0944    2.7010   21.4106 N.ar    1  UNL1       -0.2250
      4 C          -2.1045    3.3042   20.4800 C.ar    1  UNL1        0.1623
      5 N          -1.7352    3.5879   19.0541 N.ar    1  UNL1       -0.2250
      6 C          -0.3557    3.2684   18.5589 C.ar    1  UNL1        0.1021
      7 C           2.4039    0.9294   18.6675 C.ar    1  UNL1       -0.0260
      8 C           3.7833    0.6100   18.1723 C.ar    1  UNL1       -0.0261
      9 C           4.7924    1.7070   18.0038 C.ar    1  UNL1       -0.0046
     10 C           4.4222    3.1233   18.3305 C.ar    1  UNL1       -0.0003
     11 C           3.0428    3.4427   18.8257 C.ar    1  UNL1       -0.0002
     12 C           2.0337    2.3458   18.9942 C.ar    1  UNL1       -0.0013
     13 C           1.3099   -0.9157   20.1333 C.3     1  UNL1        0.0050
     14 C           1.3948   -0.1675   18.8360 C.3     1  UNL1        0.0260
     15 C           4.1536   -0.8064   17.8456 C.3     1  UNL1        0.0264
     16 C           4.7687   -1.6823   18.8965 C.3     1  UNL1        0.0106
     17 C           5.2188   -3.0699   18.5471 C.3     1  UNL1        0.0421
     18 C           5.2329   -4.1406   19.5975 C.2     1  UNL1        0.0503
     19 O           6.4597   -4.3551   20.4335 O.co2   1  UNL1       -0.5492
     20 O           4.0201   -4.9969   19.8118 O.co2   1  UNL1       -0.5492
     21 C          -3.4838    3.6236   20.9753 C.ar    1  UNL1        0.0367
     22 C          -3.7769    3.5993   22.4461 C.ar    1  UNL1        0.0062
     23 C          -5.1563    3.9187   22.9414 C.ar    1  UNL1        0.0377
     24 C          -6.2426    4.2625   21.9658 C.ar    1  UNL1        0.1479
     25 C          -5.9495    4.2868   20.4949 C.ar    1  UNL1        0.1024
     26 C          -4.5701    3.9674   19.9996 C.ar    1  UNL1        0.0164
     27 C          -7.0357    4.6306   19.5193 C.1     1  UNL1        0.1035
     28 N          -8.1220    4.9744   18.5437 N.1     1  UNL1       -0.1907
     29 O          -7.6219    4.5820   22.4610 O.3     1  UNL1       -0.4785
     30 C          -7.8697    5.8484   23.2257 C.3     1  UNL1        0.1662
     31 C          -7.6101    7.1773   22.5801 C.3     1  UNL1        0.0472
     32 C          -8.3771    5.7861   24.6359 C.3     1  UNL1        0.0472
@<TRIPOS>UNITY_ATOM_ATTR
19 1
charge -1
@<TRIPOS>BOND
     1    13    14    1
     2    14     7    1
     3     7     8   ar
     4     8    15    1
     5    15    16    1
     6    16    17    1
     7    17    18    1
     8    18    19   ar
     9    18    20   ar
    10     8     9   ar
    11     9    10   ar
    12    10    11   ar
    13    11    12   ar
    14    12     1    1
    15     1     2   ar
    16     2     3   ar
    17     3     4   ar
    18     4    21    1
    19    21    22   ar
    20    22    23   ar
    21    23    24   ar
    22    24    29    1
    23    29    30    1
    24    30    31    1
    25    30    32    1
    26    24    25   ar
    27    25    27    1
    28    27    28    3
    29    25    26   ar
    30     4     5   ar
    31     5     6   ar
    32    12     7   ar
    33     6     1   ar
    34    26    21   ar
@<TRIPOS>MOLECULE
*****
 32 34 0 0 0
SMALL
GASTEIGER

@<TRIPOS>ATOM
      1 C           6.8395   -1.5534   32.1977 C.ar    1  UNL1        0.0381
      2 C           6.8416   -0.6075   31.0335 C.ar    1  UNL1        0.1021
      3 N           6.8093   -1.1425   29.6325 N.ar    1  UNL1       -0.2250
      4 C           6.7749   -2.6233   29.3957 C.ar    1  UNL1        0.1623
      5 N           6.7728   -3.5692   30.5599 N.ar    1  UNL1       -0.2250
      6 C           6.8051   -3.0341   31.9610 C.ar    1  UNL1        0.1021
      7 C           5.5936   -0.8408   34.3634 C.ar    1  UNL1       -0.0260
      8 C           5.6259   -0.3058   35.7643 C.ar    1  UNL1       -0.0261
      9 C           6.9364    0.0517   36.4006 C.ar    1  UNL1       -0.0046
     10 C           8.2146   -0.1259   35.6359 C.ar    1  UNL1       -0.0003
     11 C           8.1822   -0.6609   34.2350 C.ar    1  UNL1       -0.0002
     12 C           6.8718   -1.0183   33.5987 C.ar    1  UNL1       -0.0013
     13 C           3.5403   -0.1784   32.9159 C.3     1  UNL1        0.0050
     14 C           4.2831   -1.1983   33.7271 C.3     1  UNL1        0.0260
     15 C           4.3477   -0.1283   36.5291 C.3     1  UNL1        0.0264
     16 C           4.1369    1.1010   37.3624 C.3     1  UNL1        0.0106
     17 C           2.7890    1.7580   37.4022 C.3     1  UNL1        0.0421
     18 C           1.9037    1.5815   38.6002 C.2     1  UNL1        0.0503
     19 O           0.6543    2.4003   38.7366 O.co2   1  UNL1       -0.5492
     20 O           2.2679    0.5863   39.6617 O.co2   1  UNL1       -0.5492
     21 C           6.7426   -3.1583   27.9947 C.ar    1  UNL1        0.0367
     22 C           6.5076   -2.2279   26.8419 C.ar    1  UNL1        0.0062
     23 C           6.4753   -2.7628   25.4409 C.ar    1  UNL1        0.0377
     24 C           6.6780   -4.2283   25.1928 C.ar    1  UNL1        0.1479
     25 C           6.9130   -5.1587   26.3456 C.ar    1  UNL1        0.1024
     26 C           6.9453   -4.6236   27.7467 C.ar    1  UNL1        0.0164
     27 C           7.1157   -6.6240   26.0976 C.1     1  UNL1        0.1035
     28 N           7.3183   -8.0894   25.8495 N.1     1  UNL1       -0.1907
     29 O           6.6457   -4.7632   23.7918 O.3     1  UNL1       -0.4785
     30 C           6.1271   -3.9078   22.6741 C.3     1  UNL1        0.1662
     31 C           7.0747   -3.0659   21.8722 C.3     1  UNL1        0.0472
     32 C           4.6608   -3.8943   22.3583 C.3     1  UNL1        0.0472
@<TRIPOS>UNITY_ATOM_ATTR
19 1
charge -1
@<TRIPOS>BOND
     1    13    14    1
     2    14     7    1
     3     7     8   ar
     4     8    15    1
     5    15    16    1
     6    16    17    1
     7    17    18    1
     8    18    19   ar
     9    18    20   ar
    10     8     9   ar
    11     9    10   ar
    12    10    11   ar
    13    11    12   ar
    14    12     1    1
    15     1     2   ar
    16     2     3   ar
    17     3     4   ar
    18     4    21    1
    19    21    22   ar
    20    22    23   ar
    21    23    24   ar
    22    24    29    1
    23    29    30    1
    24    30    31    1
    25    30    32    1
    26    24    25   ar
    27    25    27    1
    28    27    28    3
    29    25    26   ar
    30     4     5   ar
    31     5     6   ar
    32    12     7   ar
    33     6     1   ar
    34    26    21   ar
@<TRIPOS>MOLECULE
*****
 32 34 0 0 0
SMALL
GASTEIGER

@<TRIPOS>ATOM
      1 C           4.7532   -2.7448   22.9185 C.ar    1  UNL1        0.0381
      2 C           5.9133   -3.3342   23.6646 C.ar    1  UNL1        0.1021
      3 N           6.1299   -2.9891   25.1082 N.ar    1  UNL1       -0.2250
      4 C           5.1863   -2.0547   25.8057 C.ar    1  UNL1        0.1623
      5 N           4.0261   -1.4653   25.0596 N.ar    1  UNL1       -0.2250
      6 C           3.8096   -1.8104   23.6159 C.ar    1  UNL1        0.1021
      7 C           4.8450   -2.0814   20.4082 C.ar    1  UNL1       -0.0260
      8 C           4.6284   -2.4265   18.9646 C.ar    1  UNL1       -0.0261
      9 C           4.1037   -3.7802   18.5877 C.ar    1  UNL1       -0.0046
     10 C           3.7954   -4.7888   19.6543 C.ar    1  UNL1       -0.0003
     11 C           4.0119   -4.4437   21.0978 C.ar    1  UNL1       -0.0002
     12 C           4.5367   -3.0899   21.4748 C.ar    1  UNL1       -0.0013
     13 C           6.8476   -0.5052   20.9133 C.3     1  UNL1        0.0050
     14 C           5.3697   -0.7277   20.7851 C.3     1  UNL1        0.0260
     15 C           4.9367   -1.4179   17.8979 C.3     1  UNL1        0.0264
     16 C           3.8277   -0.6247   17.2727 C.3     1  UNL1        0.0106
     17 C           3.1675    0.4791   18.0447 C.3     1  UNL1        0.0421
     18 C           1.8155    0.2616   18.6569 C.2     1  UNL1        0.0503
     19 O           1.6446   -0.7381   19.7620 O.co2   1  UNL1       -0.5492
     20 O           0.6344    1.0437   18.1638 O.co2   1  UNL1       -0.5492
     21 C           5.4028   -1.7096   27.2493 C.ar    1  UNL1        0.0367
     22 C           6.7553   -1.8966   27.8704 C.ar    1  UNL1        0.0062
     23 C           6.9718   -1.5515   29.3140 C.ar    1  UNL1        0.0377
     24 C           5.8358   -1.0194   30.1366 C.ar    1  UNL1        0.1479
     25 C           4.4834   -0.8324   29.5154 C.ar    1  UNL1        0.1024
     26 C           4.2668   -1.1775   28.0718 C.ar    1  UNL1        0.0164
     27 C           3.3474   -0.3004   30.3379 C.1     1  UNL1        0.1035
     28 N           2.2115    0.2317   31.1604 N.1     1  UNL1       -0.1907
     29 O           6.0524   -0.6744   31.5802 O.3     1  UNL1       -0.4785
     30 C           5.6918   -1.6623   32.6497 C.3     1  UNL1        0.1662
     31 C           5.0324   -1.1932   33.9126 C.3     1  UNL1        0.0472
     32 C           5.9906   -3.1195   32.4563 C.3     1  UNL1        0.0472
@<TRIPOS>UNITY_ATOM_ATTR
19 1
charge -1
@<TRIPOS>BOND
     1    13    14    1
     2    14     7    1
     3     7     8   ar
     4     8    15    1
     5    15    16    1
     6    16    17    1
     7    17    18    1
     8    18    19   ar
     9    18    20   ar
    10     8     9   ar
    11     9    10   ar
    12    10    11   ar
    13    11    12   ar
    14    12     1    1
    15     1     2   ar
    16     2     3   ar
    17     3     4   ar
    18     4    21    1
    19    21    22   ar
    20    22    23   ar
    21    23    24   ar
    22    24    29    1
    23    29    30    1
    24    30    31    1
    25    30    32    1
    26    24    25   ar
    27    25    27    1
    28    27    28    3
    29    25    26   ar
    30     4     5   ar
    31     5     6   ar
    32    12     7   ar
    33     6     1   ar
    34    26    21   ar
@<TRIPOS>MOLECULE
*****
 32 34 0 0 0
SMALL
GASTEIGER

@<TRIPOS>ATOM
      1 C           5.5790   -2.1235   21.2185 C.ar    1  UNL1        0.0381
      2 C           7.0418   -1.9790   21.5175 C.ar    1  UNL1        0.1021
      3 N           7.6127   -2.5695   22.7726 N.ar    1  UNL1       -0.2250
      4 C           6.7208   -3.3046   23.7288 C.ar    1  UNL1        0.1623
      5 N           5.2580   -3.4491   23.4298 N.ar    1  UNL1       -0.2250
      6 C           4.6871   -2.8585   22.1747 C.ar    1  UNL1        0.1021
      7 C           4.5316   -0.1106   19.9530 C.ar    1  UNL1       -0.0260
      8 C           3.9608    0.4799   18.6978 C.ar    1  UNL1       -0.0261
      9 C           3.8664   -0.3518   17.4531 C.ar    1  UNL1       -0.0046
     10 C           4.3430   -1.7741   17.4635 C.ar    1  UNL1       -0.0003
     11 C           4.9138   -2.3646   18.7186 C.ar    1  UNL1       -0.0002
     12 C           5.0081   -1.5329   19.9634 C.ar    1  UNL1       -0.0013
     13 C           3.4850    0.7463   22.1711 C.3     1  UNL1        0.0050
     14 C           4.6260    0.7211   21.1977 C.3     1  UNL1        0.0260
     15 C           3.4842    1.9022   18.6874 C.3     1  UNL1        0.0264
     16 C           2.0147    2.2010   18.7182 C.3     1  UNL1        0.0106
     17 C           1.0197    1.0821   18.6272 C.3     1  UNL1        0.0421
     18 C           0.5470    0.3956   19.8742 C.2     1  UNL1        0.0503
     19 O          -0.4347    1.0780   20.7800 O.co2   1  UNL1       -0.5492
     20 O           1.0561   -0.9735   20.2155 O.co2   1  UNL1       -0.5492
     21 C           7.2917   -3.8952   24.9839 C.ar    1  UNL1        0.0367
     22 C           7.9195   -3.0038   26.0141 C.ar    1  UNL1        0.0062
     23 C           8.4904   -3.5943   27.2692 C.ar    1  UNL1        0.0377
     24 C           8.4335   -5.0763   27.4941 C.ar    1  UNL1        0.1479
     25 C           7.8057   -5.9677   26.4639 C.ar    1  UNL1        0.1024
     26 C           7.2348   -5.3771   25.2087 C.ar    1  UNL1        0.0164
     27 C           7.7489   -7.4496   26.6887 C.1     1  UNL1        0.1035
     28 N           7.6920   -8.9315   26.9136 N.1     1  UNL1       -0.1907
     29 O           9.0044   -5.6669   28.7492 O.3     1  UNL1       -0.4785
     30 C           8.1449   -5.8073   29.9704 C.3     1  UNL1        0.1662
     31 C           6.7028   -5.3971   29.9238 C.3     1  UNL1        0.0472
     32 C           8.7274   -6.3579   31.2383 C.3     1  UNL1        0.0472
@<TRIPOS>UNITY_ATOM_ATTR
19 1
charge -1
@<TRIPOS>BOND
     1    13    14    1
     2    14     7    1
     3     7     8   ar
     4     8    15    1
     5    15    16    1
     6    16    17    1
     7    17    18    1
     8    18    19   ar
     9    18    20   ar
    10     8     9   ar
    11     9    10   ar
    12    10    11   ar
    13    11    12   ar
    14    12     1    1
    15     1     2   ar
    16     2     3   ar
    17     3     4   ar
    18     4    21    1
    19    21    22   ar
    20    22    23   ar
    21    23    24   ar
    22    24    29    1
    23    29    30    1
    24    30    31    1
    25    30    32    1
    26    24    25   ar
    27    25    27    1
    28    27    28    3
    29    25    26   ar
    30     4     5   ar
    31     5     6   ar
    32    12     7   ar
    33     6     1   ar
    34    26    21   ar
@<TRIPOS>MOLECULE
*****
 32 34 0 0 0
SMALL
GASTEIGER

@<TRIPOS>ATOM
      1 C           6.1051   -2.3249   32.4811 C.ar    1  UNL1        0.0381
      2 C           4.7652   -2.4105   33.1498 C.ar    1  UNL1        0.1021
      3 N           4.4735   -1.5675   34.3557 N.ar    1  UNL1       -0.2250
      4 C           5.5219   -0.6388   34.8929 C.ar    1  UNL1        0.1623
      5 N           6.8618   -0.5531   34.2242 N.ar    1  UNL1       -0.2250
      6 C           7.1534   -1.3962   33.0182 C.ar    1  UNL1        0.1021
      7 C           6.1918   -2.6058   29.8997 C.ar    1  UNL1       -0.0260
      8 C           6.4834   -3.4489   28.6938 C.ar    1  UNL1       -0.0261
      9 C           6.9799   -4.8541   28.8634 C.ar    1  UNL1       -0.0046
     10 C           7.1848   -5.4163   30.2389 C.ar    1  UNL1       -0.0003
     11 C           6.8932   -4.5732   31.4447 C.ar    1  UNL1       -0.0002
     12 C           6.3967   -3.1680   31.2751 C.ar    1  UNL1       -0.0013
     13 C           4.2214   -0.9218   29.7215 C.3     1  UNL1        0.0050
     14 C           5.6952   -1.2006   29.7301 C.3     1  UNL1        0.0260
     15 C           6.2784   -2.8867   27.3183 C.3     1  UNL1        0.0264
     16 C           7.2924   -3.1454   26.2436 C.3     1  UNL1        0.0106
     17 C           6.9993   -4.1401   25.1597 C.3     1  UNL1        0.0421
     18 C           7.8818   -5.3403   24.9846 C.2     1  UNL1        0.0503
     19 O           7.6749   -6.2595   23.8174 O.co2   1  UNL1       -0.5492
     20 O           8.9712   -5.6214   25.9766 O.co2   1  UNL1       -0.5492
     21 C           5.2302    0.2043   36.0988 C.ar    1  UNL1        0.0367
     22 C           6.3153    1.0409   36.7093 C.ar    1  UNL1        0.0062
     23 C           6.0237    1.8839   37.9152 C.ar    1  UNL1        0.0377
     24 C           4.6469    1.8903   38.5107 C.ar    1  UNL1        0.1479
     25 C           3.5618    1.0537   37.9002 C.ar    1  UNL1        0.1024
     26 C           3.8535    0.2106   36.6943 C.ar    1  UNL1        0.0164
     27 C           2.1851    1.0601   38.4957 C.1     1  UNL1        0.1035
     28 N           0.8084    1.0665   39.0911 N.1     1  UNL1       -0.1907
     29 O           4.3553    2.7334   39.7166 O.3     1  UNL1       -0.4785
     30 C           4.0459    4.1922   39.5548 C.3     1  UNL1        0.1662
     31 C           4.2505    5.1342   40.7040 C.3     1  UNL1        0.0472
     32 C           3.5318    4.7090   38.2439 C.3     1  UNL1        0.0472
@<TRIPOS>UNITY_ATOM_ATTR
19 1
charge -1
@<TRIPOS>BOND
     1    13    14    1
     2    14     7    1
     3     7     8   ar
     4     8    15    1
     5    15    16    1
     6    16    17    1
     7    17    18    1
     8    18    19   ar
     9    18    20   ar
    10     8     9   ar
    11     9    10   ar
    12    10    11   ar
    13    11    12   ar
    14    12     1    1
    15     1     2   ar
    16     2     3   ar
    17     3     4   ar
    18     4    21    1
    19    21    22   ar
    20    22    23   ar
    21    23    24   ar
    22    24    29    1
    23    29    30    1
    24    30    31    1
    25    30    32    1
    26    24    25   ar
    27    25    27    1
    28    27    28    3
    29    25    26   ar
    30     4     5   ar
    31     5     6   ar
    32    12     7   ar
    33     6     1   ar
    34    26    21   ar
@<TRIPOS>MOLECULE
*****
 32 34 0 0 0
SMALL
GASTEIGER

@<TRIPOS>ATOM
      1 C           4.4203   -2.2621   23.2475 C.ar    1  UNL1        0.0381
      2 C           3.4511   -1.3773   23.9741 C.ar    1  UNL1        0.1021
      3 N           3.6646   -1.0636   25.4252 N.ar    1  UNL1       -0.2250
      4 C           4.8474   -1.6347   26.1499 C.ar    1  UNL1        0.1623
      5 N           5.8165   -2.5195   25.4233 N.ar    1  UNL1       -0.2250
      6 C           5.6029   -2.8332   23.9721 C.ar    1  UNL1        0.1021
      7 C           3.8963   -1.4728   20.8283 C.ar    1  UNL1       -0.0260
      8 C           3.6827   -1.7865   19.3771 C.ar    1  UNL1       -0.0261
      9 C           3.7796   -3.2032   18.8939 C.ar    1  UNL1       -0.0046
     10 C           4.0899   -4.3062   19.8619 C.ar    1  UNL1       -0.0003
     11 C           4.3035   -3.9925   21.3130 C.ar    1  UNL1       -0.0002
     12 C           4.2067   -2.5758   21.7962 C.ar    1  UNL1       -0.0013
     13 C           4.9960    0.8454   21.2363 C.3     1  UNL1        0.0050
     14 C           3.7995   -0.0560   21.3115 C.3     1  UNL1        0.0260
     15 C           3.3723   -0.6835   18.4091 C.3     1  UNL1        0.0264
     16 C           4.1168   -0.5941   17.1100 C.3     1  UNL1        0.0106
     17 C           5.4615    0.0689   17.0601 C.3     1  UNL1        0.0421
     18 C           6.6639   -0.6308   17.6208 C.2     1  UNL1        0.0503
     19 O           6.8622   -2.0968   17.3727 O.co2   1  UNL1       -0.5492
     20 O           7.6681    0.1354   18.4297 O.co2   1  UNL1       -0.5492
     21 C           5.0609   -1.3210   27.6011 C.ar    1  UNL1        0.0367
     22 C           6.3883   -1.6004   28.2414 C.ar    1  UNL1        0.0062
     23 C           6.6018   -1.2867   29.6926 C.ar    1  UNL1        0.0377
     24 C           5.4879   -0.6935   30.5035 C.ar    1  UNL1        0.1479
     25 C           4.1606   -0.4141   29.8632 C.ar    1  UNL1        0.1024
     26 C           3.9471   -0.7279   28.4119 C.ar    1  UNL1        0.0164
     27 C           3.0467    0.1790   30.6740 C.1     1  UNL1        0.1035
     28 N           1.9329    0.7721   31.4849 N.1     1  UNL1       -0.1907
     29 O           5.7015   -0.3798   31.9547 O.3     1  UNL1       -0.4785
     30 C           5.3194   -1.3825   33.0029 C.3     1  UNL1        0.1662
     31 C           4.7141   -0.9222   34.2958 C.3     1  UNL1        0.0472
     32 C           5.5425   -2.8454   32.7581 C.3     1  UNL1        0.0472
@<TRIPOS>UNITY_ATOM_ATTR
19 1
charge -1
@<TRIPOS>BOND
     1    13    14    1
     2    14     7    1
     3     7     8   ar
     4     8    15    1
     5    15    16    1
     6    16    17    1
     7    17    18    1
     8    18    19   ar
     9    18    20   ar
    10     8     9   ar
    11     9    10   ar
    12    10    11   ar
    13    11    12   ar
    14    12     1    1
    15     1     2   ar
    16     2     3   ar
    17     3     4   ar
    18     4    21    1
    19    21    22   ar
    20    22    23   ar
    21    23    24   ar
    22    24    29    1
    23    29    30    1
    24    30    31    1
    25    30    32    1
    26    24    25   ar
    27    25    27    1
    28    27    28    3
    29    25    26   ar
    30     4     5   ar
    31     5     6   ar
    32    12     7   ar
    33     6     1   ar
    34    26    21   ar
