@<TRIPOS>MOLECULE
*****
 30 34 0 0 0
SMALL
GASTEIGER

@<TRIPOS>ATOM
      1 O          -1.1638    2.7953   21.7353 O.2     1  UNL1       -0.2526
      2 C          -2.2472    3.5982   21.0781 C.2     1  UNL1        0.3039
      3 N          -2.1229    3.9854   19.6344 N.am    1  UNL1       -0.2901
      4 N          -3.4548    4.0138   21.8648 N.am    1  UNL1       -0.2642
      5 C          -3.5791    3.6266   23.3087 C.3     1  UNL1        0.0954
      6 C          -4.7867    4.0423   24.0954 C.3     1  UNL1        0.0309
      7 C          -5.8701    4.8451   23.4382 C.3     1  UNL1        0.0827
      8 C          -5.7457    5.2323   21.9944 C.3     1  UNL1        0.0309
      9 C          -4.5381    4.8167   21.2077 C.3     1  UNL1        0.0954
     10 H          -2.8339    4.5123   19.2030 H       1  UNL1        0.1509
     11 C          -7.0777    5.2608   24.2249 C.ar    1  UNL1        0.2362
     12 N          -8.5064    5.1042   23.7957 N.ar    1  UNL1       -0.1895
     13 C          -9.3803    5.6526   24.8844 C.ar    1  UNL1        0.2210
     14 N          -8.4918    6.1482   25.9866 N.ar    1  UNL1       -0.0544
     15 O          -7.0687    5.9061   25.5790 O.2     1  UNL1       -0.3370
     16 C         -10.8796    5.6975   24.8730 C.ar    1  UNL1        0.1203
     17 C         -11.6678    4.4223   24.8231 C.ar    1  UNL1        0.0224
     18 C         -13.1671    4.4671   24.8117 C.ar    1  UNL1        0.0032
     19 C         -13.8782    5.7873   24.8502 C.ar    1  UNL1        0.0207
     20 C         -13.0900    7.0625   24.9000 C.ar    1  UNL1        0.0989
     21 N         -11.5907    7.0177   24.9114 N.ar    1  UNL1       -0.2406
     22 C          -0.9153    3.5697   18.8477 C.3     1  UNL1        0.0774
     23 C           0.0492    3.8101   17.7243 C.3     1  UNL1        0.0259
     24 C           0.2119    2.6094   18.6085 C.3     1  UNL1        0.0420
     25 C           0.9566    1.3616   18.9808 C.ar    1  UNL1       -0.0208
     26 C           0.4365    0.4758   20.0739 C.ar    1  UNL1       -0.0042
     27 C           1.1812   -0.7719   20.4462 C.ar    1  UNL1       -0.0003
     28 C           2.4459   -1.1338   19.7254 C.ar    1  UNL1       -0.0000
     29 C           2.9659   -0.2480   18.6323 C.ar    1  UNL1       -0.0003
     30 C           2.2213    0.9997   18.2600 C.ar    1  UNL1       -0.0042
@<TRIPOS>BOND
     1     1     2    2
     2     2     3   am
     3     3    22    1
     4    22    23    1
     5    23    24    1
     6    24    25    1
     7    25    26   ar
     8    26    27   ar
     9    27    28   ar
    10    28    29   ar
    11    29    30   ar
    12     2     4   am
    13     4     5    1
    14     5     6    1
    15     6     7    1
    16     7    11    1
    17    11    12   ar
    18    12    13   ar
    19    13    16    1
    20    16    17   ar
    21    17    18   ar
    22    18    19   ar
    23    19    20   ar
    24    20    21   ar
    25    13    14   ar
    26    14    15   ar
    27     7     8    1
    28     8     9    1
    29    24    22    1
    30    30    25   ar
    31     9     4    1
    32    15    11   ar
    33    21    16   ar
    34     3    10    1
@<TRIPOS>MOLECULE
*****
 30 34 0 0 0
SMALL
GASTEIGER

@<TRIPOS>ATOM
      1 O          -0.8822    4.3038   19.2793 O.2     1  UNL1       -0.2526
      2 C          -0.8574    2.9180   19.8530 C.2     1  UNL1        0.3039
      3 N          -1.9763    2.4520   20.7366 N.am    1  UNL1       -0.2901
      4 N           0.2863    1.9983   19.5431 N.am    1  UNL1       -0.2642
      5 C           1.4053    2.4644   18.6595 C.3     1  UNL1        0.0954
      6 C           2.5490    1.5447   18.3496 C.3     1  UNL1        0.0309
      7 C           2.5738    0.1590   18.9234 C.3     1  UNL1        0.0827
      8 C           1.4549   -0.3070   19.8069 C.3     1  UNL1        0.0309
      9 C           0.3112    0.6126   20.1168 C.3     1  UNL1        0.0954
     10 H          -1.9601    1.5425   21.1132 H       1  UNL1        0.1509
     11 C           3.7176   -0.7607   18.6135 C.ar    1  UNL1        0.2362
     12 N           4.7890   -1.1893   19.5718 N.ar    1  UNL1       -0.1895
     13 C           5.7243   -2.1067   18.8415 C.ar    1  UNL1        0.2210
     14 N           5.2310   -2.2452   17.4317 N.ar    1  UNL1       -0.0544
     15 O           3.9908   -1.4133   17.2908 O.2     1  UNL1       -0.3370
     16 C           6.9396   -2.7694   19.4194 C.ar    1  UNL1        0.1203
     17 C           8.3079   -2.3461   18.9740 C.ar    1  UNL1        0.0224
     18 C           9.5233   -3.0086   19.5519 C.ar    1  UNL1        0.0032
     19 C           9.3702   -4.0945   20.5753 C.ar    1  UNL1        0.0207
     20 C           8.0019   -4.5178   21.0208 C.ar    1  UNL1        0.0989
     21 N           6.7865   -3.8552   20.4428 N.ar    1  UNL1       -0.2406
     22 C          -3.1201    3.3717   21.0465 C.3     1  UNL1        0.0774
     23 C          -4.2028    4.3003   20.5824 C.3     1  UNL1        0.0259
     24 C          -4.0184    4.0359   22.0474 C.3     1  UNL1        0.0420
     25 C          -4.4306    4.2669   23.4711 C.ar    1  UNL1       -0.0208
     26 C          -5.7075    4.9933   23.7737 C.ar    1  UNL1       -0.0042
     27 C          -6.1197    5.2241   25.1974 C.ar    1  UNL1       -0.0003
     28 C          -5.2548    4.7286   26.3183 C.ar    1  UNL1       -0.0000
     29 C          -3.9779    4.0022   26.0156 C.ar    1  UNL1       -0.0003
     30 C          -3.5658    3.7713   24.5920 C.ar    1  UNL1       -0.0042
@<TRIPOS>BOND
     1     1     2    2
     2     2     3   am
     3     3    22    1
     4    22    23    1
     5    23    24    1
     6    24    25    1
     7    25    26   ar
     8    26    27   ar
     9    27    28   ar
    10    28    29   ar
    11    29    30   ar
    12     2     4   am
    13     4     5    1
    14     5     6    1
    15     6     7    1
    16     7    11    1
    17    11    12   ar
    18    12    13   ar
    19    13    16    1
    20    16    17   ar
    21    17    18   ar
    22    18    19   ar
    23    19    20   ar
    24    20    21   ar
    25    13    14   ar
    26    14    15   ar
    27     7     8    1
    28     8     9    1
    29    24    22    1
    30    30    25   ar
    31     9     4    1
    32    15    11   ar
    33    21    16   ar
    34     3    10    1
@<TRIPOS>MOLECULE
*****
 30 34 0 0 0
SMALL
GASTEIGER

@<TRIPOS>ATOM
      1 O           5.0660   -0.9574   24.9135 O.2     1  UNL1       -0.2526
      2 C           3.8498   -0.6476   25.7350 C.2     1  UNL1        0.3039
      3 N           2.5721   -0.2438   25.0608 N.am    1  UNL1       -0.2901
      4 N           3.9112   -0.7416   27.2308 N.am    1  UNL1       -0.2642
      5 C           5.1889   -1.1454   27.9050 C.3     1  UNL1        0.0954
      6 C           5.2504   -1.2395   29.4008 C.3     1  UNL1        0.0309
      7 C           4.0342   -0.9297   30.2224 C.3     1  UNL1        0.0827
      8 C           2.7566   -0.5258   29.5482 C.3     1  UNL1        0.0309
      9 C           2.6951   -0.4318   28.0524 C.3     1  UNL1        0.0954
     10 H           1.7739   -0.0404   25.6000 H       1  UNL1        0.1509
     11 C           4.0957   -1.0237   31.7182 C.ar    1  UNL1        0.2362
     12 N           4.4854    0.0804   32.6558 N.ar    1  UNL1       -0.1895
     13 C           4.4088   -0.4518   34.0561 C.ar    1  UNL1        0.2210
     14 N           3.9718   -1.8849   33.9839 N.ar    1  UNL1       -0.0544
     15 O           3.7782   -2.2383   32.5391 O.2     1  UNL1       -0.3370
     16 C           4.7155    0.3145   35.3085 C.ar    1  UNL1        0.1203
     17 C           5.9262   -0.0331   36.1229 C.ar    1  UNL1        0.0224
     18 C           6.2330    0.7331   37.3754 C.ar    1  UNL1        0.0032
     19 C           5.3289    1.8470   37.8136 C.ar    1  UNL1        0.0207
     20 C           4.1182    2.1946   36.9992 C.ar    1  UNL1        0.0989
     21 N           3.8114    1.4283   35.7466 N.ar    1  UNL1       -0.2406
     22 C           2.5107   -0.1497   23.5650 C.3     1  UNL1        0.0774
     23 C           2.0862    0.5809   22.3258 C.3     1  UNL1        0.0259
     24 C           2.8287   -0.7176   22.2136 C.3     1  UNL1        0.0420
     25 C           3.4410   -1.7951   21.3686 C.ar    1  UNL1       -0.0208
     26 C           3.1169   -1.8767   19.9063 C.ar    1  UNL1       -0.0042
     27 C           3.7292   -2.9542   19.0614 C.ar    1  UNL1       -0.0003
     28 C           4.6656   -3.9502   19.6787 C.ar    1  UNL1       -0.0000
     29 C           4.9897   -3.8687   21.1410 C.ar    1  UNL1       -0.0003
     30 C           4.3774   -2.7911   21.9859 C.ar    1  UNL1       -0.0042
@<TRIPOS>BOND
     1     1     2    2
     2     2     3   am
     3     3    22    1
     4    22    23    1
     5    23    24    1
     6    24    25    1
     7    25    26   ar
     8    26    27   ar
     9    27    28   ar
    10    28    29   ar
    11    29    30   ar
    12     2     4   am
    13     4     5    1
    14     5     6    1
    15     6     7    1
    16     7    11    1
    17    11    12   ar
    18    12    13   ar
    19    13    16    1
    20    16    17   ar
    21    17    18   ar
    22    18    19   ar
    23    19    20   ar
    24    20    21   ar
    25    13    14   ar
    26    14    15   ar
    27     7     8    1
    28     8     9    1
    29    24    22    1
    30    30    25   ar
    31     9     4    1
    32    15    11   ar
    33    21    16   ar
    34     3    10    1
@<TRIPOS>MOLECULE
*****
 30 34 0 0 0
SMALL
GASTEIGER

@<TRIPOS>ATOM
      1 O           4.2585   -1.0783   23.4544 O.2     1  UNL1       -0.2526
      2 C           4.4491   -1.6358   24.8339 C.2     1  UNL1        0.3039
      3 N           5.3567   -2.8104   25.0493 N.am    1  UNL1       -0.2901
      4 N           3.7320   -1.0186   25.9979 N.am    1  UNL1       -0.2642
      5 C           2.8243    0.1560   25.7823 C.3     1  UNL1        0.0954
      6 C           2.1071    0.7731   26.9463 C.3     1  UNL1        0.0309
      7 C           2.2977    0.2156   28.3258 C.3     1  UNL1        0.0827
      8 C           3.2053   -0.9590   28.5413 C.3     1  UNL1        0.0309
      9 C           3.9225   -1.5761   27.3773 C.3     1  UNL1        0.0954
     10 H           5.4818   -3.1763   25.9547 H       1  UNL1        0.1509
     11 C           1.5806    0.8328   29.4898 C.ar    1  UNL1        0.2362
     12 N           2.2110    1.6360   30.5886 N.ar    1  UNL1       -0.1895
     13 C           1.1272    2.0547   31.5373 C.ar    1  UNL1        0.2210
     14 N          -0.1732    1.5102   31.0248 N.ar    1  UNL1       -0.0544
     15 O           0.1070    0.7550   29.7594 O.2     1  UNL1       -0.3370
     16 C           1.3113    2.8740   32.7802 C.ar    1  UNL1        0.1203
     17 C           2.1614    2.3547   33.9016 C.ar    1  UNL1        0.0224
     18 C           2.3457    3.1740   35.1445 C.ar    1  UNL1        0.0032
     19 C           1.6798    4.5126   35.2660 C.ar    1  UNL1        0.0207
     20 C           0.8297    5.0318   34.1446 C.ar    1  UNL1        0.0989
     21 N           0.6455    4.2125   32.9016 N.ar    1  UNL1       -0.2406
     22 C           6.0739   -3.4275   23.8853 C.3     1  UNL1        0.0774
     23 C           7.1971   -4.2628   23.3462 C.3     1  UNL1        0.0259
     24 C           6.1928   -3.6611   22.4085 C.3     1  UNL1        0.0420
     25 C           5.6815   -3.4486   21.0143 C.ar    1  UNL1       -0.0208
     26 C           6.5616   -2.8081   19.9822 C.ar    1  UNL1       -0.0042
     27 C           6.0504   -2.5956   18.5882 C.ar    1  UNL1       -0.0003
     28 C           4.6591   -3.0236   18.2262 C.ar    1  UNL1       -0.0000
     29 C           3.7790   -3.6641   19.2583 C.ar    1  UNL1       -0.0003
     30 C           4.2902   -3.8765   20.6523 C.ar    1  UNL1       -0.0042
@<TRIPOS>BOND
     1     1     2    2
     2     2     3   am
     3     3    22    1
     4    22    23    1
     5    23    24    1
     6    24    25    1
     7    25    26   ar
     8    26    27   ar
     9    27    28   ar
    10    28    29   ar
    11    29    30   ar
    12     2     4   am
    13     4     5    1
    14     5     6    1
    15     6     7    1
    16     7    11    1
    17    11    12   ar
    18    12    13   ar
    19    13    16    1
    20    16    17   ar
    21    17    18   ar
    22    18    19   ar
    23    19    20   ar
    24    20    21   ar
    25    13    14   ar
    26    14    15   ar
    27     7     8    1
    28     8     9    1
    29    24    22    1
    30    30    25   ar
    31     9     4    1
    32    15    11   ar
    33    21    16   ar
    34     3    10    1
@<TRIPOS>MOLECULE
*****
 30 34 0 0 0
SMALL
GASTEIGER

@<TRIPOS>ATOM
      1 O           6.4313   -4.6664   22.5697 O.2     1  UNL1       -0.2526
      2 C           5.6376   -3.6121   23.2828 C.2     1  UNL1        0.3039
      3 N           5.7632   -3.4559   24.7693 N.am    1  UNL1       -0.2901
      4 N           4.7184   -2.7139   22.5093 N.am    1  UNL1       -0.2642
      5 C           4.5929   -2.8701   21.0227 C.3     1  UNL1        0.0954
      6 C           3.6737   -1.9720   20.2492 C.3     1  UNL1        0.0309
      7 C           2.8800   -0.9176   20.9622 C.3     1  UNL1        0.0827
      8 C           3.0055   -0.7614   22.4488 C.3     1  UNL1        0.0309
      9 C           3.9247   -1.6596   23.2223 C.3     1  UNL1        0.0954
     10 H           5.2422   -2.7639   25.2373 H       1  UNL1        0.1509
     11 C           1.9608   -0.0194   20.1887 C.ar    1  UNL1        0.2362
     12 N           0.9964    0.9696   20.7733 N.ar    1  UNL1       -0.1895
     13 C           0.2841    1.6477   19.6407 C.ar    1  UNL1        0.2210
     14 N           0.8083    1.0778   18.3560 N.ar    1  UNL1       -0.0544
     15 O           1.8445    0.0475   18.6947 O.2     1  UNL1       -0.3370
     16 C          -0.7677    2.7093   19.7700 C.ar    1  UNL1        0.1203
     17 C          -0.8366    3.8229   18.7674 C.ar    1  UNL1        0.0224
     18 C          -1.8883    4.8846   18.8967 C.ar    1  UNL1        0.0032
     19 C          -2.8712    4.8326   20.0286 C.ar    1  UNL1        0.0207
     20 C          -2.8023    3.7190   21.0312 C.ar    1  UNL1        0.0989
     21 N          -1.7505    2.6573   20.9019 N.ar    1  UNL1       -0.2406
     22 C           6.6824   -4.3540   25.5429 C.3     1  UNL1        0.0774
     23 C           7.7554   -5.4018   25.5702 C.3     1  UNL1        0.0259
     24 C           7.2015   -4.8619   26.8553 C.3     1  UNL1        0.0420
     25 C           7.1814   -4.8433   28.3551 C.ar    1  UNL1       -0.0208
     26 C           7.7030   -6.0190   29.1268 C.ar    1  UNL1       -0.0042
     27 C           7.6829   -6.0004   30.6265 C.ar    1  UNL1       -0.0003
     28 C           7.1411   -4.8061   31.3546 C.ar    1  UNL1       -0.0000
     29 C           6.6195   -3.6304   30.5829 C.ar    1  UNL1       -0.0003
     30 C           6.6396   -3.6490   29.0832 C.ar    1  UNL1       -0.0042
@<TRIPOS>BOND
     1     1     2    2
     2     2     3   am
     3     3    22    1
     4    22    23    1
     5    23    24    1
     6    24    25    1
     7    25    26   ar
     8    26    27   ar
     9    27    28   ar
    10    28    29   ar
    11    29    30   ar
    12     2     4   am
    13     4     5    1
    14     5     6    1
    15     6     7    1
    16     7    11    1
    17    11    12   ar
    18    12    13   ar
    19    13    16    1
    20    16    17   ar
    21    17    18   ar
    22    18    19   ar
    23    19    20   ar
    24    20    21   ar
    25    13    14   ar
    26    14    15   ar
    27     7     8    1
    28     8     9    1
    29    24    22    1
    30    30    25   ar
    31     9     4    1
    32    15    11   ar
    33    21    16   ar
    34     3    10    1
@<TRIPOS>MOLECULE
*****
 30 34 0 0 0
SMALL
GASTEIGER

@<TRIPOS>ATOM
      1 O          -0.1824    2.7549   22.9915 O.2     1  UNL1       -0.2526
      2 C           0.0408    1.8481   21.8176 C.2     1  UNL1        0.3039
      3 N          -0.8047    1.9922   20.5871 N.am    1  UNL1       -0.2901
      4 N           1.1096    0.7971   21.8743 N.am    1  UNL1       -0.2642
      5 C           1.9551    0.6530   23.1049 C.3     1  UNL1        0.0954
      6 C           3.0239   -0.3979   23.1617 C.3     1  UNL1        0.0309
      7 C           3.2472   -1.3047   21.9878 C.3     1  UNL1        0.0827
      8 C           2.4016   -1.1606   20.7572 C.3     1  UNL1        0.0309
      9 C           1.3328   -0.1097   20.7005 C.3     1  UNL1        0.0954
     10 H          -0.6582    1.3971   19.8166 H       1  UNL1        0.1509
     11 C           4.3160   -2.3557   22.0445 C.ar    1  UNL1        0.2362
     12 N           4.9776   -2.8742   23.2868 N.ar    1  UNL1       -0.1895
     13 C           5.9813   -3.9116   22.8790 C.ar    1  UNL1        0.2210
     14 N           5.9401   -4.0342   21.3846 N.ar    1  UNL1       -0.0544
     15 O           4.9108   -3.0726   20.8689 O.2     1  UNL1       -0.3370
     16 C           6.8702   -4.6898   23.8033 C.ar    1  UNL1        0.1203
     17 C           6.9268   -4.3396   25.2607 C.ar    1  UNL1        0.0224
     18 C           7.8157   -5.1176   26.1852 C.ar    1  UNL1        0.0032
     19 C           8.6480   -6.2459   25.6520 C.ar    1  UNL1        0.0207
     20 C           8.5914   -6.5961   24.1946 C.ar    1  UNL1        0.0989
     21 N           7.7025   -5.8180   23.2702 N.ar    1  UNL1       -0.2406
     22 C          -1.8735    3.0432   20.5303 C.3     1  UNL1        0.0774
     23 C          -2.5331    4.1882   19.8205 C.3     1  UNL1        0.0259
     24 C          -3.0652    3.7184   21.1419 C.3     1  UNL1        0.0420
     25 C          -4.0604    3.8369   22.2580 C.ar    1  UNL1       -0.0208
     26 C          -3.6112    3.6929   23.6818 C.ar    1  UNL1       -0.0042
     27 C          -4.6064    3.8114   24.7978 C.ar    1  UNL1       -0.0003
     28 C          -6.0508    4.0741   24.4899 C.ar    1  UNL1       -0.0000
     29 C          -6.5000    4.2182   23.0661 C.ar    1  UNL1       -0.0003
     30 C          -5.5048    4.0996   21.9501 C.ar    1  UNL1       -0.0042
@<TRIPOS>BOND
     1     1     2    2
     2     2     3   am
     3     3    22    1
     4    22    23    1
     5    23    24    1
     6    24    25    1
     7    25    26   ar
     8    26    27   ar
     9    27    28   ar
    10    28    29   ar
    11    29    30   ar
    12     2     4   am
    13     4     5    1
    14     5     6    1
    15     6     7    1
    16     7    11    1
    17    11    12   ar
    18    12    13   ar
    19    13    16    1
    20    16    17   ar
    21    17    18   ar
    22    18    19   ar
    23    19    20   ar
    24    20    21   ar
    25    13    14   ar
    26    14    15   ar
    27     7     8    1
    28     8     9    1
    29    24    22    1
    30    30    25   ar
    31     9     4    1
    32    15    11   ar
    33    21    16   ar
    34     3    10    1
@<TRIPOS>MOLECULE
*****
 30 34 0 0 0
SMALL
GASTEIGER

@<TRIPOS>ATOM
      1 O           4.8129   -3.8260   20.3401 O.2     1  UNL1       -0.2526
      2 C           4.9386   -2.6112   21.2111 C.2     1  UNL1        0.3039
      3 N           6.0822   -2.4944   22.1748 N.am    1  UNL1       -0.2901
      4 N           3.9208   -1.5133   21.1184 N.am    1  UNL1       -0.2642
      5 C           2.7772   -1.6302   20.1547 C.3     1  UNL1        0.0954
      6 C           1.7594   -0.5322   20.0620 C.3     1  UNL1        0.0309
      7 C           1.8851    0.6826   20.9330 C.3     1  UNL1        0.0827
      8 C           3.0287    0.7994   21.8966 C.3     1  UNL1        0.0309
      9 C           4.0465   -0.2985   21.9893 C.3     1  UNL1        0.0954
     10 H           6.1647   -1.6971   22.7464 H       1  UNL1        0.1509
     11 C           0.8673    1.7805   20.8402 C.ar    1  UNL1        0.2362
     12 N          -0.6025    1.6022   20.5994 N.ar    1  UNL1       -0.1895
     13 C          -1.2376    2.9610   20.5824 C.ar    1  UNL1        0.2210
     14 N          -0.1604    3.9791   20.8127 N.ar    1  UNL1       -0.0544
     15 O           1.1405    3.2495   20.9721 O.2     1  UNL1       -0.3370
     16 C          -2.6942    3.2507   20.3720 C.ar    1  UNL1        0.1203
     17 C          -3.1764    3.7412   19.0390 C.ar    1  UNL1        0.0224
     18 C          -4.6330    4.0310   18.8284 C.ar    1  UNL1        0.0032
     19 C          -5.6075    3.8303   19.9511 C.ar    1  UNL1        0.0207
     20 C          -5.1253    3.3399   21.2841 C.ar    1  UNL1        0.0989
     21 N          -3.6686    3.0501   21.4945 N.ar    1  UNL1       -0.2406
     22 C           7.1000   -3.5923   22.2675 C.3     1  UNL1        0.0774
     23 C           8.2718   -4.3295   21.6901 C.3     1  UNL1        0.0259
     24 C           7.6911   -4.7567   23.0055 C.3     1  UNL1        0.0420
     25 C           7.6971   -5.6757   24.1910 C.ar    1  UNL1       -0.0208
     26 C           8.3942   -7.0013   24.1089 C.ar    1  UNL1       -0.0042
     27 C           8.4002   -7.9202   25.2945 C.ar    1  UNL1       -0.0003
     28 C           7.7090   -7.5135   26.5621 C.ar    1  UNL1       -0.0000
     29 C           7.0119   -6.1879   26.6442 C.ar    1  UNL1       -0.0003
     30 C           7.0059   -5.2690   25.4587 C.ar    1  UNL1       -0.0042
@<TRIPOS>BOND
     1     1     2    2
     2     2     3   am
     3     3    22    1
     4    22    23    1
     5    23    24    1
     6    24    25    1
     7    25    26   ar
     8    26    27   ar
     9    27    28   ar
    10    28    29   ar
    11    29    30   ar
    12     2     4   am
    13     4     5    1
    14     5     6    1
    15     6     7    1
    16     7    11    1
    17    11    12   ar
    18    12    13   ar
    19    13    16    1
    20    16    17   ar
    21    17    18   ar
    22    18    19   ar
    23    19    20   ar
    24    20    21   ar
    25    13    14   ar
    26    14    15   ar
    27     7     8    1
    28     8     9    1
    29    24    22    1
    30    30    25   ar
    31     9     4    1
    32    15    11   ar
    33    21    16   ar
    34     3    10    1
@<TRIPOS>MOLECULE
*****
 30 34 0 0 0
SMALL
GASTEIGER

@<TRIPOS>ATOM
      1 O          -0.6890    2.7372   20.3342 O.2     1  UNL1       -0.2526
      2 C           0.1640    2.1096   19.2719 C.2     1  UNL1        0.3039
      3 N           0.0487    2.5690   17.8487 N.am    1  UNL1       -0.2901
      4 N           1.1324    1.0224   19.6329 N.am    1  UNL1       -0.2642
      5 C           1.2478    0.5629   21.0562 C.3     1  UNL1        0.0954
      6 C           2.2162   -0.5242   21.4172 C.3     1  UNL1        0.0309
      7 C           3.0693   -1.1519   20.3549 C.3     1  UNL1        0.0827
      8 C           2.9539   -0.6924   18.9317 C.3     1  UNL1        0.0309
      9 C           1.9855    0.3948   18.5707 C.3     1  UNL1        0.0954
     10 H           0.6086    2.1571   17.1515 H       1  UNL1        0.1509
     11 C           4.0377   -2.2390   20.7159 C.ar    1  UNL1        0.2362
     12 N           4.6923   -2.4287   22.0521 N.ar    1  UNL1       -0.1895
     13 C           5.5807   -3.6343   21.9661 C.ar    1  UNL1        0.2210
     14 N           5.4751   -4.1897   20.5767 N.ar    1  UNL1       -0.0544
     15 O           4.5215   -3.3274   19.8041 O.2     1  UNL1       -0.3370
     16 C           6.4262   -4.1873   23.0748 C.ar    1  UNL1        0.1203
     17 C           6.2517   -3.6800   24.4756 C.ar    1  UNL1        0.0224
     18 C           7.0972   -4.2329   25.5844 C.ar    1  UNL1        0.0032
     19 C           8.1172   -5.2933   25.2923 C.ar    1  UNL1        0.0207
     20 C           8.2917   -5.8006   23.8916 C.ar    1  UNL1        0.0989
     21 N           7.4462   -5.2476   22.7828 N.ar    1  UNL1       -0.2406
     22 C          -0.9197    3.6562   17.4877 C.3     1  UNL1        0.0774
     23 C          -1.2247    4.9401   16.7746 C.3     1  UNL1        0.0259
     24 C          -2.2921    4.2552   17.5756 C.3     1  UNL1        0.0420
     25 C          -3.7007    4.2057   18.0888 C.ar    1  UNL1       -0.0208
     26 C          -4.8192    4.7727   17.2658 C.ar    1  UNL1       -0.0042
     27 C          -6.2277    4.7231   17.7791 C.ar    1  UNL1       -0.0003
     28 C          -6.5178    4.1065   19.1153 C.ar    1  UNL1       -0.0000
     29 C          -5.3993    3.5395   19.9384 C.ar    1  UNL1       -0.0003
     30 C          -3.9908    3.5891   19.4251 C.ar    1  UNL1       -0.0042
@<TRIPOS>BOND
     1     1     2    2
     2     2     3   am
     3     3    22    1
     4    22    23    1
     5    23    24    1
     6    24    25    1
     7    25    26   ar
     8    26    27   ar
     9    27    28   ar
    10    28    29   ar
    11    29    30   ar
    12     2     4   am
    13     4     5    1
    14     5     6    1
    15     6     7    1
    16     7    11    1
    17    11    12   ar
    18    12    13   ar
    19    13    16    1
    20    16    17   ar
    21    17    18   ar
    22    18    19   ar
    23    19    20   ar
    24    20    21   ar
    25    13    14   ar
    26    14    15   ar
    27     7     8    1
    28     8     9    1
    29    24    22    1
    30    30    25   ar
    31     9     4    1
    32    15    11   ar
    33    21    16   ar
    34     3    10    1
@<TRIPOS>MOLECULE
*****
 30 34 0 0 0
SMALL
GASTEIGER

@<TRIPOS>ATOM
      1 O           3.2702    0.2696   22.6651 O.2     1  UNL1       -0.2526
      2 C           1.8807    0.6700   23.0640 C.2     1  UNL1        0.3039
      3 N           0.8189    0.8371   22.0179 N.am    1  UNL1       -0.2901
      4 N           1.5532    0.9033   24.5091 N.am    1  UNL1       -0.2642
      5 C           2.6152    0.7362   25.5553 C.3     1  UNL1        0.0954
      6 C           2.2877    0.9695   27.0004 C.3     1  UNL1        0.0309
      7 C           0.8982    1.3700   27.3993 C.3     1  UNL1        0.0827
      8 C          -0.1637    1.5370   26.3532 C.3     1  UNL1        0.0309
      9 C           0.1638    1.3037   24.9081 C.3     1  UNL1        0.0954
     10 H          -0.0931    1.0999   22.2797 H       1  UNL1        0.1509
     11 C           0.5706    1.6033   28.8444 C.ar    1  UNL1        0.2362
     12 N           1.0573    2.7460   29.6854 N.ar    1  UNL1       -0.1895
     13 C           0.4864    2.5838   31.0630 C.ar    1  UNL1        0.2210
     14 N          -0.3532    1.3408   31.0734 N.ar    1  UNL1       -0.0544
     15 O          -0.3011    0.7348   29.7022 O.2     1  UNL1       -0.3370
     16 C           0.7149    3.5032   32.2260 C.ar    1  UNL1        0.1203
     17 C          -0.1643    4.7033   32.4173 C.ar    1  UNL1        0.0224
     18 C           0.0642    5.6228   33.5802 C.ar    1  UNL1        0.0032
     19 C           1.1719    5.3420   34.5519 C.ar    1  UNL1        0.0207
     20 C           2.0511    4.1419   34.3606 C.ar    1  UNL1        0.0989
     21 N           1.8226    3.2224   33.1976 N.ar    1  UNL1       -0.2406
     22 C           1.1464    0.6038   20.5728 C.3     1  UNL1        0.0774
     23 C           0.8824    0.8735   19.1211 C.3     1  UNL1        0.0259
     24 C           1.9776   -0.0700   19.5216 C.3     1  UNL1        0.0420
     25 C           3.0899   -1.0037   19.1460 C.ar    1  UNL1       -0.0208
     26 C           3.1535   -2.3755   19.7493 C.ar    1  UNL1       -0.0042
     27 C           4.2657   -3.3092   19.3736 C.ar    1  UNL1       -0.0003
     28 C           5.3144   -2.8710   18.3946 C.ar    1  UNL1       -0.0000
     29 C           5.2508   -1.4992   17.7913 C.ar    1  UNL1       -0.0003
     30 C           4.1386   -0.5655   18.1670 C.ar    1  UNL1       -0.0042
@<TRIPOS>BOND
     1     1     2    2
     2     2     3   am
     3     3    22    1
     4    22    23    1
     5    23    24    1
     6    24    25    1
     7    25    26   ar
     8    26    27   ar
     9    27    28   ar
    10    28    29   ar
    11    29    30   ar
    12     2     4   am
    13     4     5    1
    14     5     6    1
    15     6     7    1
    16     7    11    1
    17    11    12   ar
    18    12    13   ar
    19    13    16    1
    20    16    17   ar
    21    17    18   ar
    22    18    19   ar
    23    19    20   ar
    24    20    21   ar
    25    13    14   ar
    26    14    15   ar
    27     7     8    1
    28     8     9    1
    29    24    22    1
    30    30    25   ar
    31     9     4    1
    32    15    11   ar
    33    21    16   ar
    34     3    10    1
