@<TRIPOS>MOLECULE
*****
 45 50 0 0 0
SMALL
GASTEIGER

@<TRIPOS>ATOM
      1 C           3.1205    0.2031   20.1738 C.2     1  UNL1        0.0141
      2 C           3.3222   -0.3287   18.7857 C.2     1  UNL1        0.1370
      3 F           2.9589    0.5145   17.5994 F       1  UNL1       -0.2045
      4 C           3.8871   -1.7035   18.5840 C.2     1  UNL1        0.0350
      5 C           4.2504   -2.5465   19.7702 C.2     1  UNL1        0.0695
      6 C           4.0487   -2.0148   21.1582 C.2     1  UNL1        0.0705
      7 N           4.3121   -2.6106   22.5094 N.2     1  UNL1       -0.2538
      8 C           3.9099   -1.6040   23.5463 C.2     1  UNL1        0.0514
      9 C           3.3979   -0.3861   22.8359 C.2     1  UNL1       -0.0213
     10 C           3.4838   -0.6400   21.3600 C.3     1  UNL1        0.0841
     11 C           2.9198    0.7967   23.6247 C.3     1  UNL1        0.0240
     12 C           2.9535    0.7617   25.1239 C.3     1  UNL1        0.0071
     13 C           3.4654   -0.4562   25.8342 C.3     1  UNL1        0.0309
     14 C           3.9436   -1.6391   25.0455 C.3     1  UNL1        0.0475
     15 C           0.1627    0.5748   20.5109 C.3     1  UNL1        0.0325
     16 C           1.0766    1.7637   20.5441 C.ar    1  UNL1       -0.0057
     17 C           2.5555    1.5780   20.3755 C.ar    1  UNL1       -0.0037
     18 C           3.4694    2.7669   20.4086 C.ar    1  UNL1       -0.0004
     19 C           2.9045    4.1417   20.6103 C.ar    1  UNL1        0.0015
     20 C           1.4257    4.3276   20.7789 C.ar    1  UNL1        0.0174
     21 C           0.5117    3.1386   20.7458 C.ar    1  UNL1        0.0671
     22 N          -0.9671    3.3244   20.9144 N.ar    1  UNL1       -0.2275
     23 C          -1.5707    3.3299   22.2877 C.ar    1  UNL1        0.2695
     24 O          -0.6953    3.1494   23.4923 O.2     1  UNL1       -0.2665
     25 C          -3.0495    3.5157   22.4562 C.ar    1  UNL1        0.0747
     26 C          -3.6530    3.5212   23.8295 C.ar    1  UNL1        0.0063
     27 C          -5.1318    3.7070   23.9981 C.ar    1  UNL1        0.0026
     28 C          -6.0072    3.8874   22.7934 C.ar    1  UNL1        0.0311
     29 C          -5.4037    3.8820   21.4202 C.ar    1  UNL1        0.1560
     30 F          -6.2791    4.0624   20.2155 F       1  UNL1       -0.2026
     31 C          -3.9249    3.6962   21.2516 C.ar    1  UNL1        0.0959
     32 N          -3.3214    3.6907   19.8783 N.ar    1  UNL1       -0.2767
     33 C          -4.1967    3.8711   18.6736 C.3     1  UNL1        0.1352
     34 C          -1.8425    3.5049   19.7097 C.ar    1  UNL1        0.3378
     35 O          -1.2390    3.4994   18.3366 O.2     1  UNL1       -0.2458
     36 C           4.8154   -3.9213   19.5684 C.2     1  UNL1        0.2440
     37 N           4.1756   -4.8585   18.5876 N.am    1  UNL1       -0.3253
     38 O           6.0202   -4.3589   20.3476 O.2     1  UNL1       -0.2703
     39 H           3.3849   -4.5714   18.0762 H       1  UNL1        0.1453
     40 H           4.5464   -5.7609   18.4551 H       1  UNL1        0.1453
     41 C           3.4992   -0.4913   27.3335 C.3     1  UNL1        0.0888
     42 C           2.4731    0.6017   27.3821 C.3     1  UNL1        0.0293
     43 C           4.5253   -1.5843   27.2849 C.3     1  UNL1        0.0293
     44 O           3.5329   -0.5263   28.8327 O.3     1  UNL1       -0.3867
     45 H           2.9145    0.1326   29.1855 H       1  UNL1        0.2102
@<TRIPOS>BOND
     1    15    16    1
     2    16    17   ar
     3    17     1    1
     4     1     2    2
     5     2     3    1
     6     2     4    1
     7     4     5    2
     8     5    36    1
     9    36    37   am
    10    36    38    2
    11     5     6    1
    12     6     7    2
    13     7     8    1
    14     8     9    2
    15     9    10    1
    16     9    11    1
    17    11    12    1
    18    12    13    1
    19    13    41    1
    20    41    42    1
    21    41    43    1
    22    41    44    1
    23    13    14    1
    24    17    18   ar
    25    18    19   ar
    26    19    20   ar
    27    20    21   ar
    28    21    22    1
    29    22    23   ar
    30    23    24    2
    31    23    25   ar
    32    25    26   ar
    33    26    27   ar
    34    27    28   ar
    35    28    29   ar
    36    29    30    1
    37    29    31   ar
    38    31    32   ar
    39    32    33    1
    40    32    34   ar
    41    34    35    2
    42    21    16   ar
    43    34    22   ar
    44    10     1    1
    45    31    25   ar
    46    10     6    1
    47    14     8    1
    48    37    39    1
    49    37    40    1
    50    44    45    1
@<TRIPOS>MOLECULE
*****
 45 50 0 0 0
SMALL
GASTEIGER

@<TRIPOS>ATOM
      1 C           3.1011    0.2148   20.1754 C.2     1  UNL1        0.0141
      2 C           3.3111   -0.3178   18.7889 C.2     1  UNL1        0.1370
      3 F           2.9447    0.5204   17.6001 F       1  UNL1       -0.2045
      4 C           3.8873   -1.6885   18.5913 C.2     1  UNL1        0.0350
      5 C           4.2537   -2.5266   19.7801 C.2     1  UNL1        0.0695
      6 C           4.0438   -1.9941   21.1666 C.2     1  UNL1        0.0705
      7 N           4.3077   -2.5854   22.5196 N.2     1  UNL1       -0.2538
      8 C           3.8946   -1.5802   23.5534 C.2     1  UNL1        0.0514
      9 C           3.3753   -0.3676   22.8394 C.2     1  UNL1       -0.0213
     10 C           3.4675   -0.6234   21.3642 C.3     1  UNL1        0.0841
     11 C           2.8856    0.8129   23.6247 C.3     1  UNL1        0.0240
     12 C           2.9152    0.7807   25.1240 C.3     1  UNL1        0.0071
     13 C           3.4345   -0.4320   25.8381 C.3     1  UNL1        0.0309
     14 C           3.9242   -1.6124   25.0528 C.3     1  UNL1        0.0475
     15 C           0.1281    0.5835   20.3348 C.3     1  UNL1        0.0325
     16 C           1.0383    1.7698   20.4527 C.ar    1  UNL1       -0.0057
     17 C           2.5249    1.5855   20.3731 C.ar    1  UNL1       -0.0037
     18 C           3.4351    2.7719   20.4910 C.ar    1  UNL1       -0.0004
     19 C           2.8589    4.1426   20.6887 C.ar    1  UNL1        0.0015
     20 C           1.3724    4.3269   20.7683 C.ar    1  UNL1        0.0174
     21 C           0.4621    3.1405   20.6503 C.ar    1  UNL1        0.0671
     22 N          -1.0244    3.3249   20.7300 N.ar    1  UNL1       -0.2275
     23 C          -1.8256    3.5095   19.4753 C.ar    1  UNL1        0.2695
     24 O          -1.1402    3.5099   18.1411 O.2     1  UNL1       -0.2665
     25 C          -3.3120    3.6939   19.5550 C.ar    1  UNL1        0.0747
     26 C          -4.1132    3.8785   18.3004 C.ar    1  UNL1        0.0063
     27 C          -5.5996    4.0629   18.3800 C.ar    1  UNL1        0.0026
     28 C          -6.2850    4.0625   19.7143 C.ar    1  UNL1        0.0311
     29 C          -5.4839    3.8779   20.9689 C.ar    1  UNL1        0.1560
     30 F          -6.1693    3.8775   22.3032 F       1  UNL1       -0.2026
     31 C          -3.9974    3.6935   20.8893 C.ar    1  UNL1        0.0959
     32 N          -3.1962    3.5089   22.1440 N.ar    1  UNL1       -0.2767
     33 C          -3.8816    3.5085   23.4782 C.3     1  UNL1        0.1352
     34 C          -1.7097    3.3245   22.0643 C.ar    1  UNL1        0.3378
     35 O          -0.9086    3.1399   23.3188 O.2     1  UNL1       -0.2458
     36 C           4.8299   -3.8973   19.5824 C.2     1  UNL1        0.2440
     37 N           4.2305   -4.8235   18.5662 N.am    1  UNL1       -0.3253
     38 O           6.0057   -4.3419   20.4010 O.2     1  UNL1       -0.2703
     39 H           3.4588   -4.5318   18.0289 H       1  UNL1        0.1453
     40 H           4.6087   -5.7232   18.4364 H       1  UNL1        0.1453
     41 C           3.4641   -0.4641   27.3375 C.3     1  UNL1        0.0888
     42 C           2.4462    0.6368   27.3811 C.3     1  UNL1        0.0293
     43 C           4.4819   -1.5650   27.2938 C.3     1  UNL1        0.0293
     44 O           3.4936   -0.4962   28.8368 O.3     1  UNL1       -0.3867
     45 H           2.8794    0.1681   29.1866 H       1  UNL1        0.2102
@<TRIPOS>BOND
     1    15    16    1
     2    16    17   ar
     3    17     1    1
     4     1     2    2
     5     2     3    1
     6     2     4    1
     7     4     5    2
     8     5    36    1
     9    36    37   am
    10    36    38    2
    11     5     6    1
    12     6     7    2
    13     7     8    1
    14     8     9    2
    15     9    10    1
    16     9    11    1
    17    11    12    1
    18    12    13    1
    19    13    41    1
    20    41    42    1
    21    41    43    1
    22    41    44    1
    23    13    14    1
    24    17    18   ar
    25    18    19   ar
    26    19    20   ar
    27    20    21   ar
    28    21    22    1
    29    22    23   ar
    30    23    24    2
    31    23    25   ar
    32    25    26   ar
    33    26    27   ar
    34    27    28   ar
    35    28    29   ar
    36    29    30    1
    37    29    31   ar
    38    31    32   ar
    39    32    33    1
    40    32    34   ar
    41    34    35    2
    42    21    16   ar
    43    34    22   ar
    44    10     1    1
    45    31    25   ar
    46    10     6    1
    47    14     8    1
    48    37    39    1
    49    37    40    1
    50    44    45    1
@<TRIPOS>MOLECULE
*****
 45 50 0 0 0
SMALL
GASTEIGER

@<TRIPOS>ATOM
      1 C          -0.8676    3.9820   22.0545 C.2     1  UNL1        0.0141
      2 C          -1.7182    4.5227   20.9436 C.2     1  UNL1        0.1370
      3 F          -1.0978    4.8603   19.6202 F       1  UNL1       -0.2045
      4 C          -3.1891    4.7259   21.1560 C.2     1  UNL1        0.0350
      5 C          -3.8094    4.3883   22.4793 C.2     1  UNL1        0.0695
      6 C          -2.9588    3.8475   23.5902 C.2     1  UNL1        0.0705
      7 N          -3.2869    3.4280   24.9925 N.2     1  UNL1       -0.2538
      8 C          -2.0188    2.9656   25.6468 C.2     1  UNL1        0.0514
      9 C          -0.9069    3.0993   24.6488 C.2     1  UNL1       -0.0213
     10 C          -1.4879    3.6444   23.3778 C.3     1  UNL1        0.0841
     11 C           0.4909    2.7075   25.0264 C.3     1  UNL1        0.0240
     12 C           0.7768    2.1820   26.4019 C.3     1  UNL1        0.0071
     13 C          -0.3351    2.0482   27.3998 C.3     1  UNL1        0.0309
     14 C          -1.7329    2.4400   27.0222 C.3     1  UNL1        0.0475
     15 C           0.1610    1.3198   21.1299 C.3     1  UNL1        0.0325
     16 C           1.1176    2.4477   21.3798 C.ar    1  UNL1       -0.0057
     17 C           0.6034    3.7789   21.8421 C.ar    1  UNL1       -0.0037
     18 C           1.5600    4.9068   22.0919 C.ar    1  UNL1       -0.0004
     19 C           3.0309    4.7038   21.8795 C.ar    1  UNL1        0.0015
     20 C           3.5452    3.3727   21.4172 C.ar    1  UNL1        0.0174
     21 C           2.5885    2.2447   21.1673 C.ar    1  UNL1        0.0671
     22 N           3.1028    0.9136   20.7050 N.ar    1  UNL1       -0.2275
     23 C           3.3859   -0.1692   21.7039 C.ar    1  UNL1        0.2695
     24 O           3.1548    0.0793   23.1650 O.2     1  UNL1       -0.2665
     25 C           3.9002   -1.5002   21.2416 C.ar    1  UNL1        0.0747
     26 C           4.1833   -2.5829   22.2404 C.ar    1  UNL1        0.0063
     27 C           4.6976   -3.9140   21.7781 C.ar    1  UNL1        0.0026
     28 C           4.9287   -4.1624   20.3170 C.ar    1  UNL1        0.0311
     29 C           4.6456   -3.0797   19.3182 C.ar    1  UNL1        0.1560
     30 F           4.8768   -3.3281   17.8570 F       1  UNL1       -0.2026
     31 C           4.1314   -1.7486   19.7805 C.ar    1  UNL1        0.0959
     32 N           3.8482   -0.6659   18.7816 N.ar    1  UNL1       -0.2767
     33 C           4.0794   -0.9143   17.3205 C.3     1  UNL1        0.1352
     34 C           3.3340    0.6652   19.2439 C.ar    1  UNL1        0.3378
     35 O           3.0509    1.7479   18.2452 O.2     1  UNL1       -0.2458
     36 C          -5.2803    4.5914   22.6917 C.2     1  UNL1        0.2440
     37 N          -6.0708    3.5860   23.4753 N.am    1  UNL1       -0.3253
     38 O          -5.9608    5.8000   22.1204 O.2     1  UNL1       -0.2703
     39 H          -5.6243    2.7928   23.8503 H       1  UNL1        0.1453
     40 H          -7.0363    3.7193   23.6147 H       1  UNL1        0.1453
     41 C          -0.0491    1.5227   28.7753 C.3     1  UNL1        0.0888
     42 C          -0.9639    0.3613   28.5217 C.3     1  UNL1        0.0293
     43 C           0.8657    2.6840   29.0289 C.3     1  UNL1        0.0293
     44 O           0.2369    0.9971   30.1508 O.3     1  UNL1       -0.3867
     45 H          -0.2592    0.1757   30.2927 H       1  UNL1        0.2102
@<TRIPOS>BOND
     1    15    16    1
     2    16    17   ar
     3    17     1    1
     4     1     2    2
     5     2     3    1
     6     2     4    1
     7     4     5    2
     8     5    36    1
     9    36    37   am
    10    36    38    2
    11     5     6    1
    12     6     7    2
    13     7     8    1
    14     8     9    2
    15     9    10    1
    16     9    11    1
    17    11    12    1
    18    12    13    1
    19    13    41    1
    20    41    42    1
    21    41    43    1
    22    41    44    1
    23    13    14    1
    24    17    18   ar
    25    18    19   ar
    26    19    20   ar
    27    20    21   ar
    28    21    22    1
    29    22    23   ar
    30    23    24    2
    31    23    25   ar
    32    25    26   ar
    33    26    27   ar
    34    27    28   ar
    35    28    29   ar
    36    29    30    1
    37    29    31   ar
    38    31    32   ar
    39    32    33    1
    40    32    34   ar
    41    34    35    2
    42    21    16   ar
    43    34    22   ar
    44    10     1    1
    45    31    25   ar
    46    10     6    1
    47    14     8    1
    48    37    39    1
    49    37    40    1
    50    44    45    1
@<TRIPOS>MOLECULE
*****
 45 50 0 0 0
SMALL
GASTEIGER

@<TRIPOS>ATOM
      1 C          -1.2161    3.7173   19.2304 C.2     1  UNL1        0.0141
      2 C          -1.5194    3.8112   17.7643 C.2     1  UNL1        0.1370
      3 F          -0.4040    3.7572   16.7628 F       1  UNL1       -0.2045
      4 C          -2.9380    3.9590   17.2999 C.2     1  UNL1        0.0350
      5 C          -4.0533    4.0129   18.3014 C.2     1  UNL1        0.0695
      6 C          -3.7500    3.9190   19.7675 C.2     1  UNL1        0.0705
      7 N          -4.6343    3.9428   20.9789 N.2     1  UNL1       -0.2538
      8 C          -3.7622    3.8097   22.1920 C.2     1  UNL1        0.0514
      9 C          -2.3389    3.7036   21.7304 C.2     1  UNL1       -0.0213
     10 C          -2.3314    3.7712   20.2319 C.3     1  UNL1        0.0841
     11 C          -1.2337    3.5593   22.7341 C.3     1  UNL1        0.0240
     12 C          -1.5517    3.5209   24.1995 C.3     1  UNL1        0.0071
     13 C          -2.9749    3.6269   24.6611 C.3     1  UNL1        0.0309
     14 C          -4.0802    3.7713   23.6574 C.3     1  UNL1        0.0475
     15 C          -0.0793    0.9871   19.7341 C.3     1  UNL1        0.0325
     16 C           0.7709    2.2044   19.9467 C.ar    1  UNL1       -0.0057
     17 C           0.2026    3.5695   19.6948 C.ar    1  UNL1       -0.0037
     18 C           1.0527    4.7868   19.9074 C.ar    1  UNL1       -0.0004
     19 C           2.4713    4.6391   20.3718 C.ar    1  UNL1        0.0015
     20 C           3.0397    3.2740   20.6237 C.ar    1  UNL1        0.0174
     21 C           2.1895    2.0566   20.4111 C.ar    1  UNL1        0.0671
     22 N           2.7579    0.6916   20.6630 N.ar    1  UNL1       -0.2275
     23 C           3.1561   -0.1798   19.5087 C.ar    1  UNL1        0.2695
     24 O           2.9860    0.3141   18.1025 O.2     1  UNL1       -0.2665
     25 C           3.7245   -1.5448   19.7605 C.ar    1  UNL1        0.0747
     26 C           4.1228   -2.4161   18.6062 C.ar    1  UNL1        0.0063
     27 C           4.6911   -3.7811   18.8581 C.ar    1  UNL1        0.0026
     28 C           4.8613   -4.2750   20.2642 C.ar    1  UNL1        0.0311
     29 C           4.4630   -3.4038   21.4185 C.ar    1  UNL1        0.1560
     30 F           4.6332   -3.8976   22.8246 F       1  UNL1       -0.2026
     31 C           3.8947   -2.0387   21.1666 C.ar    1  UNL1        0.0959
     32 N           3.4964   -1.1674   22.3209 N.ar    1  UNL1       -0.2767
     33 C           3.6665   -1.6612   23.7271 C.3     1  UNL1        0.1352
     34 C           2.9280    0.1977   22.0691 C.ar    1  UNL1        0.3378
     35 O           2.5298    1.0690   23.2233 O.2     1  UNL1       -0.2458
     36 C          -5.4719    4.1607   17.8369 C.2     1  UNL1        0.2440
     37 N          -6.5724    3.4244   18.5417 N.am    1  UNL1       -0.3253
     38 O          -5.7900    5.0448   16.6676 O.2     1  UNL1       -0.2703
     39 H          -6.3636    2.8442   19.3091 H       1  UNL1        0.1453
     40 H          -7.5034    3.5214   18.2368 H       1  UNL1        0.1453
     41 C          -3.2929    3.5885   26.1266 C.3     1  UNL1        0.0888
     42 C          -4.7147    3.9615   25.8278 C.3     1  UNL1        0.0293
     43 C          -1.8711    3.2156   26.4254 C.3     1  UNL1        0.0293
     44 O          -3.6109    3.5502   27.5920 O.3     1  UNL1       -0.3867
     45 H          -4.5463    3.7693   27.7257 H       1  UNL1        0.2102
@<TRIPOS>BOND
     1    15    16    1
     2    16    17   ar
     3    17     1    1
     4     1     2    2
     5     2     3    1
     6     2     4    1
     7     4     5    2
     8     5    36    1
     9    36    37   am
    10    36    38    2
    11     5     6    1
    12     6     7    2
    13     7     8    1
    14     8     9    2
    15     9    10    1
    16     9    11    1
    17    11    12    1
    18    12    13    1
    19    13    41    1
    20    41    42    1
    21    41    43    1
    22    41    44    1
    23    13    14    1
    24    17    18   ar
    25    18    19   ar
    26    19    20   ar
    27    20    21   ar
    28    21    22    1
    29    22    23   ar
    30    23    24    2
    31    23    25   ar
    32    25    26   ar
    33    26    27   ar
    34    27    28   ar
    35    28    29   ar
    36    29    30    1
    37    29    31   ar
    38    31    32   ar
    39    32    33    1
    40    32    34   ar
    41    34    35    2
    42    21    16   ar
    43    34    22   ar
    44    10     1    1
    45    31    25   ar
    46    10     6    1
    47    14     8    1
    48    37    39    1
    49    37    40    1
    50    44    45    1
@<TRIPOS>MOLECULE
*****
 45 50 0 0 0
SMALL
GASTEIGER

@<TRIPOS>ATOM
      1 C           3.7394    1.2312   23.9880 C.2     1  UNL1        0.0141
      2 C           2.9786    2.3623   24.6139 C.2     1  UNL1        0.1370
      3 F           3.5487    3.0850   25.7984 F       1  UNL1       -0.2045
      4 C           1.6476    2.7707   24.0555 C.2     1  UNL1        0.0350
      5 C           1.0776    2.0480   22.8711 C.2     1  UNL1        0.0695
      6 C           1.8384    0.9170   22.2452 C.2     1  UNL1        0.0705
      7 N           1.5319    0.0253   21.0786 N.2     1  UNL1       -0.2538
      8 C           2.6734   -0.9342   20.9161 C.2     1  UNL1        0.0514
      9 C           3.6854   -0.6355   21.9822 C.2     1  UNL1       -0.0213
     10 C           3.1694    0.5086   22.8036 C.3     1  UNL1        0.0841
     11 C           4.9461   -1.4439   22.0673 C.3     1  UNL1        0.0240
     12 C           5.1947   -2.5510   21.0862 C.3     1  UNL1        0.0071
     13 C           4.1827   -2.8497   20.0201 C.3     1  UNL1        0.0309
     14 C           2.9221   -2.0413   19.9350 C.3     1  UNL1        0.0475
     15 C           3.8821   -0.7972   26.1938 C.3     1  UNL1        0.0325
     16 C           5.1417   -0.1914   25.6494 C.ar    1  UNL1       -0.0057
     17 C           5.0704    0.8229   24.5465 C.ar    1  UNL1       -0.0037
     18 C           6.3299    1.4287   24.0021 C.ar    1  UNL1       -0.0004
     19 C           7.6609    1.0203   24.5605 C.ar    1  UNL1        0.0015
     20 C           7.7322    0.0062   25.6634 C.ar    1  UNL1        0.0174
     21 C           6.4726   -0.5997   26.2078 C.ar    1  UNL1        0.0671
     22 N           6.5439   -1.6139   27.3107 N.ar    1  UNL1       -0.2275
     23 C           6.5426   -1.1663   28.7424 C.ar    1  UNL1        0.2695
     24 O           6.4700    0.2954   29.0712 O.2     1  UNL1       -0.2665
     25 C           6.6140   -2.1805   29.8453 C.ar    1  UNL1        0.0747
     26 C           6.6127   -1.7330   31.2770 C.ar    1  UNL1        0.0063
     27 C           6.6840   -2.7471   32.3798 C.ar    1  UNL1        0.0026
     28 C           6.7567   -4.2089   32.0510 C.ar    1  UNL1        0.0311
     29 C           6.7580   -4.6564   30.6193 C.ar    1  UNL1        0.1560
     30 F           6.8306   -6.1182   30.2905 F       1  UNL1       -0.2026
     31 C           6.6866   -3.6422   29.5165 C.ar    1  UNL1        0.0959
     32 N           6.6879   -4.0898   28.0847 N.ar    1  UNL1       -0.2767
     33 C           6.7606   -5.5515   27.7559 C.3     1  UNL1        0.1352
     34 C           6.6166   -3.0756   26.9819 C.ar    1  UNL1        0.3378
     35 O           6.6179   -3.5231   25.5502 O.2     1  UNL1       -0.2458
     36 C          -0.2533    2.4565   22.3127 C.2     1  UNL1        0.2440
     37 N          -0.6386    2.0521   20.9206 N.am    1  UNL1       -0.3253
     38 O          -1.1991    3.2692   23.1465 O.2     1  UNL1       -0.2703
     39 H          -0.0179    1.5187   20.3734 H       1  UNL1        0.1453
     40 H          -1.5121    2.3202   20.5541 H       1  UNL1        0.1453
     41 C           4.4314   -3.9568   19.0390 C.3     1  UNL1        0.0888
     42 C           5.3344   -3.0552   18.2505 C.3     1  UNL1        0.0293
     43 C           3.5284   -4.8584   19.8274 C.3     1  UNL1        0.0293
     44 O           4.6801   -5.0639   18.0579 O.3     1  UNL1       -0.3867
     45 H           5.2843   -4.7528   17.3657 H       1  UNL1        0.2102
@<TRIPOS>BOND
     1    15    16    1
     2    16    17   ar
     3    17     1    1
     4     1     2    2
     5     2     3    1
     6     2     4    1
     7     4     5    2
     8     5    36    1
     9    36    37   am
    10    36    38    2
    11     5     6    1
    12     6     7    2
    13     7     8    1
    14     8     9    2
    15     9    10    1
    16     9    11    1
    17    11    12    1
    18    12    13    1
    19    13    41    1
    20    41    42    1
    21    41    43    1
    22    41    44    1
    23    13    14    1
    24    17    18   ar
    25    18    19   ar
    26    19    20   ar
    27    20    21   ar
    28    21    22    1
    29    22    23   ar
    30    23    24    2
    31    23    25   ar
    32    25    26   ar
    33    26    27   ar
    34    27    28   ar
    35    28    29   ar
    36    29    30    1
    37    29    31   ar
    38    31    32   ar
    39    32    33    1
    40    32    34   ar
    41    34    35    2
    42    21    16   ar
    43    34    22   ar
    44    10     1    1
    45    31    25   ar
    46    10     6    1
    47    14     8    1
    48    37    39    1
    49    37    40    1
    50    44    45    1
@<TRIPOS>MOLECULE
*****
 45 50 0 0 0
SMALL
GASTEIGER

@<TRIPOS>ATOM
      1 C           2.5441    1.7051   25.3446 C.2     1  UNL1        0.0141
      2 C           2.6494    1.9111   26.8267 C.2     1  UNL1        0.1370
      3 F           2.1064    3.1626   27.4504 F       1  UNL1       -0.2045
      4 C           3.2977    0.8657   27.6850 C.2     1  UNL1        0.0350
      5 C           3.8407   -0.3858   27.0613 C.2     1  UNL1        0.0695
      6 C           3.7354   -0.5918   25.5793 C.2     1  UNL1        0.0705
      7 N           4.1761   -1.7151   24.6882 N.2     1  UNL1       -0.2538
      8 C           3.8002   -1.3640   23.2792 C.2     1  UNL1        0.0514
      9 C           3.1272   -0.0236   23.2994 C.2     1  UNL1       -0.0213
     10 C           3.0872    0.4536   24.7209 C.3     1  UNL1        0.0841
     11 C           2.6377    0.5892   22.0208 C.3     1  UNL1        0.0240
     12 C           2.8213   -0.1383   20.7220 C.3     1  UNL1        0.0071
     13 C           3.4943   -1.4787   20.7018 C.3     1  UNL1        0.0309
     14 C           3.9838   -2.0915   21.9804 C.3     1  UNL1        0.0475
     15 C          -0.4464    1.9218   25.2458 C.3     1  UNL1        0.0325
     16 C           0.4005    2.8588   24.4369 C.ar    1  UNL1       -0.0057
     17 C           1.8958    2.7506   24.4862 C.ar    1  UNL1       -0.0037
     18 C           2.7428    3.6876   23.6773 C.ar    1  UNL1       -0.0004
     19 C           2.0945    4.7331   22.8190 C.ar    1  UNL1        0.0015
     20 C           0.5993    4.8414   22.7696 C.ar    1  UNL1        0.0174
     21 C          -0.2477    3.9043   23.5786 C.ar    1  UNL1        0.0671
     22 N          -1.7430    4.0126   23.5292 N.ar    1  UNL1       -0.2275
     23 C          -2.4850    4.6699   24.6551 C.ar    1  UNL1        0.2695
     24 O          -1.7316    5.2187   25.8304 O.2     1  UNL1       -0.2665
     25 C          -3.9802    4.7782   24.6058 C.ar    1  UNL1        0.0747
     26 C          -4.7221    5.4354   25.7317 C.ar    1  UNL1        0.0063
     27 C          -6.2174    5.5437   25.6823 C.ar    1  UNL1        0.0026
     28 C          -6.9707    4.9949   24.5070 C.ar    1  UNL1        0.0311
     29 C          -6.2288    4.3377   23.3811 C.ar    1  UNL1        0.1560
     30 F          -6.9822    3.7888   22.2058 F       1  UNL1       -0.2026
     31 C          -4.7336    4.2293   23.4305 C.ar    1  UNL1        0.0959
     32 N          -3.9916    3.5721   22.3046 N.ar    1  UNL1       -0.2767
     33 C          -4.7449    3.0233   21.1293 C.3     1  UNL1        0.1352
     34 C          -2.4963    3.4638   22.3539 C.ar    1  UNL1        0.3378
     35 O          -1.7544    2.8066   21.2281 O.2     1  UNL1       -0.2458
     36 C           4.4890   -1.4312   27.9197 C.2     1  UNL1        0.2440
     37 N           5.0296   -2.6838   27.2964 N.am    1  UNL1       -0.3253
     38 O           4.5967   -1.2239   29.4015 O.2     1  UNL1       -0.2703
     39 H           4.9589   -2.8199   26.3239 H       1  UNL1        0.1453
     40 H           5.4551   -3.3700   27.8598 H       1  UNL1        0.1453
     41 C           3.6779   -2.2063   19.4029 C.3     1  UNL1        0.0888
     42 C           3.8857   -3.4896   20.1512 C.3     1  UNL1        0.0293
     43 C           3.4701   -0.9230   18.6547 C.3     1  UNL1        0.0293
     44 O           3.8615   -2.9339   18.1042 O.3     1  UNL1       -0.3867
     45 H           4.0277   -3.8731   18.2804 H       1  UNL1        0.2102
@<TRIPOS>BOND
     1    15    16    1
     2    16    17   ar
     3    17     1    1
     4     1     2    2
     5     2     3    1
     6     2     4    1
     7     4     5    2
     8     5    36    1
     9    36    37   am
    10    36    38    2
    11     5     6    1
    12     6     7    2
    13     7     8    1
    14     8     9    2
    15     9    10    1
    16     9    11    1
    17    11    12    1
    18    12    13    1
    19    13    41    1
    20    41    42    1
    21    41    43    1
    22    41    44    1
    23    13    14    1
    24    17    18   ar
    25    18    19   ar
    26    19    20   ar
    27    20    21   ar
    28    21    22    1
    29    22    23   ar
    30    23    24    2
    31    23    25   ar
    32    25    26   ar
    33    26    27   ar
    34    27    28   ar
    35    28    29   ar
    36    29    30    1
    37    29    31   ar
    38    31    32   ar
    39    32    33    1
    40    32    34   ar
    41    34    35    2
    42    21    16   ar
    43    34    22   ar
    44    10     1    1
    45    31    25   ar
    46    10     6    1
    47    14     8    1
    48    37    39    1
    49    37    40    1
    50    44    45    1
@<TRIPOS>MOLECULE
*****
 45 50 0 0 0
SMALL
GASTEIGER

@<TRIPOS>ATOM
      1 C          -0.6262    3.8348   24.2162 C.2     1  UNL1        0.0141
      2 C          -0.7536    3.9176   25.7085 C.2     1  UNL1        0.1370
      3 F           0.4666    3.8001   26.5731 F       1  UNL1       -0.2045
      4 C          -2.1011    4.1179   26.3363 C.2     1  UNL1        0.0350
      5 C          -3.3212    4.2354   25.4717 C.2     1  UNL1        0.0695
      6 C          -3.1938    4.1526   23.9794 C.2     1  UNL1        0.0705
      7 N          -4.2103    4.2335   22.8793 N.2     1  UNL1       -0.2538
      8 C          -3.4909    4.0832   21.5716 C.2     1  UNL1        0.0514
      9 C          -2.0299    3.9094   21.8635 C.2     1  UNL1       -0.0213
     10 C          -1.8463    3.9522   23.3517 C.3     1  UNL1        0.0841
     11 C          -1.0555    3.7345   20.7367 C.3     1  UNL1        0.0240
     12 C          -1.5421    3.7335   19.3178 C.3     1  UNL1        0.0071
     13 C          -3.0031    3.9073   19.0259 C.3     1  UNL1        0.0309
     14 C          -3.9775    4.0821   20.1527 C.3     1  UNL1        0.0475
     15 C           0.4046    1.0596   23.7300 C.3     1  UNL1        0.0325
     16 C           1.2367    2.2468   23.3454 C.ar    1  UNL1       -0.0057
     17 C           0.7214    3.6344   23.5885 C.ar    1  UNL1       -0.0037
     18 C           1.5535    4.8216   23.2039 C.ar    1  UNL1       -0.0004
     19 C           2.9010    4.6214   22.5762 C.ar    1  UNL1        0.0015
     20 C           3.4164    3.2338   22.3331 C.ar    1  UNL1        0.0174
     21 C           2.5842    2.0466   22.7177 C.ar    1  UNL1        0.0671
     22 N           3.0996    0.6590   22.4746 N.ar    1  UNL1       -0.2275
     23 C           2.8055   -0.0337   21.1769 C.ar    1  UNL1        0.2695
     24 O           1.9960    0.6612   20.1224 O.2     1  UNL1       -0.2665
     25 C           3.3209   -1.4212   20.9338 C.ar    1  UNL1        0.0747
     26 C           3.0268   -2.1138   19.6362 C.ar    1  UNL1        0.0063
     27 C           3.5421   -3.5014   19.3931 C.ar    1  UNL1        0.0026
     28 C           4.3516   -4.1963   20.4476 C.ar    1  UNL1        0.0311
     29 C           4.6457   -3.5036   21.7452 C.ar    1  UNL1        0.1560
     30 F           5.4551   -4.1985   22.7997 F       1  UNL1       -0.2026
     31 C           4.1303   -2.1161   21.9883 C.ar    1  UNL1        0.0959
     32 N           4.4244   -1.4234   23.2860 N.ar    1  UNL1       -0.2767
     33 C           5.2339   -2.1183   24.3404 C.3     1  UNL1        0.1352
     34 C           3.9090   -0.0359   23.5291 C.ar    1  UNL1        0.3378
     35 O           4.2031    0.6568   24.8266 O.2     1  UNL1       -0.2458
     36 C          -4.6687    4.4357   26.0995 C.2     1  UNL1        0.2440
     37 N          -5.9095    4.3214   25.2646 N.am    1  UNL1       -0.3253
     38 O          -4.7754    4.7504   27.5623 O.2     1  UNL1       -0.2703
     39 H          -5.8395    4.1148   24.3045 H       1  UNL1        0.1453
     40 H          -6.7939    4.4528   25.6766 H       1  UNL1        0.1453
     41 C          -3.4897    3.9062   17.6069 C.3     1  UNL1        0.0888
     42 C          -2.0857    4.1226   17.1254 C.3     1  UNL1        0.0293
     43 C          -4.8937    3.6899   18.0885 C.3     1  UNL1        0.0293
     44 O          -3.9762    3.9052   16.1880 O.3     1  UNL1       -0.3867
     45 H          -3.2251    4.0368   15.5886 H       1  UNL1        0.2102
@<TRIPOS>BOND
     1    15    16    1
     2    16    17   ar
     3    17     1    1
     4     1     2    2
     5     2     3    1
     6     2     4    1
     7     4     5    2
     8     5    36    1
     9    36    37   am
    10    36    38    2
    11     5     6    1
    12     6     7    2
    13     7     8    1
    14     8     9    2
    15     9    10    1
    16     9    11    1
    17    11    12    1
    18    12    13    1
    19    13    41    1
    20    41    42    1
    21    41    43    1
    22    41    44    1
    23    13    14    1
    24    17    18   ar
    25    18    19   ar
    26    19    20   ar
    27    20    21   ar
    28    21    22    1
    29    22    23   ar
    30    23    24    2
    31    23    25   ar
    32    25    26   ar
    33    26    27   ar
    34    27    28   ar
    35    28    29   ar
    36    29    30    1
    37    29    31   ar
    38    31    32   ar
    39    32    33    1
    40    32    34   ar
    41    34    35    2
    42    21    16   ar
    43    34    22   ar
    44    10     1    1
    45    31    25   ar
    46    10     6    1
    47    14     8    1
    48    37    39    1
    49    37    40    1
    50    44    45    1
@<TRIPOS>MOLECULE
*****
 45 50 0 0 0
SMALL
GASTEIGER

@<TRIPOS>ATOM
      1 C           7.8888   -4.5389   24.0551 C.2     1  UNL1        0.0141
      2 C           8.3525   -5.8192   23.4259 C.2     1  UNL1        0.1370
      3 F           8.7839   -5.8357   21.9893 F       1  UNL1       -0.2045
      4 C           8.3848   -7.0830   24.2332 C.2     1  UNL1        0.0350
      5 C           7.9534   -7.0665   25.6697 C.2     1  UNL1        0.0695
      6 C           7.4897   -5.7862   26.2989 C.2     1  UNL1        0.0705
      7 N           7.0082   -5.4647   27.6827 N.2     1  UNL1       -0.2538
      8 C           6.6783   -4.0022   27.7306 C.2     1  UNL1        0.0514
      9 C           6.9559   -3.4198   26.3764 C.2     1  UNL1       -0.0213
     10 C           7.4574   -4.5224   25.4916 C.3     1  UNL1        0.0841
     11 C           6.7162   -1.9608   26.1239 C.3     1  UNL1        0.0240
     12 C           6.1989   -1.0842   27.2256 C.3     1  UNL1        0.0071
     13 C           5.9213   -1.6665   28.5798 C.3     1  UNL1        0.0309
     14 C           6.1610   -3.1255   28.8323 C.3     1  UNL1        0.0475
     15 C           5.3181   -3.6177   22.8129 C.3     1  UNL1        0.0325
     16 C           6.5711   -2.8146   22.6267 C.ar    1  UNL1       -0.0057
     17 C           7.8565   -3.2751   23.2477 C.ar    1  UNL1       -0.0037
     18 C           9.1095   -2.4720   23.0614 C.ar    1  UNL1       -0.0004
     19 C           9.0773   -1.2082   22.2541 C.ar    1  UNL1        0.0015
     20 C           7.7919   -0.7476   21.6330 C.ar    1  UNL1        0.0174
     21 C           6.5388   -1.5508   21.8193 C.ar    1  UNL1        0.0671
     22 N           5.2535   -1.0902   21.1983 N.ar    1  UNL1       -0.2275
     23 C           4.1800   -0.4875   22.0553 C.ar    1  UNL1        0.2695
     24 O           4.3920   -0.3453   23.5335 O.2     1  UNL1       -0.2665
     25 C           2.8947   -0.0269   21.4343 C.ar    1  UNL1        0.0747
     26 C           1.8213    0.5759   22.2914 C.ar    1  UNL1        0.0063
     27 C           0.5360    1.0364   21.6703 C.ar    1  UNL1        0.0026
     28 C           0.3240    0.8943   20.1922 C.ar    1  UNL1        0.0311
     29 C           1.3974    0.2916   19.3351 C.ar    1  UNL1        0.1560
     30 F           1.1854    0.1494   17.8569 F       1  UNL1       -0.2026
     31 C           2.6827   -0.1690   19.9561 C.ar    1  UNL1        0.0959
     32 N           3.7562   -0.7718   19.0991 N.ar    1  UNL1       -0.2767
     33 C           3.5442   -0.9139   17.6209 C.3     1  UNL1        0.1352
     34 C           5.0415   -1.2323   19.7201 C.ar    1  UNL1        0.3378
     35 O           6.1149   -1.8351   18.8631 O.2     1  UNL1       -0.2458
     36 C           7.9858   -8.3303   26.4770 C.2     1  UNL1        0.2440
     37 N           6.7041   -9.0105   26.8570 N.am    1  UNL1       -0.3253
     38 O           9.2999   -8.9139   26.9045 O.2     1  UNL1       -0.2703
     39 H           5.8416   -8.6275   26.5765 H       1  UNL1        0.1453
     40 H           6.7253   -9.8400   27.3868 H       1  UNL1        0.1453
     41 C           5.4040   -0.7898   29.6816 C.3     1  UNL1        0.0888
     42 C           5.9626   -1.7394   30.6995 C.3     1  UNL1        0.0293
     43 C           4.8453    0.1598   28.6637 C.3     1  UNL1        0.0293
     44 O           4.8867    0.0869   30.7833 O.3     1  UNL1       -0.3867
     45 H           5.1158   -0.3031   31.6414 H       1  UNL1        0.2102
@<TRIPOS>BOND
     1    15    16    1
     2    16    17   ar
     3    17     1    1
     4     1     2    2
     5     2     3    1
     6     2     4    1
     7     4     5    2
     8     5    36    1
     9    36    37   am
    10    36    38    2
    11     5     6    1
    12     6     7    2
    13     7     8    1
    14     8     9    2
    15     9    10    1
    16     9    11    1
    17    11    12    1
    18    12    13    1
    19    13    41    1
    20    41    42    1
    21    41    43    1
    22    41    44    1
    23    13    14    1
    24    17    18   ar
    25    18    19   ar
    26    19    20   ar
    27    20    21   ar
    28    21    22    1
    29    22    23   ar
    30    23    24    2
    31    23    25   ar
    32    25    26   ar
    33    26    27   ar
    34    27    28   ar
    35    28    29   ar
    36    29    30    1
    37    29    31   ar
    38    31    32   ar
    39    32    33    1
    40    32    34   ar
    41    34    35    2
    42    21    16   ar
    43    34    22   ar
    44    10     1    1
    45    31    25   ar
    46    10     6    1
    47    14     8    1
    48    37    39    1
    49    37    40    1
    50    44    45    1
@<TRIPOS>MOLECULE
*****
 45 50 0 0 0
SMALL
GASTEIGER

@<TRIPOS>ATOM
      1 C           7.0885   -2.1054   28.4472 C.2     1  UNL1        0.0141
      2 C           7.9665   -3.2701   28.0968 C.2     1  UNL1        0.1370
      3 F           8.7036   -3.2875   26.7905 F       1  UNL1       -0.2045
      4 C           8.1074   -4.4174   29.0528 C.2     1  UNL1        0.0350
      5 C           7.3703   -4.4000   30.3591 C.2     1  UNL1        0.0695
      6 C           6.4923   -3.2353   30.7094 C.2     1  UNL1        0.0705
      7 N           5.6490   -2.9407   31.9144 N.2     1  UNL1       -0.2538
      8 C           4.9870   -1.6114   31.7032 C.2     1  UNL1        0.0514
      9 C           5.4211   -1.0844   30.3676 C.2     1  UNL1       -0.0213
     10 C           6.3514   -2.0880   29.7534 C.3     1  UNL1        0.0841
     11 C           4.9132    0.2413   29.8833 C.3     1  UNL1        0.0240
     12 C           3.9711    1.0399   30.7346 C.3     1  UNL1        0.0071
     13 C           3.5370    0.5129   32.0701 C.3     1  UNL1        0.0309
     14 C           4.0449   -0.8128   32.5545 C.3     1  UNL1        0.0475
     15 C           4.8949   -2.1186   26.4007 C.3     1  UNL1        0.0325
     16 C           5.8508   -0.9648   26.4679 C.ar    1  UNL1       -0.0057
     17 C           6.9477   -0.9581   27.4911 C.ar    1  UNL1       -0.0037
     18 C           7.9037    0.1958   27.5583 C.ar    1  UNL1       -0.0004
     19 C           7.7629    1.3431   26.6024 C.ar    1  UNL1        0.0015
     20 C           6.6661    1.3364   25.5792 C.ar    1  UNL1        0.0174
     21 C           5.7100    0.1825   25.5120 C.ar    1  UNL1        0.0671
     22 N           4.6132    0.1759   24.4888 N.ar    1  UNL1       -0.2275
     23 C           4.7849   -0.5896   23.2102 C.ar    1  UNL1        0.2695
     24 O           6.0533   -1.3485   22.9549 O.2     1  UNL1       -0.2665
     25 C           3.6881   -0.5963   22.1870 C.ar    1  UNL1        0.0747
     26 C           3.8597   -1.3618   20.9085 C.ar    1  UNL1        0.0063
     27 C           2.7629   -1.3684   19.8853 C.ar    1  UNL1        0.0026
     28 C           1.4944   -0.6096   20.1406 C.ar    1  UNL1        0.0311
     29 C           1.3228    0.1559   21.4191 C.ar    1  UNL1        0.1560
     30 F           0.0543    0.9148   21.6744 F       1  UNL1       -0.2026
     31 C           2.4196    0.1626   22.4423 C.ar    1  UNL1        0.0959
     32 N           2.2480    0.9281   23.7209 N.ar    1  UNL1       -0.2767
     33 C           0.9795    1.6869   23.9762 C.3     1  UNL1        0.1352
     34 C           3.3448    0.9347   24.7441 C.ar    1  UNL1        0.3378
     35 O           3.1732    1.7002   26.0225 O.2     1  UNL1       -0.2458
     36 C           7.5111   -5.5473   31.3150 C.2     1  UNL1        0.2440
     37 N           6.4875   -5.7569   32.3911 N.am    1  UNL1       -0.3253
     38 O           8.6758   -6.4850   31.1949 O.2     1  UNL1       -0.2703
     39 H           5.7231   -5.1415   32.4699 H       1  UNL1        0.1453
     40 H           6.5799   -6.5099   33.0185 H       1  UNL1        0.1453
     41 C           2.5949    1.3116   32.9214 C.3     1  UNL1        0.0888
     42 C           3.4814    1.0895   34.1108 C.3     1  UNL1        0.0293
     43 C           1.7084    1.5337   31.7320 C.3     1  UNL1        0.0293
     44 O           1.6529    2.1102   33.7727 O.3     1  UNL1       -0.3867
     45 H           1.9903    2.1470   34.6813 H       1  UNL1        0.2102
@<TRIPOS>BOND
     1    15    16    1
     2    16    17   ar
     3    17     1    1
     4     1     2    2
     5     2     3    1
     6     2     4    1
     7     4     5    2
     8     5    36    1
     9    36    37   am
    10    36    38    2
    11     5     6    1
    12     6     7    2
    13     7     8    1
    14     8     9    2
    15     9    10    1
    16     9    11    1
    17    11    12    1
    18    12    13    1
    19    13    41    1
    20    41    42    1
    21    41    43    1
    22    41    44    1
    23    13    14    1
    24    17    18   ar
    25    18    19   ar
    26    19    20   ar
    27    20    21   ar
    28    21    22    1
    29    22    23   ar
    30    23    24    2
    31    23    25   ar
    32    25    26   ar
    33    26    27   ar
    34    27    28   ar
    35    28    29   ar
    36    29    30    1
    37    29    31   ar
    38    31    32   ar
    39    32    33    1
    40    32    34   ar
    41    34    35    2
    42    21    16   ar
    43    34    22   ar
    44    10     1    1
    45    31    25   ar
    46    10     6    1
    47    14     8    1
    48    37    39    1
    49    37    40    1
    50    44    45    1
