@<TRIPOS>MOLECULE
*****
 34 36 0 0 0
SMALL
GASTEIGER

@<TRIPOS>ATOM
      1 C         -11.4950  -17.8865   24.1966 C.3     1  UNL1        0.1152
      2 N         -10.0805  -18.2252   23.8300 N.am    1  UNL1       -0.2729
      3 C          -9.6741  -19.6583   23.6535 C.2     1  UNL1        0.2459
      4 O         -10.6822  -20.7526   23.8435 O.2     1  UNL1       -0.2730
      5 C          -8.2595  -19.9971   23.2869 C.3     1  UNL1        0.1738
      6 N          -7.8301  -19.9699   21.8499 N.pl3   1  UNL1       -0.3253
      7 H          -8.5057  -19.9816   21.1340 H       1  UNL1        0.1473
      8 C          -6.3712  -19.9248   21.5038 C.ar    1  UNL1        0.0451
      9 C          -5.8480  -20.7325   20.3533 C.ar    1  UNL1        0.0156
     10 C          -4.3892  -20.6874   20.0073 C.ar    1  UNL1        0.0171
     11 C          -3.4536  -19.8345   20.8118 C.ar    1  UNL1        0.0645
     12 C          -3.9768  -19.0268   21.9623 C.ar    1  UNL1        0.0171
     13 C          -5.4356  -19.0719   22.3084 C.ar    1  UNL1        0.0156
     14 N          -1.9947  -19.7894   20.4657 N.pl3   1  UNL1       -0.2187
     15 H          -1.4762  -20.6244   20.4090 H       1  UNL1        0.1734
     16 S          -1.3259  -18.4722   20.2060 S.O2    1  UNL1        0.0558
     17 C          -0.6570  -17.1549   19.9463 C.3     1  UNL1        0.1996
     18 O          -1.8512  -18.4824   18.8010 O.2     1  UNL1       -0.1544
     19 O          -0.8006  -18.4619   21.6109 O.2     1  UNL1       -0.1544
     20 C          -9.0723  -17.1309   23.6400 C.3     1  UNL1        0.1139
     21 C          -8.3323  -16.5793   24.8224 C.ar    1  UNL1       -0.0029
     22 C          -7.0596  -15.8118   24.6193 C.ar    1  UNL1       -0.0026
     23 C          -6.3196  -15.2602   25.8017 C.ar    1  UNL1       -0.0003
     24 C          -6.8523  -15.4761   27.1872 C.ar    1  UNL1       -0.0000
     25 C          -8.1250  -16.2435   27.3903 C.ar    1  UNL1       -0.0003
     26 C          -8.8650  -16.7952   26.2080 C.ar    1  UNL1       -0.0026
     27 C          -8.8042  -16.5882   22.2676 C.3     1  UNL1        0.0968
     28 N          -9.8587  -16.6816   21.2049 N.3     1  UNL1       -0.2689
     29 C         -10.2536  -17.9230   20.4613 C.3     1  UNL1        0.0748
     30 C         -11.3424  -17.5586   19.4961 C.3     1  UNL1        0.0480
     31 C         -11.6205  -16.0920   19.6431 C.3     1  UNL1        0.1278
     32 O         -12.6371  -15.3055   18.8699 O.3     1  UNL1       -0.3830
     33 C         -10.7036  -15.5499   20.6993 C.3     1  UNL1        0.1017
     34 H         -12.6154  -14.3790   19.1566 H       1  UNL1        0.2104
@<TRIPOS>BOND
     1     1     2    1
     2     2     3   am
     3     3     4    2
     4     3     5    1
     5     5     6    1
     6     6     8    1
     7     8     9   ar
     8     9    10   ar
     9    10    11   ar
    10    11    14    1
    11    14    16    1
    12    16    17    1
    13    16    18    2
    14    16    19    2
    15    11    12   ar
    16    12    13   ar
    17     2    20    1
    18    20    27    1
    19    27    28    1
    20    28    29    1
    21    29    30    1
    22    30    31    1
    23    31    32    1
    24    31    33    1
    25    20    21    1
    26    21    22   ar
    27    22    23   ar
    28    23    24   ar
    29    24    25   ar
    30    25    26   ar
    31    13     8   ar
    32    33    28    1
    33    26    21   ar
    34     6     7    1
    35    14    15    1
    36    32    34    1
@<TRIPOS>MOLECULE
*****
 34 36 0 0 0
SMALL
GASTEIGER

@<TRIPOS>ATOM
      1 C          -8.0164  -15.2803   21.7111 C.3     1  UNL1        0.1152
      2 N          -8.1597  -16.5607   22.4792 N.am    1  UNL1       -0.2729
      3 C          -7.6721  -17.8494   21.8863 C.2     1  UNL1        0.2459
      4 O          -7.0412  -17.8577   20.5255 O.2     1  UNL1       -0.2730
      5 C          -7.8154  -19.1300   22.6544 C.3     1  UNL1        0.1738
      6 N          -6.8812  -20.2729   22.3879 N.pl3   1  UNL1       -0.3253
      7 H          -7.1421  -21.1896   22.6344 H       1  UNL1        0.1473
      8 C          -5.5495  -20.0190   21.7460 C.ar    1  UNL1        0.0451
      9 C          -5.2795  -20.5165   20.3569 C.ar    1  UNL1        0.0156
     10 C          -3.9478  -20.2626   19.7150 C.ar    1  UNL1        0.0171
     11 C          -2.8861  -19.5113   20.4622 C.ar    1  UNL1        0.0645
     12 C          -3.1560  -19.0139   21.8513 C.ar    1  UNL1        0.0171
     13 C          -4.4877  -19.2677   22.4932 C.ar    1  UNL1        0.0156
     14 N          -1.5543  -19.2575   19.8202 N.pl3   1  UNL1       -0.2187
     15 H          -1.1027  -19.9768   19.3225 H       1  UNL1        0.1734
     16 S          -0.9107  -17.9076   19.9366 S.O2    1  UNL1        0.0558
     17 C          -0.2671  -16.5576   20.0531 C.3     1  UNL1        0.1996
     18 O           0.3777  -18.5572   20.3465 O.2     1  UNL1       -0.1544
     19 O          -2.1991  -17.2580   19.5268 O.2     1  UNL1       -0.1544
     20 C          -8.7906  -16.5525   23.8400 C.3     1  UNL1        0.1139
     21 C          -7.9893  -16.1301   25.0356 C.ar    1  UNL1       -0.0029
     22 C          -6.6004  -15.5929   24.8559 C.ar    1  UNL1       -0.0026
     23 C          -5.7991  -15.1706   26.0516 C.ar    1  UNL1       -0.0003
     24 C          -6.3867  -15.2854   27.4269 C.ar    1  UNL1       -0.0000
     25 C          -7.7757  -15.8226   27.6066 C.ar    1  UNL1       -0.0003
     26 C          -8.5769  -16.2450   26.4110 C.ar    1  UNL1       -0.0026
     27 C         -10.2228  -16.9666   24.0053 C.3     1  UNL1        0.0968
     28 N         -11.1148  -17.0774   22.8044 N.3     1  UNL1       -0.2689
     29 C         -11.7822  -18.3281   22.3142 C.3     1  UNL1        0.0748
     30 C         -12.5759  -17.9806   21.0898 C.3     1  UNL1        0.0480
     31 C         -12.3992  -16.5151   20.8233 C.3     1  UNL1        0.1278
     32 O         -13.0169  -15.7434   19.6951 O.3     1  UNL1       -0.3830
     33 C         -11.4961  -15.9568   21.8829 C.3     1  UNL1        0.1017
     34 H         -12.7432  -14.8144   19.7508 H       1  UNL1        0.2104
@<TRIPOS>BOND
     1     1     2    1
     2     2     3   am
     3     3     4    2
     4     3     5    1
     5     5     6    1
     6     6     8    1
     7     8     9   ar
     8     9    10   ar
     9    10    11   ar
    10    11    14    1
    11    14    16    1
    12    16    17    1
    13    16    18    2
    14    16    19    2
    15    11    12   ar
    16    12    13   ar
    17     2    20    1
    18    20    27    1
    19    27    28    1
    20    28    29    1
    21    29    30    1
    22    30    31    1
    23    31    32    1
    24    31    33    1
    25    20    21    1
    26    21    22   ar
    27    22    23   ar
    28    23    24   ar
    29    24    25   ar
    30    25    26   ar
    31    13     8   ar
    32    33    28    1
    33    26    21   ar
    34     6     7    1
    35    14    15    1
    36    32    34    1
@<TRIPOS>MOLECULE
*****
 34 36 0 0 0
SMALL
GASTEIGER

@<TRIPOS>ATOM
      1 C          -9.9646  -18.7487   25.6092 C.3     1  UNL1        0.1152
      2 N          -9.6002  -18.3634   24.2061 N.am    1  UNL1       -0.2729
      3 C          -9.0201  -19.3858   23.2743 C.2     1  UNL1        0.2459
      4 O          -8.8044  -20.7934   23.7457 O.2     1  UNL1       -0.2730
      5 C          -8.6557  -19.0006   21.8711 C.3     1  UNL1        0.1738
      6 N          -7.7116  -19.8562   21.0797 N.pl3   1  UNL1       -0.3253
      7 H          -8.0635  -20.5580   20.4856 H       1  UNL1        0.1473
      8 C          -6.2312  -19.6427   21.1934 C.ar    1  UNL1        0.0451
      9 C          -5.6492  -19.0812   22.4567 C.ar    1  UNL1        0.0156
     10 C          -4.1689  -18.8677   22.5703 C.ar    1  UNL1        0.0171
     11 C          -3.2705  -19.2157   21.4206 C.ar    1  UNL1        0.0645
     12 C          -3.8524  -19.7771   20.1573 C.ar    1  UNL1        0.0171
     13 C          -5.3328  -19.9906   20.0437 C.ar    1  UNL1        0.0156
     14 N          -1.7901  -19.0021   21.5343 N.pl3   1  UNL1       -0.2187
     15 H          -1.2574  -19.5617   22.1445 H       1  UNL1        0.1734
     16 S          -1.1212  -17.9360   20.7182 S.O2    1  UNL1        0.0558
     17 C          -0.4524  -16.8698   19.9021 C.3     1  UNL1        0.1996
     18 O          -1.8595  -16.8825   21.4896 O.2     1  UNL1       -0.1544
     19 O          -0.3830  -18.9895   19.9469 O.2     1  UNL1       -0.1544
     20 C          -9.8159  -16.9558   23.7347 C.3     1  UNL1        0.1139
     21 C         -10.6520  -16.6923   22.5176 C.ar    1  UNL1       -0.0029
     22 C         -10.1099  -15.8458   21.4042 C.ar    1  UNL1       -0.0026
     23 C         -10.9460  -15.5823   20.1870 C.ar    1  UNL1       -0.0003
     24 C         -12.3242  -16.1652   20.0832 C.ar    1  UNL1       -0.0000
     25 C         -12.8663  -17.0117   21.1966 C.ar    1  UNL1       -0.0003
     26 C         -12.0302  -17.2752   22.4138 C.ar    1  UNL1       -0.0026
     27 C          -9.1956  -15.8118   24.4806 C.3     1  UNL1        0.0968
     28 N          -7.7029  -15.6755   24.5383 N.3     1  UNL1       -0.2689
     29 C          -6.8789  -15.5232   25.7824 C.3     1  UNL1        0.0748
     30 C          -5.4389  -15.4211   25.3750 C.3     1  UNL1        0.0480
     31 C          -5.3729  -15.5102   23.8791 C.3     1  UNL1        0.1278
     32 O          -4.1266  -15.4523   23.0465 O.3     1  UNL1       -0.3830
     33 C          -6.7722  -15.6674   23.3619 C.3     1  UNL1        0.1017
     34 H          -4.3603  -15.5326   22.1086 H       1  UNL1        0.2104
@<TRIPOS>BOND
     1     1     2    1
     2     2     3   am
     3     3     4    2
     4     3     5    1
     5     5     6    1
     6     6     8    1
     7     8     9   ar
     8     9    10   ar
     9    10    11   ar
    10    11    14    1
    11    14    16    1
    12    16    17    1
    13    16    18    2
    14    16    19    2
    15    11    12   ar
    16    12    13   ar
    17     2    20    1
    18    20    27    1
    19    27    28    1
    20    28    29    1
    21    29    30    1
    22    30    31    1
    23    31    32    1
    24    31    33    1
    25    20    21    1
    26    21    22   ar
    27    22    23   ar
    28    23    24   ar
    29    24    25   ar
    30    25    26   ar
    31    13     8   ar
    32    33    28    1
    33    26    21   ar
    34     6     7    1
    35    14    15    1
    36    32    34    1
@<TRIPOS>MOLECULE
*****
 34 36 0 0 0
SMALL
GASTEIGER

@<TRIPOS>ATOM
      1 C         -10.0797  -15.5970   21.2210 C.3     1  UNL1        0.1152
      2 N          -9.2949  -16.4861   22.1394 N.am    1  UNL1       -0.2729
      3 C          -8.2309  -15.9018   23.0206 C.2     1  UNL1        0.2459
      4 O          -7.9518  -14.4285   22.9833 O.2     1  UNL1       -0.2730
      5 C          -7.4459  -16.7908   23.9391 C.3     1  UNL1        0.1738
      6 N          -5.9988  -16.5014   24.2074 N.pl3   1  UNL1       -0.3253
      7 H          -5.7461  -15.8888   24.9356 H       1  UNL1        0.1473
      8 C          -4.9366  -17.1452   23.3663 C.ar    1  UNL1        0.0451
      9 C          -3.6288  -16.4450   23.1443 C.ar    1  UNL1        0.0156
     10 C          -2.5667  -17.0888   22.3033 C.ar    1  UNL1        0.0171
     11 C          -2.8124  -18.4328   21.6843 C.ar    1  UNL1        0.0645
     12 C          -4.1202  -19.1331   21.9063 C.ar    1  UNL1        0.0171
     13 C          -5.1823  -18.4892   22.7473 C.ar    1  UNL1        0.0156
     14 N          -1.7503  -19.0767   20.8432 N.pl3   1  UNL1       -0.2187
     15 H          -1.3635  -19.9403   21.1148 H       1  UNL1        0.1734
     16 S          -1.2774  -18.4046   19.5883 S.O2    1  UNL1        0.0558
     17 C          -0.8046  -17.7326   18.3333 C.3     1  UNL1        0.1996
     18 O          -2.6491  -18.5432   18.9973 O.2     1  UNL1       -0.1544
     19 O           0.0942  -18.2661   20.1793 O.2     1  UNL1       -0.1544
     20 C          -9.5740  -17.9594   22.1767 C.3     1  UNL1        0.1139
     21 C          -9.3420  -18.7978   20.9548 C.ar    1  UNL1       -0.0029
     22 C          -7.9511  -19.2267   20.5924 C.ar    1  UNL1       -0.0026
     23 C          -7.7191  -20.0652   19.3704 C.ar    1  UNL1       -0.0003
     24 C          -8.8781  -20.4747   18.5108 C.ar    1  UNL1       -0.0000
     25 C         -10.2691  -20.0459   18.8732 C.ar    1  UNL1       -0.0003
     26 C         -10.5010  -19.2075   20.0951 C.ar    1  UNL1       -0.0026
     27 C         -10.0851  -18.5943   23.4359 C.3     1  UNL1        0.0968
     28 N         -11.5271  -18.4433   23.8201 N.3     1  UNL1       -0.2689
     29 C         -12.6074  -17.8414   22.9712 C.3     1  UNL1        0.0748
     30 C         -13.8901  -17.8938   23.7472 C.3     1  UNL1        0.0480
     31 C         -13.6025  -18.5281   25.0757 C.3     1  UNL1        0.1278
     32 O         -14.6001  -18.7789   26.1675 O.3     1  UNL1       -0.3830
     33 C         -12.1421  -18.8678   25.1209 C.3     1  UNL1        0.1017
     34 H         -14.1565  -19.1999   26.9203 H       1  UNL1        0.2104
@<TRIPOS>BOND
     1     1     2    1
     2     2     3   am
     3     3     4    2
     4     3     5    1
     5     5     6    1
     6     6     8    1
     7     8     9   ar
     8     9    10   ar
     9    10    11   ar
    10    11    14    1
    11    14    16    1
    12    16    17    1
    13    16    18    2
    14    16    19    2
    15    11    12   ar
    16    12    13   ar
    17     2    20    1
    18    20    27    1
    19    27    28    1
    20    28    29    1
    21    29    30    1
    22    30    31    1
    23    31    32    1
    24    31    33    1
    25    20    21    1
    26    21    22   ar
    27    22    23   ar
    28    23    24   ar
    29    24    25   ar
    30    25    26   ar
    31    13     8   ar
    32    33    28    1
    33    26    21   ar
    34     6     7    1
    35    14    15    1
    36    32    34    1
@<TRIPOS>MOLECULE
*****
 34 36 0 0 0
SMALL
GASTEIGER

@<TRIPOS>ATOM
      1 C         -11.2317  -15.8448   19.6033 C.3     1  UNL1        0.1152
      2 N         -10.6914  -16.6300   20.7615 N.am    1  UNL1       -0.2729
      3 C          -9.5622  -16.0781   21.5802 C.2     1  UNL1        0.2459
      4 O          -8.9734  -14.7409   21.2408 O.2     1  UNL1       -0.2730
      5 C          -9.0218  -16.8633   22.7384 C.3     1  UNL1        0.1738
      6 N          -7.9204  -16.2934   23.5823 N.pl3   1  UNL1       -0.3253
      7 H          -8.1271  -15.6274   24.2772 H       1  UNL1        0.1473
      8 C          -6.5041  -16.7383   23.3673 C.ar    1  UNL1        0.0451
      9 C          -6.2235  -18.0426   22.6818 C.ar    1  UNL1        0.0156
     10 C          -4.8072  -18.4875   22.4669 C.ar    1  UNL1        0.0171
     11 C          -3.6715  -17.6279   22.9375 C.ar    1  UNL1        0.0645
     12 C          -3.9521  -16.3236   23.6229 C.ar    1  UNL1        0.0171
     13 C          -5.3684  -15.8788   23.8378 C.ar    1  UNL1        0.0156
     14 N          -2.2552  -18.0728   22.7225 N.pl3   1  UNL1       -0.2187
     15 H          -1.6520  -18.1842   23.4925 H       1  UNL1        0.1734
     16 S          -1.7580  -18.3479   21.3343 S.O2    1  UNL1        0.0558
     17 C          -1.2607  -18.6231   19.9461 C.3     1  UNL1        0.1996
     18 O          -1.7469  -16.8759   21.0466 O.2     1  UNL1       -0.1544
     19 O          -1.7690  -19.8200   21.6221 O.2     1  UNL1       -0.1544
     20 C         -11.2801  -17.9672   21.1009 C.3     1  UNL1        0.1139
     21 C         -11.9401  -18.1803   22.4309 C.ar    1  UNL1       -0.0029
     22 C         -13.3202  -17.6468   22.6775 C.ar    1  UNL1       -0.0026
     23 C         -13.9801  -17.8599   24.0076 C.ar    1  UNL1       -0.0003
     24 C         -13.2601  -18.6066   25.0910 C.ar    1  UNL1       -0.0000
     25 C         -11.8800  -19.1402   24.8445 C.ar    1  UNL1       -0.0003
     26 C         -11.2200  -18.9271   23.5145 C.ar    1  UNL1       -0.0026
     27 C         -11.2090  -19.0913   20.1103 C.3     1  UNL1        0.0968
     28 N          -9.8773  -19.6486   19.7027 N.3     1  UNL1       -0.2689
     29 C          -9.5810  -20.3811   18.4277 C.3     1  UNL1        0.0748
     30 C          -8.1287  -20.7565   18.4355 C.3     1  UNL1        0.0480
     31 C          -7.5275  -20.2559   19.7154 C.3     1  UNL1        0.1278
     32 O          -6.0968  -20.4125   20.1379 O.3     1  UNL1       -0.3830
     33 C          -8.6081  -19.5712   20.4986 C.3     1  UNL1        0.1017
     34 H          -5.9690  -19.9997   21.0063 H       1  UNL1        0.2104
@<TRIPOS>BOND
     1     1     2    1
     2     2     3   am
     3     3     4    2
     4     3     5    1
     5     5     6    1
     6     6     8    1
     7     8     9   ar
     8     9    10   ar
     9    10    11   ar
    10    11    14    1
    11    14    16    1
    12    16    17    1
    13    16    18    2
    14    16    19    2
    15    11    12   ar
    16    12    13   ar
    17     2    20    1
    18    20    27    1
    19    27    28    1
    20    28    29    1
    21    29    30    1
    22    30    31    1
    23    31    32    1
    24    31    33    1
    25    20    21    1
    26    21    22   ar
    27    22    23   ar
    28    23    24   ar
    29    24    25   ar
    30    25    26   ar
    31    13     8   ar
    32    33    28    1
    33    26    21   ar
    34     6     7    1
    35    14    15    1
    36    32    34    1
@<TRIPOS>MOLECULE
*****
 34 36 0 0 0
SMALL
GASTEIGER

@<TRIPOS>ATOM
      1 C          -3.3988  -18.0884   25.1959 C.3     1  UNL1        0.1152
      2 N          -4.0026  -17.1698   24.1753 N.am    1  UNL1       -0.2729
      3 C          -4.8664  -16.0249   24.6146 C.2     1  UNL1        0.2459
      4 O          -5.1264  -15.7986   26.0744 O.2     1  UNL1       -0.2730
      5 C          -5.4703  -15.1063   23.5939 C.3     1  UNL1        0.1738
      6 N          -6.8977  -14.6666   23.7320 N.pl3   1  UNL1       -0.3253
      7 H          -7.1055  -13.7256   23.9336 H       1  UNL1        0.1473
      8 C          -8.0084  -15.6604   23.5629 C.ar    1  UNL1        0.0451
      9 C          -8.5512  -16.3888   24.7565 C.ar    1  UNL1        0.0156
     10 C          -9.6619  -17.3826   24.5874 C.ar    1  UNL1        0.0171
     11 C         -10.2298  -17.6481   23.2246 C.ar    1  UNL1        0.0645
     12 C          -9.6869  -16.9197   22.0310 C.ar    1  UNL1        0.0171
     13 C          -8.5763  -15.9259   22.2002 C.ar    1  UNL1        0.0156
     14 N         -11.3405  -18.6420   23.0555 N.pl3   1  UNL1       -0.2187
     15 H         -11.1672  -19.5028   22.6104 H       1  UNL1        0.1734
     16 S         -12.7152  -18.3243   23.5647 S.O2    1  UNL1        0.0558
     17 C         -14.0899  -18.0065   24.0739 C.3     1  UNL1        0.1996
     18 O         -12.3612  -18.9226   24.8938 O.2     1  UNL1       -0.1544
     19 O         -13.0692  -17.7259   22.2356 O.2     1  UNL1       -0.1544
     20 C          -3.7426  -17.3962   22.7155 C.3     1  UNL1        0.1139
     21 C          -4.4562  -18.4971   21.9884 C.ar    1  UNL1       -0.0029
     22 C          -5.9533  -18.5784   22.0338 C.ar    1  UNL1       -0.0026
     23 C          -6.6670  -19.6794   21.3067 C.ar    1  UNL1       -0.0003
     24 C          -5.8836  -20.6989   20.5342 C.ar    1  UNL1       -0.0000
     25 C          -4.3865  -20.6176   20.4888 C.ar    1  UNL1       -0.0003
     26 C          -3.6728  -19.5167   21.2159 C.ar    1  UNL1       -0.0026
     27 C          -2.7689  -16.5216   21.9827 C.3     1  UNL1        0.0968
     28 N          -1.9683  -17.0807   20.8440 N.3     1  UNL1       -0.2689
     29 C          -0.6618  -17.8087   20.9586 C.3     1  UNL1        0.0748
     30 C          -0.2196  -18.1879   19.5763 C.3     1  UNL1        0.0480
     31 C          -1.2529  -17.6942   18.6074 C.3     1  UNL1        0.1278
     32 O          -1.2125  -17.8563   17.1167 O.3     1  UNL1       -0.3830
     33 C          -2.3336  -17.0099   19.3909 C.3     1  UNL1        0.1017
     34 H          -2.0004  -17.4474   16.7256 H       1  UNL1        0.2104
@<TRIPOS>BOND
     1     1     2    1
     2     2     3   am
     3     3     4    2
     4     3     5    1
     5     5     6    1
     6     6     8    1
     7     8     9   ar
     8     9    10   ar
     9    10    11   ar
    10    11    14    1
    11    14    16    1
    12    16    17    1
    13    16    18    2
    14    16    19    2
    15    11    12   ar
    16    12    13   ar
    17     2    20    1
    18    20    27    1
    19    27    28    1
    20    28    29    1
    21    29    30    1
    22    30    31    1
    23    31    32    1
    24    31    33    1
    25    20    21    1
    26    21    22   ar
    27    22    23   ar
    28    23    24   ar
    29    24    25   ar
    30    25    26   ar
    31    13     8   ar
    32    33    28    1
    33    26    21   ar
    34     6     7    1
    35    14    15    1
    36    32    34    1
@<TRIPOS>MOLECULE
*****
 34 36 0 0 0
SMALL
GASTEIGER

@<TRIPOS>ATOM
      1 C         -11.9874  -15.9004   23.1352 C.3     1  UNL1        0.1152
      2 N         -10.7974  -16.5710   22.5155 N.am    1  UNL1       -0.2729
      3 C         -10.9740  -17.4516   21.3141 C.2     1  UNL1        0.2459
      4 O         -12.3407  -17.6615   20.7325 O.2     1  UNL1       -0.2730
      5 C          -9.7840  -18.1223   20.6943 C.3     1  UNL1        0.1738
      6 N          -9.1263  -19.2765   21.3908 N.pl3   1  UNL1       -0.3253
      7 H          -9.6520  -19.8539   21.9904 H       1  UNL1        0.1473
      8 C          -7.6676  -19.5509   21.1739 C.ar    1  UNL1        0.0451
      9 C          -6.9075  -20.3886   22.1589 C.ar    1  UNL1        0.0156
     10 C          -5.4489  -20.6631   21.9419 C.ar    1  UNL1        0.0171
     11 C          -4.7504  -20.0998   20.7399 C.ar    1  UNL1        0.0645
     12 C          -5.5106  -19.2621   19.7548 C.ar    1  UNL1        0.0171
     13 C          -6.9692  -18.9877   19.9718 C.ar    1  UNL1        0.0156
     14 N          -3.2918  -20.3742   20.5230 N.pl3   1  UNL1       -0.2187
     15 H          -2.9851  -21.2922   20.3428 H       1  UNL1        0.1734
     16 S          -2.3004  -19.2500   20.5805 S.O2    1  UNL1        0.0558
     17 C          -1.3090  -18.1258   20.6380 C.3     1  UNL1        0.1996
     18 O          -2.5008  -18.9984   19.1154 O.2     1  UNL1       -0.1544
     19 O          -2.1000  -19.5017   22.0455 O.2     1  UNL1       -0.1544
     20 C          -9.4308  -16.3611   23.0971 C.3     1  UNL1        0.1139
     21 C          -9.2160  -16.4958   24.5755 C.ar    1  UNL1       -0.0029
     22 C          -8.6807  -15.3376   25.3642 C.ar    1  UNL1       -0.0026
     23 C          -8.4660  -15.4724   26.8427 C.ar    1  UNL1       -0.0003
     24 C          -8.7866  -16.7653   27.5323 C.ar    1  UNL1       -0.0000
     25 C          -9.3220  -17.9234   26.7436 C.ar    1  UNL1       -0.0003
     26 C          -9.5367  -17.7887   25.2652 C.ar    1  UNL1       -0.0026
     27 C          -8.2788  -16.0164   22.2003 C.3     1  UNL1        0.0968
     28 N          -6.8765  -16.0586   22.7309 N.3     1  UNL1       -0.2689
     29 C          -6.0558  -14.8745   23.1484 C.3     1  UNL1        0.0748
     30 C          -4.7207  -15.3763   23.6128 C.3     1  UNL1        0.0480
     31 C          -4.7162  -16.8706   23.4822 C.3     1  UNL1        0.1278
     32 O          -3.5790  -17.7830   23.8348 O.3     1  UNL1       -0.3830
     33 C          -6.0485  -17.2923   22.9372 C.3     1  UNL1        0.1017
     34 H          -3.8343  -18.7017   23.6562 H       1  UNL1        0.2104
@<TRIPOS>BOND
     1     1     2    1
     2     2     3   am
     3     3     4    2
     4     3     5    1
     5     5     6    1
     6     6     8    1
     7     8     9   ar
     8     9    10   ar
     9    10    11   ar
    10    11    14    1
    11    14    16    1
    12    16    17    1
    13    16    18    2
    14    16    19    2
    15    11    12   ar
    16    12    13   ar
    17     2    20    1
    18    20    27    1
    19    27    28    1
    20    28    29    1
    21    29    30    1
    22    30    31    1
    23    31    32    1
    24    31    33    1
    25    20    21    1
    26    21    22   ar
    27    22    23   ar
    28    23    24   ar
    29    24    25   ar
    30    25    26   ar
    31    13     8   ar
    32    33    28    1
    33    26    21   ar
    34     6     7    1
    35    14    15    1
    36    32    34    1
@<TRIPOS>MOLECULE
*****
 34 36 0 0 0
SMALL
GASTEIGER

@<TRIPOS>ATOM
      1 C          -3.8705  -20.4713   22.7254 C.3     1  UNL1        0.1152
      2 N          -4.4122  -19.1076   22.4146 N.am    1  UNL1       -0.2729
      3 C          -4.1781  -17.9727   23.3670 C.2     1  UNL1        0.2459
      4 O          -3.4022  -18.2016   24.6302 O.2     1  UNL1       -0.2730
      5 C          -4.7198  -16.6088   23.0563 C.3     1  UNL1        0.1738
      6 N          -5.6424  -15.9298   24.0246 N.pl3   1  UNL1       -0.3253
      7 H          -5.2775  -15.4893   24.8259 H       1  UNL1        0.1473
      8 C          -7.1210  -15.9217   23.7720 C.ar    1  UNL1        0.0451
      9 C          -8.0791  -15.9733   24.9249 C.ar    1  UNL1        0.0156
     10 C          -9.5576  -15.9653   24.6722 C.ar    1  UNL1        0.0171
     11 C         -10.0780  -15.9056   23.2667 C.ar    1  UNL1        0.0645
     12 C          -9.1199  -15.8541   22.1137 C.ar    1  UNL1        0.0171
     13 C          -7.6414  -15.8621   22.3664 C.ar    1  UNL1        0.0156
     14 N         -11.5566  -15.8976   23.0141 N.pl3   1  UNL1       -0.2187
     15 H         -12.1108  -15.1604   23.3585 H       1  UNL1        0.1734
     16 S         -12.1908  -17.0128   22.2368 S.O2    1  UNL1        0.0558
     17 C         -12.8249  -18.1280   21.4595 C.3     1  UNL1        0.1996
     18 O         -12.3597  -16.0971   21.0608 O.2     1  UNL1       -0.1544
     19 O         -12.0219  -17.9285   23.4127 O.2     1  UNL1       -0.1544
     20 C          -5.1880  -18.8787   21.1514 C.3     1  UNL1        0.1139
     21 C          -6.6681  -19.1207   21.1260 C.ar    1  UNL1       -0.0029
     22 C          -7.3985  -19.1651   19.8165 C.ar    1  UNL1       -0.0026
     23 C          -8.8786  -19.4072   19.7912 C.ar    1  UNL1       -0.0003
     24 C          -9.6284  -19.6049   21.0752 C.ar    1  UNL1       -0.0000
     25 C          -8.8980  -19.5606   22.3846 C.ar    1  UNL1       -0.0003
     26 C          -7.4179  -19.3185   22.4100 C.ar    1  UNL1       -0.0026
     27 C          -4.4838  -18.4077   19.9136 C.3     1  UNL1        0.0968
     28 N          -3.0155  -18.1037   19.9558 N.3     1  UNL1       -0.2689
     29 C          -2.3997  -16.7687   20.2533 C.3     1  UNL1        0.0748
     30 C          -0.9088  -16.9213   20.1892 C.3     1  UNL1        0.0480
     31 C          -0.6032  -18.3506   19.8521 C.3     1  UNL1        0.1278
     32 O           0.7642  -18.9448   19.6880 O.3     1  UNL1       -0.3830
     33 C          -1.9052  -19.0814   19.7077 C.3     1  UNL1        0.1017
     34 H           0.6835  -19.8868   19.4712 H       1  UNL1        0.2104
@<TRIPOS>BOND
     1     1     2    1
     2     2     3   am
     3     3     4    2
     4     3     5    1
     5     5     6    1
     6     6     8    1
     7     8     9   ar
     8     9    10   ar
     9    10    11   ar
    10    11    14    1
    11    14    16    1
    12    16    17    1
    13    16    18    2
    14    16    19    2
    15    11    12   ar
    16    12    13   ar
    17     2    20    1
    18    20    27    1
    19    27    28    1
    20    28    29    1
    21    29    30    1
    22    30    31    1
    23    31    32    1
    24    31    33    1
    25    20    21    1
    26    21    22   ar
    27    22    23   ar
    28    23    24   ar
    29    24    25   ar
    30    25    26   ar
    31    13     8   ar
    32    33    28    1
    33    26    21   ar
    34     6     7    1
    35    14    15    1
    36    32    34    1
@<TRIPOS>MOLECULE
*****
 34 36 0 0 0
SMALL
GASTEIGER

@<TRIPOS>ATOM
      1 C           6.0526   -1.1099   17.6695 C.3     1  UNL1        0.1152
      2 N           5.5933   -0.8544   19.0744 N.am    1  UNL1       -0.2729
      3 C           6.4186    0.0011   19.9892 C.2     1  UNL1        0.2459
      4 O           7.7030    0.6012   19.4992 O.2     1  UNL1       -0.2730
      5 C           5.9593    0.2567   21.3942 C.3     1  UNL1        0.1738
      6 N           5.0900    1.4414   21.6954 N.pl3   1  UNL1       -0.3253
      7 H           5.3251    2.3280   21.3379 H       1  UNL1        0.1473
      8 C           3.8623    1.2751   22.5411 C.ar    1  UNL1        0.0451
      9 C           2.7574    2.2869   22.4664 C.ar    1  UNL1        0.0156
     10 C           1.5298    2.1206   23.3121 C.ar    1  UNL1        0.0171
     11 C           1.4071    0.9426   24.2326 C.ar    1  UNL1        0.0645
     12 C           2.5120   -0.0691   24.3073 C.ar    1  UNL1        0.0171
     13 C           3.7396    0.0971   23.4616 C.ar    1  UNL1        0.0156
     14 N           0.1794    0.7763   25.0783 N.pl3   1  UNL1       -0.2187
     15 H          -0.4196    0.0091   24.9310 H       1  UNL1        0.1734
     16 S          -0.1355    1.7791   26.1485 S.O2    1  UNL1        0.0558
     17 C          -0.4505    2.7819   27.2187 C.3     1  UNL1        0.1996
     18 O           0.9938    1.2466   26.9798 O.2     1  UNL1       -0.1544
     19 O          -1.2648    2.3115   25.3173 O.2     1  UNL1       -0.1544
     20 C           4.3089   -1.4544   19.5644 C.3     1  UNL1        0.1139
     21 C           3.0496   -0.6395   19.5572 C.ar    1  UNL1       -0.0029
     22 C           1.9109   -1.0107   20.4603 C.ar    1  UNL1       -0.0026
     23 C           0.6515   -0.1957   20.4531 C.ar    1  UNL1       -0.0003
     24 C           0.5310    0.9904   19.5428 C.ar    1  UNL1       -0.0000
     25 C           1.6697    1.3615   18.6397 C.ar    1  UNL1       -0.0003
     26 C           2.9290    0.5466   18.6469 C.ar    1  UNL1       -0.0026
     27 C           4.2837   -2.8693   20.0616 C.3     1  UNL1        0.0968
     28 N           5.1549   -3.2752   21.2133 N.3     1  UNL1       -0.2689
     29 C           6.5832   -3.7242   21.1230 C.3     1  UNL1        0.0748
     30 C           7.0618   -4.0299   22.5113 C.3     1  UNL1        0.0480
     31 C           5.9292   -3.7698   23.4598 C.3     1  UNL1        0.1278
     32 O           5.9682   -3.9453   24.9489 O.3     1  UNL1       -0.3830
     33 C           4.7506   -3.3034   22.6576 C.3     1  UNL1        0.1017
     34 H           5.1058   -3.7094   25.3250 H       1  UNL1        0.2104
@<TRIPOS>BOND
     1     1     2    1
     2     2     3   am
     3     3     4    2
     4     3     5    1
     5     5     6    1
     6     6     8    1
     7     8     9   ar
     8     9    10   ar
     9    10    11   ar
    10    11    14    1
    11    14    16    1
    12    16    17    1
    13    16    18    2
    14    16    19    2
    15    11    12   ar
    16    12    13   ar
    17     2    20    1
    18    20    27    1
    19    27    28    1
    20    28    29    1
    21    29    30    1
    22    30    31    1
    23    31    32    1
    24    31    33    1
    25    20    21    1
    26    21    22   ar
    27    22    23   ar
    28    23    24   ar
    29    24    25   ar
    30    25    26   ar
    31    13     8   ar
    32    33    28    1
    33    26    21   ar
    34     6     7    1
    35    14    15    1
    36    32    34    1
