@<TRIPOS>MOLECULE
*****
 38 43 0 0 0
SMALL
GASTEIGER

@<TRIPOS>ATOM
      1 C          -7.5320  -19.8322   20.4659 C.3     1  UNL1        0.0745
      2 C          -8.6838  -19.3990   19.6082 C.3     1  UNL1        0.0356
      3 C          -9.0888  -20.2247   18.4233 C.3     1  UNL1        0.0594
      4 C          -9.1352  -21.3119   17.3909 C.3     1  UNL1        0.0174
      5 C          -8.0390  -22.2890   17.6972 C.3     1  UNL1        0.0174
      6 C          -7.3151  -21.8055   18.9188 C.3     1  UNL1        0.0594
      7 C          -6.7852  -21.0912   20.1387 C.3     1  UNL1        0.0356
      8 N          -7.9639  -20.5297   19.3676 N.3     1  UNL1       -0.2715
      9 O          -9.1256  -17.4040   21.2170 O.2     1  UNL1       -0.2701
     10 C          -7.9239  -17.7923   22.0265 C.2     1  UNL1        0.2474
     11 N          -7.1271  -19.0064   21.6509 N.am    1  UNL1       -0.3024
     12 H          -6.3383  -19.2613   22.1821 H       1  UNL1        0.1497
     13 C          -7.5190  -16.9665   23.2114 C.ar    1  UNL1        0.0755
     14 C          -6.3070  -16.0861   23.1332 C.ar    1  UNL1        0.0078
     15 C          -5.9021  -15.2603   24.3181 C.ar    1  UNL1        0.0208
     16 C          -6.7092  -15.3149   25.5813 C.ar    1  UNL1        0.0990
     17 N          -7.9212  -16.1952   25.6596 N.ar    1  UNL1       -0.2391
     18 C          -8.3261  -17.0210   24.4745 C.ar    1  UNL1        0.1390
     19 C          -9.5380  -17.9014   24.5528 C.2     1  UNL1        0.2669
     20 O          -9.1250  -19.1037   25.3490 O.2     1  UNL1       -0.2683
     21 N         -10.8171  -17.4770   23.8940 N.am    1  UNL1       -0.2748
     22 C         -10.8841  -16.1723   23.1570 C.3     1  UNL1        0.0938
     23 C         -12.1632  -15.7478   22.4982 C.3     1  UNL1        0.0216
     24 C         -13.3752  -16.6282   22.5764 C.3     1  UNL1        0.0035
     25 C         -13.3081  -17.9330   23.3134 C.3     1  UNL1        0.0216
     26 C         -12.0291  -18.3573   23.9722 C.3     1  UNL1        0.0938
     27 C          -7.5589  -19.7040   20.5525 C.3     1  UNL1        0.0991
     28 C          -6.1093  -19.4097   20.8014 C.ar    1  UNL1       -0.0061
     29 C          -5.5087  -19.6843   22.1482 C.ar    1  UNL1       -0.0029
     30 C          -4.0591  -19.3900   22.3970 C.ar    1  UNL1       -0.0002
     31 C          -3.2100  -18.8210   21.2991 C.ar    1  UNL1        0.0022
     32 C          -1.7604  -18.5267   21.5480 C.ar    1  UNL1        0.0296
     33 C          -0.9114  -17.9577   20.4501 C.ar    1  UNL1        0.1401
     34 F           0.5383  -17.6634   20.6989 F       1  UNL1       -0.2042
     35 C          -1.5120  -17.6830   19.1032 C.ar    1  UNL1        0.0296
     36 C          -2.9616  -17.9774   18.8544 C.ar    1  UNL1        0.0023
     37 C          -3.8106  -18.5464   19.9523 C.ar    1  UNL1       -0.0001
     38 C          -5.2602  -18.8407   19.7035 C.ar    1  UNL1       -0.0029
@<TRIPOS>BOND
     1     9    10    2
     2    10    11   am
     3     1    11    1
     4     1     2    1
     5     3     2    1
     6     3     4    1
     7     4     5    1
     8     6     5    1
     9     6     7    1
    10     6     8    1
    11     8    27    1
    12    27    28    1
    13    28    29   ar
    14    29    30   ar
    15    30    31   ar
    16    31    32   ar
    17    32    33   ar
    18    33    34    1
    19    33    35   ar
    20    35    36   ar
    21    36    37   ar
    22    37    38   ar
    23    10    13    1
    24    13    14   ar
    25    14    15   ar
    26    15    16   ar
    27    16    17   ar
    28    17    18   ar
    29    18    19    1
    30    19    20    2
    31    19    21   am
    32    21    22    1
    33    22    23    1
    34    23    24    1
    35    24    25    1
    36    25    26    1
    37     7     1    1
    38    38    28   ar
    39    18    13   ar
    40    26    21    1
    41     8     3    1
    42    37    31   ar
    43    11    12    1
@<TRIPOS>MOLECULE
*****
 38 43 0 0 0
SMALL
GASTEIGER

@<TRIPOS>ATOM
      1 C           6.3640   -2.6875   20.9917 C.3     1  UNL1        0.0745
      2 C           7.5602   -2.6715   20.0868 C.3     1  UNL1        0.0356
      3 C           8.6879   -3.6333   20.3174 C.3     1  UNL1        0.0594
      4 C           9.5348   -4.7254   20.9008 C.3     1  UNL1        0.0174
      5 C           8.8045   -5.2991   22.0788 C.3     1  UNL1        0.0174
      6 C           7.5063   -4.5616   22.2235 C.3     1  UNL1        0.0594
      7 C           6.2954   -3.6652   22.1272 C.3     1  UNL1        0.0356
      8 N           7.4343   -3.5321   21.1349 N.3     1  UNL1       -0.2715
      9 O           4.2270   -3.3342   18.9880 O.2     1  UNL1       -0.2701
     10 C           4.1677   -2.0490   19.7592 C.2     1  UNL1        0.2474
     11 N           5.2362   -1.7256   20.7611 N.am    1  UNL1       -0.3024
     12 H           5.1974   -0.8821   21.2672 H       1  UNL1        0.1497
     13 C           3.0400   -1.0872   19.5285 C.ar    1  UNL1        0.0755
     14 C           1.8749   -1.0571   20.4728 C.ar    1  UNL1        0.0078
     15 C           0.7473   -0.0953   20.2421 C.ar    1  UNL1        0.0208
     16 C           0.7846    0.8364   19.0671 C.ar    1  UNL1        0.0990
     17 N           1.9498    0.8063   18.1229 N.ar    1  UNL1       -0.2391
     18 C           3.0775   -0.1555   18.3536 C.ar    1  UNL1        0.1390
     19 C           4.2426   -0.1856   17.4093 C.2     1  UNL1        0.2669
     20 O           3.8574   -1.1275   16.3074 O.2     1  UNL1       -0.2683
     21 N           5.4615    0.6405   17.6956 N.am    1  UNL1       -0.2748
     22 C           5.5152    1.4967   18.9261 C.3     1  UNL1        0.0938
     23 C           6.7342    2.3228   19.2123 C.3     1  UNL1        0.0216
     24 C           7.8993    2.2927   18.2681 C.3     1  UNL1        0.0035
     25 C           7.8455    1.4365   17.0376 C.3     1  UNL1        0.0216
     26 C           6.6266    0.6104   16.7514 C.3     1  UNL1        0.0938
     27 C           6.3066   -2.5703   20.9043 C.3     1  UNL1        0.0991
     28 C           6.0125   -1.5028   21.9163 C.ar    1  UNL1       -0.0061
     29 C           6.8260   -0.2428   21.9352 C.ar    1  UNL1       -0.0029
     30 C           6.5319    0.8247   22.9471 C.ar    1  UNL1       -0.0002
     31 C           5.4243    0.6321   23.9401 C.ar    1  UNL1        0.0022
     32 C           5.1302    1.6996   24.9521 C.ar    1  UNL1        0.0296
     33 C           4.0225    1.5070   25.9450 C.ar    1  UNL1        0.1401
     34 F           3.7284    2.5745   26.9570 F       1  UNL1       -0.2042
     35 C           3.2090    0.2469   25.9261 C.ar    1  UNL1        0.0296
     36 C           3.5031   -0.8206   24.9142 C.ar    1  UNL1        0.0023
     37 C           4.6107   -0.6280   23.9212 C.ar    1  UNL1       -0.0001
     38 C           4.9048   -1.6954   22.9093 C.ar    1  UNL1       -0.0029
@<TRIPOS>BOND
     1     9    10    2
     2    10    11   am
     3     1    11    1
     4     1     2    1
     5     3     2    1
     6     3     4    1
     7     4     5    1
     8     6     5    1
     9     6     7    1
    10     6     8    1
    11     8    27    1
    12    27    28    1
    13    28    29   ar
    14    29    30   ar
    15    30    31   ar
    16    31    32   ar
    17    32    33   ar
    18    33    34    1
    19    33    35   ar
    20    35    36   ar
    21    36    37   ar
    22    37    38   ar
    23    10    13    1
    24    13    14   ar
    25    14    15   ar
    26    15    16   ar
    27    16    17   ar
    28    17    18   ar
    29    18    19    1
    30    19    20    2
    31    19    21   am
    32    21    22    1
    33    22    23    1
    34    23    24    1
    35    24    25    1
    36    25    26    1
    37     7     1    1
    38    38    28   ar
    39    18    13   ar
    40    26    21    1
    41     8     3    1
    42    37    31   ar
    43    11    12    1
@<TRIPOS>MOLECULE
*****
 38 43 0 0 0
SMALL
GASTEIGER

@<TRIPOS>ATOM
      1 C          -7.0946  -16.5181   23.4712 C.3     1  UNL1        0.0745
      2 C          -5.6287  -16.2055   23.5290 C.3     1  UNL1        0.0356
      3 C          -5.0532  -15.5292   24.7378 C.3     1  UNL1        0.0594
      4 C          -4.9261  -14.8769   26.0826 C.3     1  UNL1        0.0174
      5 C          -6.2866  -14.8474   26.7137 C.3     1  UNL1        0.0174
      6 C          -7.2544  -15.4814   25.7591 C.3     1  UNL1        0.0594
      7 C          -7.9850  -16.1544   24.6222 C.3     1  UNL1        0.0356
      8 N          -6.4921  -15.9029   24.5379 N.3     1  UNL1       -0.2715
      9 O          -6.2362  -19.3031   22.7593 O.2     1  UNL1       -0.2701
     10 C          -7.2409  -18.5869   21.9063 C.2     1  UNL1        0.2474
     11 N          -7.6702  -17.1944   22.2622 N.am    1  UNL1       -0.3024
     12 H          -8.3296  -16.7243   21.7024 H       1  UNL1        0.1497
     13 C          -7.8164  -19.2632   20.6975 C.ar    1  UNL1        0.0755
     14 C          -9.1842  -18.8889   20.2086 C.ar    1  UNL1        0.0078
     15 C          -9.7597  -19.5652   18.9997 C.ar    1  UNL1        0.0208
     16 C          -8.9673  -20.6159   18.2797 C.ar    1  UNL1        0.0990
     17 N          -7.5995  -20.9902   18.7686 N.ar    1  UNL1       -0.2391
     18 C          -7.0241  -20.3138   19.9775 C.ar    1  UNL1        0.1390
     19 C          -5.6563  -20.6881   20.4664 C.2     1  UNL1        0.2669
     20 O          -5.8265  -21.9665   21.2324 O.2     1  UNL1       -0.2683
     21 N          -4.4793  -19.8164   20.1421 N.am    1  UNL1       -0.2748
     22 C          -4.6703  -18.5705   19.3290 C.3     1  UNL1        0.0938
     23 C          -3.4933  -17.6988   19.0047 C.3     1  UNL1        0.0216
     24 C          -2.1255  -18.0731   19.4936 C.3     1  UNL1        0.0035
     25 C          -1.9346  -19.3191   20.3068 C.3     1  UNL1        0.0216
     26 C          -3.1115  -20.1907   20.6310 C.3     1  UNL1        0.0938
     27 C          -7.0676  -16.5791   23.3290 C.3     1  UNL1        0.0991
     28 C          -8.5529  -16.7419   23.1966 C.ar    1  UNL1       -0.0061
     29 C          -9.3043  -15.9562   22.1632 C.ar    1  UNL1       -0.0029
     30 C         -10.7896  -16.1190   22.0308 C.ar    1  UNL1       -0.0002
     31 C         -11.5234  -17.0675   22.9318 C.ar    1  UNL1        0.0022
     32 C         -13.0087  -17.2303   22.7994 C.ar    1  UNL1        0.0296
     33 C         -13.7425  -18.1788   23.7004 C.ar    1  UNL1        0.1401
     34 F         -15.2277  -18.3416   23.5680 F       1  UNL1       -0.2042
     35 C         -12.9910  -18.9646   24.7338 C.ar    1  UNL1        0.0296
     36 C         -11.5057  -18.8018   24.8662 C.ar    1  UNL1        0.0023
     37 C         -10.7719  -17.8533   23.9652 C.ar    1  UNL1       -0.0001
     38 C          -9.2867  -17.6905   24.0976 C.ar    1  UNL1       -0.0029
@<TRIPOS>BOND
     1     9    10    2
     2    10    11   am
     3     1    11    1
     4     1     2    1
     5     3     2    1
     6     3     4    1
     7     4     5    1
     8     6     5    1
     9     6     7    1
    10     6     8    1
    11     8    27    1
    12    27    28    1
    13    28    29   ar
    14    29    30   ar
    15    30    31   ar
    16    31    32   ar
    17    32    33   ar
    18    33    34    1
    19    33    35   ar
    20    35    36   ar
    21    36    37   ar
    22    37    38   ar
    23    10    13    1
    24    13    14   ar
    25    14    15   ar
    26    15    16   ar
    27    16    17   ar
    28    17    18   ar
    29    18    19    1
    30    19    20    2
    31    19    21   am
    32    21    22    1
    33    22    23    1
    34    23    24    1
    35    24    25    1
    36    25    26    1
    37     7     1    1
    38    38    28   ar
    39    18    13   ar
    40    26    21    1
    41     8     3    1
    42    37    31   ar
    43    11    12    1
@<TRIPOS>MOLECULE
*****
 38 43 0 0 0
SMALL
GASTEIGER

@<TRIPOS>ATOM
      1 C           6.8015    0.2801   17.9006 C.3     1  UNL1        0.0745
      2 C           7.8146    0.9204   18.8026 C.3     1  UNL1        0.0356
      3 C           8.7398    1.9713   18.2646 C.3     1  UNL1        0.0594
      4 C           9.4234    2.9299   17.3351 C.3     1  UNL1        0.0174
      5 C           8.7876    2.7973   15.9829 C.3     1  UNL1        0.0174
      6 C           7.7113    1.7568   16.0768 C.3     1  UNL1        0.0594
      7 C           6.7136    0.6907   16.4606 C.3     1  UNL1        0.0356
      8 N           7.6817    1.2463   17.4869 N.3     1  UNL1       -0.2715
      9 O           7.8777   -2.4102   18.6777 O.2     1  UNL1       -0.2701
     10 C           6.4144   -2.1161   18.8272 C.2     1  UNL1        0.2474
     11 N           5.8763   -0.7709   18.4386 N.am    1  UNL1       -0.3024
     12 H           4.9159   -0.5778   18.5367 H       1  UNL1        0.1497
     13 C           5.4893   -3.1671   19.3652 C.ar    1  UNL1        0.0755
     14 C           4.9341   -4.2175   18.4496 C.ar    1  UNL1        0.0078
     15 C           4.0089   -5.2685   18.9876 C.ar    1  UNL1        0.0208
     16 C           3.6389   -5.2691   20.4413 C.ar    1  UNL1        0.0990
     17 N           4.1941   -4.2186   21.3569 N.ar    1  UNL1       -0.2391
     18 C           5.1193   -3.1676   20.8188 C.ar    1  UNL1        0.1390
     19 C           5.6745   -2.1172   21.7344 C.2     1  UNL1        0.2669
     20 O           7.1005   -2.5048   21.9918 O.2     1  UNL1       -0.2683
     21 N           4.8052   -0.9818   22.1877 N.am    1  UNL1       -0.2748
     22 C           3.3808   -0.8970   21.7254 C.3     1  UNL1        0.0938
     23 C           2.5115    0.2384   22.1786 C.3     1  UNL1        0.0216
     24 C           3.0666    1.2888   23.0942 C.3     1  UNL1        0.0035
     25 C           4.4911    1.2039   23.5566 C.3     1  UNL1        0.0216
     26 C           5.3604    0.0686   23.1033 C.3     1  UNL1        0.0938
     27 C           6.7565    0.1954   18.0249 C.3     1  UNL1        0.0991
     28 C           5.2931    0.4893   18.1735 C.ar    1  UNL1       -0.0061
     29 C           4.2791   -0.3992   17.5159 C.ar    1  UNL1       -0.0029
     30 C           2.8158   -0.1052   17.6646 C.ar    1  UNL1       -0.0002
     31 C           2.3664    1.0772   18.4708 C.ar    1  UNL1        0.0022
     32 C           0.9029    1.3711   18.6194 C.ar    1  UNL1        0.0296
     33 C           0.4535    2.5535   19.4255 C.ar    1  UNL1        0.1401
     34 F          -1.0098    2.8475   19.5742 F       1  UNL1       -0.2042
     35 C           1.4676    3.4420   20.0831 C.ar    1  UNL1        0.0296
     36 C           2.9310    3.1481   19.9345 C.ar    1  UNL1        0.0023
     37 C           3.3803    1.9657   19.1283 C.ar    1  UNL1       -0.0001
     38 C           4.8437    1.6717   18.9797 C.ar    1  UNL1       -0.0029
@<TRIPOS>BOND
     1     9    10    2
     2    10    11   am
     3     1    11    1
     4     1     2    1
     5     3     2    1
     6     3     4    1
     7     4     5    1
     8     6     5    1
     9     6     7    1
    10     6     8    1
    11     8    27    1
    12    27    28    1
    13    28    29   ar
    14    29    30   ar
    15    30    31   ar
    16    31    32   ar
    17    32    33   ar
    18    33    34    1
    19    33    35   ar
    20    35    36   ar
    21    36    37   ar
    22    37    38   ar
    23    10    13    1
    24    13    14   ar
    25    14    15   ar
    26    15    16   ar
    27    16    17   ar
    28    17    18   ar
    29    18    19    1
    30    19    20    2
    31    19    21   am
    32    21    22    1
    33    22    23    1
    34    23    24    1
    35    24    25    1
    36    25    26    1
    37     7     1    1
    38    38    28   ar
    39    18    13   ar
    40    26    21    1
    41     8     3    1
    42    37    31   ar
    43    11    12    1
@<TRIPOS>MOLECULE
*****
 38 43 0 0 0
SMALL
GASTEIGER

@<TRIPOS>ATOM
      1 C          -8.1406  -19.6956   20.0771 C.3     1  UNL1        0.0745
      2 C          -9.1172  -19.2008   19.0517 C.3     1  UNL1        0.0356
      3 C          -9.4765  -20.0652   17.8797 C.3     1  UNL1        0.0594
      4 C          -9.5339  -21.2181   16.9218 C.3     1  UNL1        0.0174
      5 C          -8.6136  -22.2885   17.4292 C.3     1  UNL1        0.0174
      6 C          -7.9875  -21.7971   18.7007 C.3     1  UNL1        0.0594
      7 C          -7.5233  -21.0547   19.9305 C.3     1  UNL1        0.0356
      8 N          -8.5208  -20.4231   18.9791 N.3     1  UNL1       -0.2715
      9 O          -5.4116  -18.4615   20.2501 O.2     1  UNL1       -0.2701
     10 C          -6.4168  -18.2141   21.3357 C.2     1  UNL1        0.2474
     11 N          -7.7813  -18.8311   21.2492 N.am    1  UNL1       -0.3024
     12 H          -8.4410  -18.6687   21.9617 H       1  UNL1        0.1497
     13 C          -6.0575  -17.3496   22.5076 C.ar    1  UNL1        0.0755
     14 C          -7.0446  -16.3496   23.0326 C.ar    1  UNL1        0.0078
     15 C          -6.6853  -15.4852   24.2046 C.ar    1  UNL1        0.0208
     16 C          -5.3388  -15.6207   24.8517 C.ar    1  UNL1        0.0990
     17 N          -4.3516  -16.6207   24.3267 N.ar    1  UNL1       -0.2391
     18 C          -4.7110  -17.4852   23.1546 C.ar    1  UNL1        0.1390
     19 C          -3.7239  -18.4852   22.6297 C.2     1  UNL1        0.2669
     20 O          -4.1962  -19.8247   23.1120 O.2     1  UNL1       -0.2683
     21 N          -2.5597  -18.0266   21.8022 N.am    1  UNL1       -0.2748
     22 C          -2.3828  -16.5681   21.4998 C.3     1  UNL1        0.0938
     23 C          -1.2186  -16.1096   20.6724 C.3     1  UNL1        0.0216
     24 C          -0.2315  -17.1096   20.1474 C.3     1  UNL1        0.0035
     25 C          -0.4085  -18.5681   20.4499 C.3     1  UNL1        0.0216
     26 C          -1.5726  -19.0266   21.2773 C.3     1  UNL1        0.0938
     27 C          -8.1615  -19.5586   20.1511 C.3     1  UNL1        0.0991
     28 C          -9.0900  -19.4633   21.3254 C.ar    1  UNL1       -0.0061
     29 C          -8.7215  -20.1105   22.6274 C.ar    1  UNL1       -0.0029
     30 C          -9.6500  -20.0151   23.8016 C.ar    1  UNL1       -0.0002
     31 C         -10.9470  -19.2726   23.6737 C.ar    1  UNL1        0.0022
     32 C         -11.8756  -19.1773   24.8480 C.ar    1  UNL1        0.0296
     33 C         -13.1726  -18.4347   24.7201 C.ar    1  UNL1        0.1401
     34 F         -14.1011  -18.3394   25.8943 F       1  UNL1       -0.2042
     35 C         -13.5411  -17.7875   23.4180 C.ar    1  UNL1        0.0296
     36 C         -12.6126  -17.8829   22.2438 C.ar    1  UNL1        0.0023
     37 C         -11.3156  -18.6254   22.3717 C.ar    1  UNL1       -0.0001
     38 C         -10.3871  -18.7208   21.1975 C.ar    1  UNL1       -0.0029
@<TRIPOS>BOND
     1     9    10    2
     2    10    11   am
     3     1    11    1
     4     1     2    1
     5     3     2    1
     6     3     4    1
     7     4     5    1
     8     6     5    1
     9     6     7    1
    10     6     8    1
    11     8    27    1
    12    27    28    1
    13    28    29   ar
    14    29    30   ar
    15    30    31   ar
    16    31    32   ar
    17    32    33   ar
    18    33    34    1
    19    33    35   ar
    20    35    36   ar
    21    36    37   ar
    22    37    38   ar
    23    10    13    1
    24    13    14   ar
    25    14    15   ar
    26    15    16   ar
    27    16    17   ar
    28    17    18   ar
    29    18    19    1
    30    19    20    2
    31    19    21   am
    32    21    22    1
    33    22    23    1
    34    23    24    1
    35    24    25    1
    36    25    26    1
    37     7     1    1
    38    38    28   ar
    39    18    13   ar
    40    26    21    1
    41     8     3    1
    42    37    31   ar
    43    11    12    1
@<TRIPOS>MOLECULE
*****
 38 43 0 0 0
SMALL
GASTEIGER

@<TRIPOS>ATOM
      1 C           2.8745    2.8384   37.1269 C.3     1  UNL1        0.0745
      2 C           3.2366    1.4212   37.4591 C.3     1  UNL1        0.0356
      3 C           2.4442    0.6651   38.4839 C.3     1  UNL1        0.0594
      4 C           1.4199    0.3168   39.5230 C.3     1  UNL1        0.0174
      5 C           0.5443    1.5169   39.7311 C.3     1  UNL1        0.0174
      6 C           1.0274    2.6067   38.8207 C.3     1  UNL1        0.0594
      7 C           1.7200    3.4996   37.8196 C.3     1  UNL1        0.0356
      8 N           2.2016    2.0803   38.0499 N.3     1  UNL1       -0.2715
      9 O           5.3404    4.3385   37.9449 O.2     1  UNL1       -0.2701
     10 C           4.9000    4.3445   36.5110 C.2     1  UNL1        0.2474
     11 N           3.6670    3.5945   36.1020 N.am    1  UNL1       -0.3024
     12 H           3.3780    3.5984   35.1609 H       1  UNL1        0.1497
     13 C           5.6925    5.1005   35.4862 C.ar    1  UNL1        0.0755
     14 C           5.2723    6.4829   35.0833 C.ar    1  UNL1        0.0078
     15 C           6.0648    7.2390   34.0585 C.ar    1  UNL1        0.0208
     16 C           7.2776    6.6126   33.4365 C.ar    1  UNL1        0.0990
     17 N           7.6978    5.2302   33.8393 N.ar    1  UNL1       -0.2391
     18 C           6.9052    4.4741   34.8642 C.ar    1  UNL1        0.1390
     19 C           7.3255    3.0917   35.2671 C.2     1  UNL1        0.2669
     20 O           8.1614    3.2570   36.5016 O.2     1  UNL1       -0.2683
     21 N           6.8868    1.9083   34.4564 N.am    1  UNL1       -0.2748
     22 C           6.0279    2.1073   33.2429 C.3     1  UNL1        0.0938
     23 C           5.5893    0.9239   32.4321 C.3     1  UNL1        0.0216
     24 C           6.0095   -0.4585   32.8350 C.3     1  UNL1        0.0035
     25 C           6.8684   -0.6575   34.0486 C.3     1  UNL1        0.0216
     26 C           7.3070    0.5259   34.8593 C.3     1  UNL1        0.0938
     27 C           2.9940    2.8364   37.0251 C.3     1  UNL1        0.0991
     28 C           2.3968    3.1272   35.6801 C.ar    1  UNL1       -0.0061
     29 C           1.6492    4.4075   35.4524 C.ar    1  UNL1       -0.0029
     30 C           1.0520    4.6982   34.1075 C.ar    1  UNL1       -0.0002
     31 C           1.2025    3.7087   32.9903 C.ar    1  UNL1        0.0022
     32 C           0.6053    3.9996   31.6453 C.ar    1  UNL1        0.0296
     33 C           0.7558    3.0100   30.5281 C.ar    1  UNL1        0.1401
     34 F           0.1587    3.3008   29.1832 F       1  UNL1       -0.2042
     35 C           1.5035    1.7297   30.7558 C.ar    1  UNL1        0.0296
     36 C           2.1007    1.4389   32.1007 C.ar    1  UNL1        0.0023
     37 C           1.9502    2.4285   33.2180 C.ar    1  UNL1       -0.0001
     38 C           2.5473    2.1377   34.5629 C.ar    1  UNL1       -0.0029
@<TRIPOS>BOND
     1     9    10    2
     2    10    11   am
     3     1    11    1
     4     1     2    1
     5     3     2    1
     6     3     4    1
     7     4     5    1
     8     6     5    1
     9     6     7    1
    10     6     8    1
    11     8    27    1
    12    27    28    1
    13    28    29   ar
    14    29    30   ar
    15    30    31   ar
    16    31    32   ar
    17    32    33   ar
    18    33    34    1
    19    33    35   ar
    20    35    36   ar
    21    36    37   ar
    22    37    38   ar
    23    10    13    1
    24    13    14   ar
    25    14    15   ar
    26    15    16   ar
    27    16    17   ar
    28    17    18   ar
    29    18    19    1
    30    19    20    2
    31    19    21   am
    32    21    22    1
    33    22    23    1
    34    23    24    1
    35    24    25    1
    36    25    26    1
    37     7     1    1
    38    38    28   ar
    39    18    13   ar
    40    26    21    1
    41     8     3    1
    42    37    31   ar
    43    11    12    1
@<TRIPOS>MOLECULE
*****
 38 43 0 0 0
SMALL
GASTEIGER

@<TRIPOS>ATOM
      1 C           2.3590    1.3740   18.8735 C.3     1  UNL1        0.0745
      2 C           0.8752    1.4431   18.6643 C.3     1  UNL1        0.0356
      3 C           0.2438    2.7167   18.1856 C.3     1  UNL1        0.0594
      4 C           0.0600    4.1306   17.7197 C.3     1  UNL1        0.0174
      5 C           1.4088    4.7862   17.6849 C.3     1  UNL1        0.0174
      6 C           2.4261    3.7774   18.1294 C.3     1  UNL1        0.0594
      7 C           3.2112    2.5785   18.6041 C.3     1  UNL1        0.0356
      8 N           1.7061    2.4984   18.4389 N.3     1  UNL1       -0.2715
      9 O           3.4476   -0.5976   16.8917 O.2     1  UNL1       -0.2701
     10 C           3.5347   -0.8855   18.3613 C.2     1  UNL1        0.2474
     11 N           2.9904    0.1003   19.3522 N.am    1  UNL1       -0.3024
     12 H           3.0475   -0.0886   20.3167 H       1  UNL1        0.1497
     13 C           4.1661   -2.1591   18.8399 C.ar    1  UNL1        0.0755
     14 C           3.3086   -3.3480   19.1579 C.ar    1  UNL1        0.0078
     15 C           3.9400   -4.6217   19.6365 C.ar    1  UNL1        0.0208
     16 C           5.4290   -4.7065   19.7971 C.ar    1  UNL1        0.0990
     17 N           6.2865   -3.5176   19.4791 N.ar    1  UNL1       -0.2391
     18 C           5.6551   -2.2439   19.0005 C.ar    1  UNL1        0.1390
     19 C           6.5126   -1.0550   18.6825 C.2     1  UNL1        0.2669
     20 O           6.7473   -1.0988   17.2016 O.2     1  UNL1       -0.2683
     21 N           6.9428   -0.1258   19.7787 N.am    1  UNL1       -0.2748
     22 C           6.5155   -0.3856   21.1929 C.3     1  UNL1        0.0938
     23 C           6.9457    0.5435   22.2891 C.3     1  UNL1        0.0216
     24 C           7.8033    1.7324   21.9711 C.3     1  UNL1        0.0035
     25 C           8.2306    1.9922   20.5569 C.3     1  UNL1        0.0216
     26 C           7.8004    1.0631   19.4607 C.3     1  UNL1        0.0938
     27 C           2.3375    1.2248   18.9175 C.3     1  UNL1        0.0991
     28 C           2.6367    1.0378   20.3755 C.ar    1  UNL1       -0.0061
     29 C           2.1574   -0.1923   21.0877 C.ar    1  UNL1       -0.0029
     30 C           2.4567   -0.3793   22.5455 C.ar    1  UNL1       -0.0002
     31 C           3.2352    0.6637   23.2912 C.ar    1  UNL1        0.0022
     32 C           3.5344    0.4767   24.7492 C.ar    1  UNL1        0.0296
     33 C           4.3129    1.5197   25.4949 C.ar    1  UNL1        0.1401
     34 F           4.6121    1.3327   26.9527 F       1  UNL1       -0.2042
     35 C           4.7922    2.7498   24.7826 C.ar    1  UNL1        0.0296
     36 C           4.4930    2.9368   23.3247 C.ar    1  UNL1        0.0023
     37 C           3.7145    1.8938   22.5790 C.ar    1  UNL1       -0.0001
     38 C           3.4152    2.0808   21.1211 C.ar    1  UNL1       -0.0029
@<TRIPOS>BOND
     1     9    10    2
     2    10    11   am
     3     1    11    1
     4     1     2    1
     5     3     2    1
     6     3     4    1
     7     4     5    1
     8     6     5    1
     9     6     7    1
    10     6     8    1
    11     8    27    1
    12    27    28    1
    13    28    29   ar
    14    29    30   ar
    15    30    31   ar
    16    31    32   ar
    17    32    33   ar
    18    33    34    1
    19    33    35   ar
    20    35    36   ar
    21    36    37   ar
    22    37    38   ar
    23    10    13    1
    24    13    14   ar
    25    14    15   ar
    26    15    16   ar
    27    16    17   ar
    28    17    18   ar
    29    18    19    1
    30    19    20    2
    31    19    21   am
    32    21    22    1
    33    22    23    1
    34    23    24    1
    35    24    25    1
    36    25    26    1
    37     7     1    1
    38    38    28   ar
    39    18    13   ar
    40    26    21    1
    41     8     3    1
    42    37    31   ar
    43    11    12    1
@<TRIPOS>MOLECULE
*****
 38 43 0 0 0
SMALL
GASTEIGER

@<TRIPOS>ATOM
      1 C           6.4301   -2.6449   20.9516 C.3     1  UNL1        0.0745
      2 C           6.3478   -3.6623   22.0507 C.3     1  UNL1        0.0356
      3 C           7.4795   -4.6218   22.2709 C.3     1  UNL1        0.0594
      4 C           8.7872   -5.3425   22.1274 C.3     1  UNL1        0.0174
      5 C           9.5357   -4.7216   20.9852 C.3     1  UNL1        0.0174
      6 C           8.6906   -3.6172   20.4230 C.3     1  UNL1        0.0594
      7 C           7.6442   -2.5869   20.0726 C.3     1  UNL1        0.0356
      8 N           7.4198   -3.5555   21.2175 N.3     1  UNL1       -0.2715
      9 O           4.2918   -3.2823   18.9462 O.2     1  UNL1       -0.2701
     10 C           4.2291   -2.0041   19.7288 C.2     1  UNL1        0.2474
     11 N           5.2983   -1.6854   20.7315 N.am    1  UNL1       -0.3024
     12 H           5.2571   -0.8465   21.2451 H       1  UNL1        0.1497
     13 C           3.0974   -1.0446   19.5087 C.ar    1  UNL1        0.0755
     14 C           1.9538   -0.9986   20.4783 C.ar    1  UNL1        0.0078
     15 C           0.8220   -0.0391   20.2581 C.ar    1  UNL1        0.0208
     16 C           0.8337    0.8743   19.0683 C.ar    1  UNL1        0.0990
     17 N           1.9773    0.8282   18.0987 N.ar    1  UNL1       -0.2391
     18 C           3.1091   -0.1313   18.3189 C.ar    1  UNL1        0.1390
     19 C           4.2527   -0.1773   17.3493 C.2     1  UNL1        0.2669
     20 O           3.8899   -1.2177   16.3314 O.2     1  UNL1       -0.2683
     21 N           5.4352    0.7255   17.5408 N.am    1  UNL1       -0.2748
     22 C           5.4741    1.6743   18.7019 C.3     1  UNL1        0.0938
     23 C           6.6567    2.5771   18.8934 C.3     1  UNL1        0.0216
     24 C           7.8002    2.5311   17.9237 C.3     1  UNL1        0.0035
     25 C           7.7612    1.5822   16.7626 C.3     1  UNL1        0.0216
     26 C           6.5788    0.6794   16.5712 C.3     1  UNL1        0.0938
     27 C           6.2881   -2.5960   20.9974 C.3     1  UNL1        0.0991
     28 C           6.2664   -1.2828   21.7220 C.ar    1  UNL1       -0.0061
     29 C           5.1813   -0.9927   22.7162 C.ar    1  UNL1       -0.0029
     30 C           5.1597    0.3205   23.4408 C.ar    1  UNL1       -0.0002
     31 C           6.2231    1.3435   23.1712 C.ar    1  UNL1        0.0022
     32 C           6.2014    2.6567   23.8959 C.ar    1  UNL1        0.0296
     33 C           7.2648    3.6797   23.6263 C.ar    1  UNL1        0.1401
     34 F           7.2431    4.9929   24.3509 F       1  UNL1       -0.2042
     35 C           8.3498    3.3895   22.6320 C.ar    1  UNL1        0.0296
     36 C           8.3715    2.0764   21.9074 C.ar    1  UNL1        0.0023
     37 C           7.3081    1.0533   22.1770 C.ar    1  UNL1       -0.0001
     38 C           7.3298   -0.2598   21.4525 C.ar    1  UNL1       -0.0029
@<TRIPOS>BOND
     1     9    10    2
     2    10    11   am
     3     1    11    1
     4     1     2    1
     5     3     2    1
     6     3     4    1
     7     4     5    1
     8     6     5    1
     9     6     7    1
    10     6     8    1
    11     8    27    1
    12    27    28    1
    13    28    29   ar
    14    29    30   ar
    15    30    31   ar
    16    31    32   ar
    17    32    33   ar
    18    33    34    1
    19    33    35   ar
    20    35    36   ar
    21    36    37   ar
    22    37    38   ar
    23    10    13    1
    24    13    14   ar
    25    14    15   ar
    26    15    16   ar
    27    16    17   ar
    28    17    18   ar
    29    18    19    1
    30    19    20    2
    31    19    21   am
    32    21    22    1
    33    22    23    1
    34    23    24    1
    35    24    25    1
    36    25    26    1
    37     7     1    1
    38    38    28   ar
    39    18    13   ar
    40    26    21    1
    41     8     3    1
    42    37    31   ar
    43    11    12    1
@<TRIPOS>MOLECULE
*****
 38 43 0 0 0
SMALL
GASTEIGER

@<TRIPOS>ATOM
      1 C           5.3925   -1.4226   31.6662 C.3     1  UNL1        0.0745
      2 C           5.9688   -1.7025   30.3100 C.3     1  UNL1        0.0356
      3 C           6.6101   -3.0285   30.0266 C.3     1  UNL1        0.0594
      4 C           7.1288   -4.4264   30.1906 C.3     1  UNL1        0.0174
      5 C           6.8336   -4.8688   31.5932 C.3     1  UNL1        0.0174
      6 C           6.1324   -3.7444   32.2960 C.3     1  UNL1        0.0594
      7 C           5.4575   -2.4688   32.7392 C.3     1  UNL1        0.0356
      8 N           5.9943   -2.6070   31.3278 N.3     1  UNL1       -0.2715
      9 O           2.4841   -1.0033   31.0618 O.2     1  UNL1       -0.2701
     10 C           3.2970    0.1131   31.6473 C.2     1  UNL1        0.2474
     11 N           4.7512   -0.0965   31.9495 N.am    1  UNL1       -0.3024
     12 H           5.2847    0.6363   32.3338 H       1  UNL1        0.1497
     13 C           2.6556    1.4392   31.9306 C.ar    1  UNL1        0.0755
     14 C           2.2210    1.7794   33.3253 C.ar    1  UNL1        0.0078
     15 C           1.5797    3.1054   33.6086 C.ar    1  UNL1        0.0208
     16 C           1.3729    4.0913   32.4971 C.ar    1  UNL1        0.0990
     17 N           1.8076    3.7511   31.1023 N.ar    1  UNL1       -0.2391
     18 C           2.4490    2.4250   30.8191 C.ar    1  UNL1        0.1390
     19 C           2.8836    2.0847   29.4243 C.2     1  UNL1        0.2669
     20 O           4.3834    2.0998   29.4434 O.2     1  UNL1       -0.2683
     21 N           1.8576    1.8165   28.3634 N.am    1  UNL1       -0.2748
     22 C           0.3970    1.8886   28.6973 C.3     1  UNL1        0.0938
     23 C          -0.6290    1.6203   27.6364 C.3     1  UNL1        0.0216
     24 C          -0.1943    1.2801   26.2416 C.3     1  UNL1        0.0035
     25 C           1.2663    1.2081   25.9078 C.3     1  UNL1        0.0216
     26 C           2.2922    1.4763   26.9687 C.3     1  UNL1        0.0938
     27 C           5.3530   -1.2810   31.6112 C.3     1  UNL1        0.0991
     28 C           5.7641   -0.4918   32.8188 C.ar    1  UNL1       -0.0061
     29 C           6.9860    0.3767   32.7668 C.ar    1  UNL1       -0.0029
     30 C           7.3970    1.1659   33.9744 C.ar    1  UNL1       -0.0002
     31 C           6.5862    1.0866   35.2339 C.ar    1  UNL1        0.0022
     32 C           6.9973    1.8758   36.4415 C.ar    1  UNL1        0.0296
     33 C           6.1865    1.7964   37.7009 C.ar    1  UNL1        0.1401
     34 F           6.5976    2.5856   38.9085 F       1  UNL1       -0.2042
     35 C           4.9646    0.9279   37.7528 C.ar    1  UNL1        0.0296
     36 C           4.5536    0.1387   36.5453 C.ar    1  UNL1        0.0023
     37 C           5.3644    0.2181   35.2858 C.ar    1  UNL1       -0.0001
     38 C           4.9533   -0.5711   34.0782 C.ar    1  UNL1       -0.0029
@<TRIPOS>BOND
     1     9    10    2
     2    10    11   am
     3     1    11    1
     4     1     2    1
     5     3     2    1
     6     3     4    1
     7     4     5    1
     8     6     5    1
     9     6     7    1
    10     6     8    1
    11     8    27    1
    12    27    28    1
    13    28    29   ar
    14    29    30   ar
    15    30    31   ar
    16    31    32   ar
    17    32    33   ar
    18    33    34    1
    19    33    35   ar
    20    35    36   ar
    21    36    37   ar
    22    37    38   ar
    23    10    13    1
    24    13    14   ar
    25    14    15   ar
    26    15    16   ar
    27    16    17   ar
    28    17    18   ar
    29    18    19    1
    30    19    20    2
    31    19    21   am
    32    21    22    1
    33    22    23    1
    34    23    24    1
    35    24    25    1
    36    25    26    1
    37     7     1    1
    38    38    28   ar
    39    18    13   ar
    40    26    21    1
    41     8     3    1
    42    37    31   ar
    43    11    12    1
