@<TRIPOS>MOLECULE
*****
 24 26 0 0 0
SMALL
GASTEIGER

@<TRIPOS>ATOM
      1 N          -7.7511  -20.3381   22.4056 N.pl3   1  UNL1       -0.2150
      2 H          -7.8423  -21.1870   22.8958 H       1  UNL1        0.1737
      3 C          -6.4161  -19.9276   21.8585 C.ar    1  UNL1        0.0648
      4 C          -5.8041  -20.6919   20.7222 C.ar    1  UNL1        0.0160
      5 C          -4.4691  -20.2813   20.1751 C.ar    1  UNL1        0.0060
      6 C          -3.7462  -19.1065   20.7644 C.ar    1  UNL1        0.0552
      7 C          -4.3582  -18.3422   21.9007 C.ar    1  UNL1        0.0060
      8 C          -5.6932  -18.7527   22.4477 C.ar    1  UNL1        0.0160
      9 C          -2.4112  -18.6960   20.2172 C.ar    1  UNL1        0.2501
     10 N          -2.0919  -18.4348   18.7751 N.ar    1  UNL1       -0.1068
     11 N          -0.6445  -18.0520   18.6827 N.ar    1  UNL1       -0.1019
     12 C          -0.0693  -18.0767   20.0678 C.ar    1  UNL1        0.3059
     13 O          -1.1611  -18.4747   21.0162 O.2     1  UNL1       -0.4121
     14 O          -9.1951  -19.4564   23.6852 O.2     1  UNL1       -0.1499
     15 S          -8.9472  -19.4552   22.2059 S.O2    1  UNL1        0.0736
     16 O          -8.6992  -19.4540   20.7265 O.2     1  UNL1       -0.1499
     17 C         -10.1433  -18.5722   22.0061 C.ar    1  UNL1        0.1268
     18 C         -10.1730  -17.5960   20.8676 C.ar    1  UNL1        0.0316
     19 C         -11.3690  -16.7131   20.6678 C.ar    1  UNL1        0.0599
     20 CL        -11.3988  -15.7369   19.5293 Cl      1  UNL1       -0.0822
     21 C         -12.5353  -16.8064   21.6064 C.ar    1  UNL1        0.0229
     22 C         -12.5056  -17.7826   22.7449 C.ar    1  UNL1        0.0599
     23 CL        -13.6719  -17.8759   23.6835 Cl      1  UNL1       -0.0822
     24 C         -11.3095  -18.6655   22.9447 C.ar    1  UNL1        0.0316
@<TRIPOS>BOND
     1    14    15    2
     2    15    16    2
     3    15     1    1
     4     1     3    1
     5     3     4   ar
     6     4     5   ar
     7     5     6   ar
     8     6     9    1
     9     9    10   ar
    10    10    11   ar
    11    11    12   ar
    12    12    13   ar
    13     6     7   ar
    14     7     8   ar
    15    15    17    1
    16    17    18   ar
    17    18    19   ar
    18    19    20    1
    19    19    21   ar
    20    21    22   ar
    21    22    23    1
    22    22    24   ar
    23     8     3   ar
    24    24    17   ar
    25    13     9   ar
    26     1     2    1
@<TRIPOS>MOLECULE
*****
 24 26 0 0 0
SMALL
GASTEIGER

@<TRIPOS>ATOM
      1 N          -7.8154  -20.3984   22.4013 N.pl3   1  UNL1       -0.2150
      2 H          -7.9111  -21.2575   22.8724 H       1  UNL1        0.1737
      3 C          -6.4786  -19.9838   21.8615 C.ar    1  UNL1        0.0648
      4 C          -5.8656  -20.7360   20.7177 C.ar    1  UNL1        0.0160
      5 C          -4.5289  -20.3214   20.1781 C.ar    1  UNL1        0.0060
      6 C          -3.8052  -19.1546   20.7822 C.ar    1  UNL1        0.0552
      7 C          -4.4182  -18.4025   21.9261 C.ar    1  UNL1        0.0060
      8 C          -5.7549  -18.8171   22.4657 C.ar    1  UNL1        0.0160
      9 C          -2.4684  -18.7401   20.2425 C.ar    1  UNL1        0.2501
     10 N          -2.1412  -18.4804   18.8018 N.ar    1  UNL1       -0.1068
     11 N          -0.6948  -18.0923   18.7176 N.ar    1  UNL1       -0.1019
     12 C          -0.1280  -18.1120   20.1063 C.ar    1  UNL1        0.3059
     13 O          -1.2242  -18.5124   21.0487 O.2     1  UNL1       -0.4121
     14 O          -9.2212  -19.4947   23.7077 O.2     1  UNL1       -0.1499
     15 S          -9.0063  -19.5039   22.2232 S.O2    1  UNL1        0.0736
     16 O          -8.7913  -19.5132   20.7388 O.2     1  UNL1       -0.1499
     17 C         -10.1972  -18.6094   22.0451 C.ar    1  UNL1        0.1268
     18 C         -11.3390  -18.6788   23.0154 C.ar    1  UNL1        0.0316
     19 C         -12.5299  -17.7844   22.8373 C.ar    1  UNL1        0.0599
     20 CL        -13.6718  -17.8537   23.8075 Cl      1  UNL1       -0.0822
     21 C         -12.5790  -16.8206   21.6890 C.ar    1  UNL1        0.0229
     22 C         -11.4371  -16.7512   20.7187 C.ar    1  UNL1        0.0599
     23 CL        -11.4862  -15.7874   19.5704 Cl      1  UNL1       -0.0822
     24 C         -10.2462  -17.6457   20.8968 C.ar    1  UNL1        0.0316
@<TRIPOS>BOND
     1    14    15    2
     2    15    16    2
     3    15     1    1
     4     1     3    1
     5     3     4   ar
     6     4     5   ar
     7     5     6   ar
     8     6     9    1
     9     9    10   ar
    10    10    11   ar
    11    11    12   ar
    12    12    13   ar
    13     6     7   ar
    14     7     8   ar
    15    15    17    1
    16    17    18   ar
    17    18    19   ar
    18    19    20    1
    19    19    21   ar
    20    21    22   ar
    21    22    23    1
    22    22    24   ar
    23     8     3   ar
    24    24    17   ar
    25    13     9   ar
    26     1     2    1
@<TRIPOS>MOLECULE
*****
 24 26 0 0 0
SMALL
GASTEIGER

@<TRIPOS>ATOM
      1 N          -7.2431  -20.1478   19.9164 N.pl3   1  UNL1       -0.2150
      2 H          -7.3547  -20.7482   19.1443 H       1  UNL1        0.1737
      3 C          -8.4276  -19.7864   20.7629 C.ar    1  UNL1        0.0648
      4 C          -8.2819  -19.6847   22.2523 C.ar    1  UNL1        0.0160
      5 C          -9.4663  -19.3233   23.0988 C.ar    1  UNL1        0.0060
      6 C         -10.7964  -19.0637   22.4558 C.ar    1  UNL1        0.0552
      7 C         -10.9421  -19.1655   20.9664 C.ar    1  UNL1        0.0060
      8 C          -9.7577  -19.5268   20.1200 C.ar    1  UNL1        0.0160
      9 C         -11.9809  -18.7024   23.3023 C.ar    1  UNL1        0.2501
     10 N         -13.1846  -17.9297   22.8505 N.ar    1  UNL1       -0.1068
     11 N         -14.1173  -17.8000   24.0181 N.ar    1  UNL1       -0.1019
     12 C         -13.4899  -18.4926   25.1916 C.ar    1  UNL1        0.3059
     13 O         -12.1696  -19.0502   24.7491 O.2     1  UNL1       -0.4121
     14 O          -5.3279  -20.9852   20.2779 O.2     1  UNL1       -0.1499
     15 S          -5.8886  -19.5943   20.2464 S.O2    1  UNL1        0.0736
     16 O          -6.4493  -18.2034   20.2149 O.2     1  UNL1       -0.1499
     17 C          -4.5340  -19.0407   20.5764 C.ar    1  UNL1        0.1268
     18 C          -3.5463  -18.7717   19.4800 C.ar    1  UNL1        0.0316
     19 C          -2.1918  -18.2182   19.8099 C.ar    1  UNL1        0.0599
     20 CL         -1.2041  -17.9492   18.7135 Cl      1  UNL1       -0.0822
     21 C          -1.8251  -17.9336   21.2362 C.ar    1  UNL1        0.0229
     22 C          -2.8128  -18.2026   22.3326 C.ar    1  UNL1        0.0599
     23 CL         -2.4459  -17.9180   23.7590 Cl      1  UNL1       -0.0822
     24 C          -4.1673  -18.7561   22.0027 C.ar    1  UNL1        0.0316
@<TRIPOS>BOND
     1    14    15    2
     2    15    16    2
     3    15     1    1
     4     1     3    1
     5     3     4   ar
     6     4     5   ar
     7     5     6   ar
     8     6     9    1
     9     9    10   ar
    10    10    11   ar
    11    11    12   ar
    12    12    13   ar
    13     6     7   ar
    14     7     8   ar
    15    15    17    1
    16    17    18   ar
    17    18    19   ar
    18    19    20    1
    19    19    21   ar
    20    21    22   ar
    21    22    23    1
    22    22    24   ar
    23     8     3   ar
    24    24    17   ar
    25    13     9   ar
    26     1     2    1
@<TRIPOS>MOLECULE
*****
 24 26 0 0 0
SMALL
GASTEIGER

@<TRIPOS>ATOM
      1 N          -7.2372  -20.1414   19.9198 N.pl3   1  UNL1       -0.2150
      2 H          -7.3446  -20.7457   19.1500 H       1  UNL1        0.1737
      3 C          -8.4242  -19.7846   20.7646 C.ar    1  UNL1        0.0648
      4 C          -9.7500  -19.5120   20.1182 C.ar    1  UNL1        0.0160
      5 C         -10.9370  -19.1552   20.9630 C.ar    1  UNL1        0.0060
      6 C         -10.7982  -19.0710   22.4542 C.ar    1  UNL1        0.0552
      7 C          -9.4724  -19.3437   23.1006 C.ar    1  UNL1        0.0060
      8 C          -8.2854  -19.7005   22.2558 C.ar    1  UNL1        0.0160
      9 C         -11.9853  -18.7142   23.2990 C.ar    1  UNL1        0.2501
     10 N         -13.1950  -17.9534   22.8433 N.ar    1  UNL1       -0.1068
     11 N         -14.1284  -17.8245   24.0104 N.ar    1  UNL1       -0.1019
     12 C         -13.4955  -18.5057   25.1875 C.ar    1  UNL1        0.3059
     13 O         -12.1710  -19.0555   24.7478 O.2     1  UNL1       -0.4121
     14 O          -6.4593  -18.1916   20.2245 O.2     1  UNL1       -0.1499
     15 S          -5.8865  -19.5777   20.2479 S.O2    1  UNL1        0.0736
     16 O          -5.3136  -20.9637   20.2714 O.2     1  UNL1       -0.1499
     17 C          -4.5357  -19.0139   20.5760 C.ar    1  UNL1        0.1268
     18 C          -4.1749  -18.7116   22.0003 C.ar    1  UNL1        0.0316
     19 C          -2.8242  -18.1478   22.3284 C.ar    1  UNL1        0.0599
     20 CL         -2.4635  -17.8456   23.7527 Cl      1  UNL1       -0.0822
     21 C          -1.8343  -17.8864   21.2323 C.ar    1  UNL1        0.0229
     22 C          -2.1950  -18.1886   19.8081 C.ar    1  UNL1        0.0599
     23 CL         -1.2049  -17.9271   18.7119 Cl      1  UNL1       -0.0822
     24 C          -3.5457  -18.7524   19.4799 C.ar    1  UNL1        0.0316
@<TRIPOS>BOND
     1    14    15    2
     2    15    16    2
     3    15     1    1
     4     1     3    1
     5     3     4   ar
     6     4     5   ar
     7     5     6   ar
     8     6     9    1
     9     9    10   ar
    10    10    11   ar
    11    11    12   ar
    12    12    13   ar
    13     6     7   ar
    14     7     8   ar
    15    15    17    1
    16    17    18   ar
    17    18    19   ar
    18    19    20    1
    19    19    21   ar
    20    21    22   ar
    21    22    23    1
    22    22    24   ar
    23     8     3   ar
    24    24    17   ar
    25    13     9   ar
    26     1     2    1
@<TRIPOS>MOLECULE
*****
 24 26 0 0 0
SMALL
GASTEIGER

@<TRIPOS>ATOM
      1 N          -7.2672  -16.7572   24.2718 N.pl3   1  UNL1       -0.2150
      2 H          -7.2219  -16.5645   25.2362 H       1  UNL1        0.1737
      3 C          -6.0093  -17.0313   23.5018 C.ar    1  UNL1        0.0648
      4 C          -4.8056  -16.1576   23.6960 C.ar    1  UNL1        0.0160
      5 C          -3.5479  -16.4317   22.9260 C.ar    1  UNL1        0.0060
      6 C          -3.4938  -17.5795   21.9619 C.ar    1  UNL1        0.0552
      7 C          -4.6975  -18.4532   21.7677 C.ar    1  UNL1        0.0060
      8 C          -5.9552  -18.1791   22.5376 C.ar    1  UNL1        0.0160
      9 C          -2.2360  -17.8536   21.1919 C.ar    1  UNL1        0.2501
     10 N          -1.7327  -19.2045   20.7772 N.ar    1  UNL1       -0.1068
     11 N          -0.4463  -19.0108   20.0305 N.ar    1  UNL1       -0.1019
     12 C          -0.1546  -17.5401   19.9836 C.ar    1  UNL1        0.3059
     13 O          -1.2606  -16.8250   20.7014 O.2     1  UNL1       -0.4121
     14 O          -8.1527  -15.6365   22.7035 O.2     1  UNL1       -0.1499
     15 S          -8.5939  -16.7767   23.5724 S.O2    1  UNL1        0.0736
     16 O          -9.0352  -17.9170   24.4413 O.2     1  UNL1       -0.1499
     17 C          -9.9208  -16.7963   22.8730 C.ar    1  UNL1        0.1268
     18 C         -10.0429  -16.2511   21.4809 C.ar    1  UNL1        0.0316
     19 C         -11.3697  -16.2706   20.7815 C.ar    1  UNL1        0.0599
     20 CL        -11.4918  -15.7255   19.3894 Cl      1  UNL1       -0.0822
     21 C         -12.5744  -16.8353   21.4742 C.ar    1  UNL1        0.0229
     22 C         -12.4523  -17.3804   22.8663 C.ar    1  UNL1        0.0599
     23 CL        -13.6571  -17.9451   23.5589 Cl      1  UNL1       -0.0822
     24 C         -11.1255  -17.3609   23.5657 C.ar    1  UNL1        0.0316
@<TRIPOS>BOND
     1    14    15    2
     2    15    16    2
     3    15     1    1
     4     1     3    1
     5     3     4   ar
     6     4     5   ar
     7     5     6   ar
     8     6     9    1
     9     9    10   ar
    10    10    11   ar
    11    11    12   ar
    12    12    13   ar
    13     6     7   ar
    14     7     8   ar
    15    15    17    1
    16    17    18   ar
    17    18    19   ar
    18    19    20    1
    19    19    21   ar
    20    21    22   ar
    21    22    23    1
    22    22    24   ar
    23     8     3   ar
    24    24    17   ar
    25    13     9   ar
    26     1     2    1
@<TRIPOS>MOLECULE
*****
 24 26 0 0 0
SMALL
GASTEIGER

@<TRIPOS>ATOM
      1 N          -7.2142  -16.7845   24.2881 N.pl3   1  UNL1       -0.2150
      2 H          -7.1677  -16.6013   25.2543 H       1  UNL1        0.1737
      3 C          -5.9570  -17.0477   23.5132 C.ar    1  UNL1        0.0648
      4 C          -4.7734  -16.1404   23.6737 C.ar    1  UNL1        0.0160
      5 C          -3.5163  -16.4036   22.8988 C.ar    1  UNL1        0.0060
      6 C          -3.4429  -17.5740   21.9636 C.ar    1  UNL1        0.0552
      7 C          -4.6265  -18.4813   21.8031 C.ar    1  UNL1        0.0060
      8 C          -5.8836  -18.2181   22.5780 C.ar    1  UNL1        0.0160
      9 C          -2.1857  -17.8371   21.1887 C.ar    1  UNL1        0.2501
     10 N          -1.6757  -19.1831   20.7664 N.ar    1  UNL1       -0.1068
     11 N          -0.3926  -18.9784   20.0169 N.ar    1  UNL1       -0.1019
     12 C          -0.1097  -17.5058   19.9759 C.ar    1  UNL1        0.3059
     13 O          -1.2178  -16.8005   20.7001 O.2     1  UNL1       -0.4121
     14 O          -8.9571  -17.9877   24.4086 O.2     1  UNL1       -0.1499
     15 S          -8.5422  -16.8006   23.5909 S.O2    1  UNL1        0.0736
     16 O          -8.1273  -15.6136   22.7732 O.2     1  UNL1       -0.1499
     17 C          -9.8702  -16.8167   22.8936 C.ar    1  UNL1        0.1268
     18 C         -11.0724  -17.3909   23.5829 C.ar    1  UNL1        0.0316
     19 C         -12.4004  -17.4069   22.8857 C.ar    1  UNL1        0.0599
     20 CL        -13.6025  -17.9811   23.5751 Cl      1  UNL1       -0.0822
     21 C         -12.5262  -16.8488   21.4992 C.ar    1  UNL1        0.0229
     22 C         -11.3241  -16.2747   20.8098 C.ar    1  UNL1        0.0599
     23 CL        -11.4500  -15.7165   19.4232 Cl      1  UNL1       -0.0822
     24 C          -9.9961  -16.2586   21.5070 C.ar    1  UNL1        0.0316
@<TRIPOS>BOND
     1    14    15    2
     2    15    16    2
     3    15     1    1
     4     1     3    1
     5     3     4   ar
     6     4     5   ar
     7     5     6   ar
     8     6     9    1
     9     9    10   ar
    10    10    11   ar
    11    11    12   ar
    12    12    13   ar
    13     6     7   ar
    14     7     8   ar
    15    15    17    1
    16    17    18   ar
    17    18    19   ar
    18    19    20    1
    19    19    21   ar
    20    21    22   ar
    21    22    23    1
    22    22    24   ar
    23     8     3   ar
    24    24    17   ar
    25    13     9   ar
    26     1     2    1
@<TRIPOS>MOLECULE
*****
 24 26 0 0 0
SMALL
GASTEIGER

@<TRIPOS>ATOM
      1 N          -7.0008  -20.3666   21.5097 N.pl3   1  UNL1       -0.2150
      2 H          -7.1830  -21.3301   21.4227 H       1  UNL1        0.1737
      3 C          -5.6246  -19.8358   21.2368 C.ar    1  UNL1        0.0648
      4 C          -4.9238  -20.1904   19.9588 C.ar    1  UNL1        0.0160
      5 C          -3.5477  -19.6597   19.6859 C.ar    1  UNL1        0.0060
      6 C          -2.8723  -18.7744   20.6910 C.ar    1  UNL1        0.0552
      7 C          -3.5730  -18.4199   21.9690 C.ar    1  UNL1        0.0060
      8 C          -4.9492  -18.9506   22.2418 C.ar    1  UNL1        0.0160
      9 C          -1.4960  -18.2437   20.4181 C.ar    1  UNL1        0.2501
     10 N          -1.0694  -16.8088   20.5140 N.ar    1  UNL1       -0.1068
     11 N           0.3854  -16.7330   20.1565 N.ar    1  UNL1       -0.1019
     12 C           0.8579  -18.1210   19.8397 C.ar    1  UNL1        0.3059
     13 O          -0.3050  -19.0546   20.0014 O.2     1  UNL1       -0.4121
     14 O          -7.8694  -18.6219   20.6721 O.2     1  UNL1       -0.1499
     15 S          -8.0993  -19.4292   21.9152 S.O2    1  UNL1        0.0736
     16 O          -8.3293  -20.2364   23.1584 O.2     1  UNL1       -0.1499
     17 C          -9.1979  -18.4918   22.3208 C.ar    1  UNL1        0.1268
     18 C          -8.9250  -17.4017   23.3144 C.ar    1  UNL1        0.0316
     19 C         -10.0235  -16.4643   23.7200 C.ar    1  UNL1        0.0599
     20 CL         -9.7506  -15.3743   24.7136 Cl      1  UNL1       -0.0822
     21 C         -11.3950  -16.6170   23.1320 C.ar    1  UNL1        0.0229
     22 C         -11.6679  -17.7071   22.1384 C.ar    1  UNL1        0.0599
     23 CL        -13.0394  -17.8598   21.5504 Cl      1  UNL1       -0.0822
     24 C         -10.5694  -18.6445   21.7328 C.ar    1  UNL1        0.0316
@<TRIPOS>BOND
     1    14    15    2
     2    15    16    2
     3    15     1    1
     4     1     3    1
     5     3     4   ar
     6     4     5   ar
     7     5     6   ar
     8     6     9    1
     9     9    10   ar
    10    10    11   ar
    11    11    12   ar
    12    12    13   ar
    13     6     7   ar
    14     7     8   ar
    15    15    17    1
    16    17    18   ar
    17    18    19   ar
    18    19    20    1
    19    19    21   ar
    20    21    22   ar
    21    22    23    1
    22    22    24   ar
    23     8     3   ar
    24    24    17   ar
    25    13     9   ar
    26     1     2    1
@<TRIPOS>MOLECULE
*****
 24 26 0 0 0
SMALL
GASTEIGER

@<TRIPOS>ATOM
      1 N          -4.9275  -19.3934   22.3381 N.pl3   1  UNL1       -0.2150
      2 H          -4.7256  -19.9821   23.1010 H       1  UNL1        0.1737
      3 C          -6.3407  -18.9644   22.0753 C.ar    1  UNL1        0.0648
      4 C          -7.1843  -19.7223   21.0936 C.ar    1  UNL1        0.0160
      5 C          -8.5974  -19.2933   20.8308 C.ar    1  UNL1        0.0060
      6 C          -9.1669  -18.1064   21.5497 C.ar    1  UNL1        0.0552
      7 C          -8.3233  -17.3485   22.5314 C.ar    1  UNL1        0.0060
      8 C          -6.9102  -17.7775   22.7942 C.ar    1  UNL1        0.0160
      9 C         -10.5800  -17.6774   21.2869 C.ar    1  UNL1        0.2501
     10 N         -11.0205  -16.6718   20.2648 N.ar    1  UNL1       -0.1068
     11 N         -12.5134  -16.5515   20.3461 N.ar    1  UNL1       -0.1019
     12 C         -12.9957  -17.4829   21.4186 C.ar    1  UNL1        0.3059
     13 O         -11.8007  -18.1787   22.0000 O.2     1  UNL1       -0.4121
     14 O          -3.7268  -17.6487   22.2199 O.2     1  UNL1       -0.1499
     15 S          -3.8221  -18.9256   21.4387 S.O2    1  UNL1        0.0736
     16 O          -3.9174  -20.2025   20.6574 O.2     1  UNL1       -0.1499
     17 C          -2.7166  -18.4578   20.5391 C.ar    1  UNL1        0.1268
     18 C          -3.0128  -18.0913   19.1150 C.ar    1  UNL1        0.0316
     19 C          -1.9074  -17.6235   18.2155 C.ar    1  UNL1        0.0599
     20 CL         -2.2036  -17.2571   16.7914 Cl      1  UNL1       -0.0822
     21 C          -0.5058  -17.5222   18.7400 C.ar    1  UNL1        0.0229
     22 C          -0.2096  -17.8886   20.1641 C.ar    1  UNL1        0.0599
     23 CL          1.1921  -17.7872   20.6886 Cl      1  UNL1       -0.0822
     24 C          -1.3150  -18.3564   21.0637 C.ar    1  UNL1        0.0316
@<TRIPOS>BOND
     1    14    15    2
     2    15    16    2
     3    15     1    1
     4     1     3    1
     5     3     4   ar
     6     4     5   ar
     7     5     6   ar
     8     6     9    1
     9     9    10   ar
    10    10    11   ar
    11    11    12   ar
    12    12    13   ar
    13     6     7   ar
    14     7     8   ar
    15    15    17    1
    16    17    18   ar
    17    18    19   ar
    18    19    20    1
    19    19    21   ar
    20    21    22   ar
    21    22    23    1
    22    22    24   ar
    23     8     3   ar
    24    24    17   ar
    25    13     9   ar
    26     1     2    1
@<TRIPOS>MOLECULE
*****
 24 26 0 0 0
SMALL
GASTEIGER

@<TRIPOS>ATOM
      1 N          -4.8558  -19.2706   22.4234 N.pl3   1  UNL1       -0.2150
      2 H          -4.6422  -19.8224   23.2103 H       1  UNL1        0.1737
      3 C          -6.2758  -18.8718   22.1502 C.ar    1  UNL1        0.0648
      4 C          -7.1492  -19.7442   21.2982 C.ar    1  UNL1        0.0160
      5 C          -8.5691  -19.3453   21.0250 C.ar    1  UNL1        0.0060
      6 C          -9.1156  -18.0740   21.6038 C.ar    1  UNL1        0.0552
      7 C          -8.2422  -17.2015   22.4558 C.ar    1  UNL1        0.0060
      8 C          -6.8223  -17.6004   22.7290 C.ar    1  UNL1        0.0160
      9 C         -10.5356  -17.6751   21.3306 C.ar    1  UNL1        0.2501
     10 N         -10.9889  -16.6689   20.3146 N.ar    1  UNL1       -0.1068
     11 N         -12.4850  -16.5843   20.3815 N.ar    1  UNL1       -0.1019
     12 C         -12.9564  -17.5383   21.4388 C.ar    1  UNL1        0.3059
     13 O         -11.7516  -18.2124   22.0254 O.2     1  UNL1       -0.4121
     14 O          -3.8694  -20.1253   20.7512 O.2     1  UNL1       -0.1499
     15 S          -3.7613  -18.8288   21.4978 S.O2    1  UNL1        0.0736
     16 O          -3.6533  -17.5323   22.2444 O.2     1  UNL1       -0.1499
     17 C          -2.6668  -18.3869   20.5721 C.ar    1  UNL1        0.1268
     18 C          -1.2558  -18.2890   21.0718 C.ar    1  UNL1        0.0316
     19 C          -0.1613  -17.8472   20.1463 C.ar    1  UNL1        0.0599
     20 CL          1.2496  -17.7493   20.6460 Cl      1  UNL1       -0.0822
     21 C          -0.4777  -17.5032   18.7210 C.ar    1  UNL1        0.0229
     22 C          -1.8887  -17.6011   18.2212 C.ar    1  UNL1        0.0599
     23 CL         -2.2050  -17.2571   16.7959 Cl      1  UNL1       -0.0822
     24 C          -2.9832  -18.0429   19.1468 C.ar    1  UNL1        0.0316
@<TRIPOS>BOND
     1    14    15    2
     2    15    16    2
     3    15     1    1
     4     1     3    1
     5     3     4   ar
     6     4     5   ar
     7     5     6   ar
     8     6     9    1
     9     9    10   ar
    10    10    11   ar
    11    11    12   ar
    12    12    13   ar
    13     6     7   ar
    14     7     8   ar
    15    15    17    1
    16    17    18   ar
    17    18    19   ar
    18    19    20    1
    19    19    21   ar
    20    21    22   ar
    21    22    23    1
    22    22    24   ar
    23     8     3   ar
    24    24    17   ar
    25    13     9   ar
    26     1     2    1
