@<TRIPOS>MOLECULE
*****
 41 44 0 0 0
SMALL
GASTEIGER

@<TRIPOS>ATOM
      1 C           4.4993    0.9895   21.7196 C.3     1  UNL1        0.0311
      2 C           4.3468   -0.3582   21.0787 C.ar    1  UNL1       -0.0203
      3 C           5.4371   -1.3796   21.2118 C.ar    1  UNL1        0.0145
      4 C           5.2846   -2.7273   20.5710 C.ar    1  UNL1        0.0794
      5 C           4.0418   -3.0534   19.7971 C.ar    1  UNL1        0.0382
      6 C           4.1727   -4.4551   19.2791 C.ar    1  UNL1        0.1216
      7 N           5.4964   -4.9951   19.7330 N.ar    1  UNL1       -0.1675
      8 N           6.1837   -3.9273   20.5314 N.ar    1  UNL1       -0.2487
      9 C           2.9514   -2.0320   19.6640 C.ar    1  UNL1        0.0028
     10 C           3.1040   -0.6843   20.3048 C.ar    1  UNL1       -0.0030
     11 C           2.0136    0.3372   20.1717 C.ar    1  UNL1        0.0103
     12 C           0.9955    0.4939   21.2622 C.ar    1  UNL1        0.0008
     13 C          -0.0949    1.5154   21.1291 C.ar    1  UNL1        0.0039
     14 C          -0.1672    2.3801   19.9055 C.ar    1  UNL1        0.0723
     15 C           0.8509    2.2234   18.8151 C.ar    1  UNL1        0.0152
     16 C           1.9413    1.2019   18.9482 C.ar    1  UNL1        0.0576
     17 CL          2.9594    1.0451   17.8578 Cl      1  UNL1       -0.0823
     18 C          -1.2575    3.4016   19.7724 C.3     1  UNL1        0.4186
     19 F          -2.3478    4.4231   19.6391 F       1  UNL1       -0.1659
     20 F          -0.6701    3.8588   18.4701 F       1  UNL1       -0.1659
     21 F          -1.8450    2.9444   21.0746 F       1  UNL1       -0.1659
     22 C           7.5330   -4.0398   21.1768 C.3     1  UNL1        0.1273
     23 C           7.6856   -4.7819   22.4714 C.ar    1  UNL1       -0.0001
     24 C           7.0403   -4.2547   23.7187 C.ar    1  UNL1       -0.0023
     25 C           7.1928   -4.9967   25.0133 C.ar    1  UNL1        0.0042
     26 C           7.9907   -6.2661   25.0607 C.ar    1  UNL1        0.0533
     27 C           8.6359   -6.7933   23.8135 C.ar    1  UNL1        0.0042
     28 C           8.4834   -6.0513   22.5188 C.ar    1  UNL1       -0.0023
     29 C           8.1432   -7.0082   26.3553 C.2     1  UNL1        0.2459
     30 O           7.6570   -8.4224   26.4710 O.2     1  UNL1       -0.2701
     31 N           8.7821   -6.3360   27.5343 N.am    1  UNL1       -0.3005
     32 H           9.1012   -5.4078   27.4585 H       1  UNL1        0.1498
     33 C           8.9346   -7.0781   28.8289 C.3     1  UNL1        0.0956
     34 C           8.6417   -6.3878   30.1281 C.3     1  UNL1        0.0629
     35 C           7.2550   -5.8963   30.4203 C.2     1  UNL1        0.0520
     36 O           6.4824   -5.1606   29.3658 O.co2   1  UNL1       -0.5491
     37 O           6.6409   -6.1405   31.7668 O.co2   1  UNL1       -0.5491
     38 C           8.7298   -3.4103   20.5277 C.3     1  UNL1        0.0289
     39 C           8.9456   -1.9294   20.6289 C.3     1  UNL1        0.0023
     40 C           9.2301   -1.3022   21.9615 C.3     1  UNL1        0.0001
     41 C           8.8770   -1.0755   19.3975 C.3     1  UNL1        0.0001
@<TRIPOS>UNITY_ATOM_ATTR
36 1
charge -1
@<TRIPOS>BOND
     1     1     2    1
     2     2     3   ar
     3     3     4   ar
     4     4     5   ar
     5     5     6   ar
     6     6     7   ar
     7     7     8   ar
     8     8    22    1
     9    22    38    1
    10    38    39    1
    11    39    40    1
    12    39    41    1
    13    22    23    1
    14    23    24   ar
    15    24    25   ar
    16    25    26   ar
    17    26    29    1
    18    29    30    2
    19    29    31   am
    20    31    33    1
    21    33    34    1
    22    34    35    1
    23    35    36   ar
    24    35    37   ar
    25    26    27   ar
    26    27    28   ar
    27     5     9   ar
    28     9    10   ar
    29    10    11    1
    30    11    12   ar
    31    12    13   ar
    32    13    14   ar
    33    14    18    1
    34    18    19    1
    35    18    20    1
    36    18    21    1
    37    14    15   ar
    38    15    16   ar
    39    16    17    1
    40    10     2   ar
    41    16    11   ar
    42     8     4   ar
    43    28    23   ar
    44    31    32    1
@<TRIPOS>MOLECULE
*****
 41 44 0 0 0
SMALL
GASTEIGER

@<TRIPOS>ATOM
      1 C          -0.6912    5.5451   27.2010 C.3     1  UNL1        0.0311
      2 C          -0.4843    4.1142   27.6010 C.ar    1  UNL1       -0.0203
      3 C           0.6179    3.7533   28.5522 C.ar    1  UNL1        0.0145
      4 C           0.8249    2.3226   28.9523 C.ar    1  UNL1        0.0794
      5 C          -0.0704    1.2527   28.4011 C.ar    1  UNL1        0.0382
      6 C           0.3718   -0.0618   28.9728 C.ar    1  UNL1        0.1216
      7 N           1.5404    0.1958   29.8772 N.ar    1  UNL1       -0.1675
      8 N           1.8204    1.6694   29.8646 N.ar    1  UNL1       -0.2487
      9 C          -1.1726    1.6135   27.4499 C.ar    1  UNL1        0.0028
     10 C          -1.3795    3.0444   27.0499 C.ar    1  UNL1       -0.0030
     11 C          -2.4819    3.4053   26.0986 C.ar    1  UNL1        0.0103
     12 C          -3.8353    3.7792   26.6262 C.ar    1  UNL1        0.0008
     13 C          -4.9376    4.1401   25.6750 C.ar    1  UNL1        0.0039
     14 C          -4.6864    4.1271   24.1963 C.ar    1  UNL1        0.0723
     15 C          -3.3329    3.7531   23.6687 C.ar    1  UNL1        0.0152
     16 C          -2.2306    3.3922   24.6199 C.ar    1  UNL1        0.0576
     17 CL         -0.8771    3.0183   24.0924 Cl      1  UNL1       -0.0823
     18 C          -5.7886    4.4879   23.2450 C.3     1  UNL1        0.4186
     19 F          -6.8907    4.8487   22.2937 F       1  UNL1       -0.1659
     20 F          -5.6977    3.1260   22.6231 F       1  UNL1       -0.1659
     21 F          -5.8795    5.8499   23.8669 F       1  UNL1       -0.1659
     22 C           2.9055    2.3672   30.6299 C.3     1  UNL1        0.1273
     23 C           2.8794    2.3751   32.1296 C.ar    1  UNL1       -0.0001
     24 C           2.1827    3.4836   32.8618 C.ar    1  UNL1       -0.0023
     25 C           2.1566    3.4915   34.3615 C.ar    1  UNL1        0.0042
     26 C           2.8272    2.3910   35.1291 C.ar    1  UNL1        0.0533
     27 C           3.5239    1.2826   34.3970 C.ar    1  UNL1        0.0042
     28 C           3.5500    1.2746   32.8973 C.ar    1  UNL1       -0.0023
     29 C           2.8012    2.3989   36.6289 C.2     1  UNL1        0.2459
     30 O           2.5433    3.6785   37.3678 O.2     1  UNL1       -0.2701
     31 N           3.0329    1.1271   37.3898 N.am    1  UNL1       -0.3005
     32 H           3.2022    0.2872   36.9048 H       1  UNL1        0.1498
     33 C           3.0068    1.1350   38.8895 C.3     1  UNL1        0.0956
     34 C           1.7568    0.7428   39.6200 C.3     1  UNL1        0.0629
     35 C           0.7363    1.7840   39.9727 C.2     1  UNL1        0.0520
     36 O          -0.1149    2.3940   38.8988 O.co2   1  UNL1       -0.5491
     37 O           0.5669    2.2152   41.3994 O.co2   1  UNL1       -0.5491
     38 C           4.0167    3.0571   29.8954 C.3     1  UNL1        0.0289
     39 C           5.3358    3.2838   30.5724 C.3     1  UNL1        0.0023
     40 C           5.6467    4.6189   31.1813 C.3     1  UNL1        0.0001
     41 C           6.3442    2.1753   30.6406 C.3     1  UNL1        0.0001
@<TRIPOS>UNITY_ATOM_ATTR
36 1
charge -1
@<TRIPOS>BOND
     1     1     2    1
     2     2     3   ar
     3     3     4   ar
     4     4     5   ar
     5     5     6   ar
     6     6     7   ar
     7     7     8   ar
     8     8    22    1
     9    22    38    1
    10    38    39    1
    11    39    40    1
    12    39    41    1
    13    22    23    1
    14    23    24   ar
    15    24    25   ar
    16    25    26   ar
    17    26    29    1
    18    29    30    2
    19    29    31   am
    20    31    33    1
    21    33    34    1
    22    34    35    1
    23    35    36   ar
    24    35    37   ar
    25    26    27   ar
    26    27    28   ar
    27     5     9   ar
    28     9    10   ar
    29    10    11    1
    30    11    12   ar
    31    12    13   ar
    32    13    14   ar
    33    14    18    1
    34    18    19    1
    35    18    20    1
    36    18    21    1
    37    14    15   ar
    38    15    16   ar
    39    16    17    1
    40    10     2   ar
    41    16    11   ar
    42     8     4   ar
    43    28    23   ar
    44    31    32    1
@<TRIPOS>MOLECULE
*****
 41 44 0 0 0
SMALL
GASTEIGER

@<TRIPOS>ATOM
      1 C           7.1869   -2.7863   24.4425 C.3     1  UNL1        0.0311
      2 C           6.0731   -2.2161   25.2699 C.ar    1  UNL1       -0.0203
      3 C           6.1700   -2.2260   26.7667 C.ar    1  UNL1        0.0145
      4 C           5.0564   -1.6559   27.5942 C.ar    1  UNL1        0.0794
      5 C           3.8457   -1.0759   26.9248 C.ar    1  UNL1        0.0382
      6 C           2.9133   -0.5890   27.9941 C.ar    1  UNL1        0.1216
      7 N           3.5477   -0.8681   29.3244 N.ar    1  UNL1       -0.1675
      8 N           4.8722   -1.5275   29.0773 N.ar    1  UNL1       -0.2487
      9 C           3.7488   -1.0661   25.4280 C.ar    1  UNL1        0.0028
     10 C           4.8626   -1.6362   24.6005 C.ar    1  UNL1       -0.0030
     11 C           4.7656   -1.6264   23.1036 C.ar    1  UNL1        0.0103
     12 C           4.2562   -2.8358   22.3771 C.ar    1  UNL1        0.0008
     13 C           4.1593   -2.8260   20.8803 C.ar    1  UNL1        0.0039
     14 C           4.5718   -1.6067   20.1100 C.ar    1  UNL1        0.0723
     15 C           5.0812   -0.3973   20.8365 C.ar    1  UNL1        0.0152
     16 C           5.1781   -0.4072   22.3333 C.ar    1  UNL1        0.0576
     17 CL          5.6875    0.8022   23.0600 Cl      1  UNL1       -0.0823
     18 C           4.4749   -1.5968   18.6132 C.3     1  UNL1        0.4186
     19 F           4.3780   -1.5870   17.1164 F       1  UNL1       -0.1659
     20 F           5.4188   -2.7605   18.5444 F       1  UNL1       -0.1659
     21 F           3.5310   -0.4331   18.6819 F       1  UNL1       -0.1659
     22 C           5.8421   -1.9791   30.1286 C.3     1  UNL1        0.1273
     23 C           5.6766   -1.5220   31.5476 C.ar    1  UNL1       -0.0001
     24 C           4.8224   -2.3113   32.4950 C.ar    1  UNL1       -0.0023
     25 C           4.6569   -1.8543   33.9140 C.ar    1  UNL1        0.0042
     26 C           5.3455   -0.6079   34.3858 C.ar    1  UNL1        0.0533
     27 C           6.1996    0.1813   33.4385 C.ar    1  UNL1        0.0042
     28 C           6.3652   -0.2757   32.0194 C.ar    1  UNL1       -0.0023
     29 C           5.1800   -0.1509   35.8048 C.2     1  UNL1        0.2459
     30 O           6.1224   -0.6390   36.8647 O.2     1  UNL1       -0.2701
     31 N           4.0720    0.7943   36.1640 N.am    1  UNL1       -0.3005
     32 H           3.4534    1.1147   35.4683 H       1  UNL1        0.1498
     33 C           3.9064    1.2513   37.5830 C.3     1  UNL1        0.0956
     34 C           2.5795    1.1072   38.2674 C.3     1  UNL1        0.0629
     35 C           1.9334    2.2990   38.9094 C.2     1  UNL1        0.0520
     36 O           0.5340    2.6867   38.5335 O.co2   1  UNL1       -0.5491
     37 O           2.6867    3.1030   39.9274 O.co2   1  UNL1       -0.5491
     38 C           6.9775   -2.8877   29.7609 C.3     1  UNL1        0.0289
     39 C           6.8412   -4.3701   29.9439 C.3     1  UNL1        0.0023
     40 C           7.0761   -4.9841   31.2922 C.3     1  UNL1        0.0001
     41 C           6.4699   -5.2388   28.7787 C.3     1  UNL1        0.0001
@<TRIPOS>UNITY_ATOM_ATTR
36 1
charge -1
@<TRIPOS>BOND
     1     1     2    1
     2     2     3   ar
     3     3     4   ar
     4     4     5   ar
     5     5     6   ar
     6     6     7   ar
     7     7     8   ar
     8     8    22    1
     9    22    38    1
    10    38    39    1
    11    39    40    1
    12    39    41    1
    13    22    23    1
    14    23    24   ar
    15    24    25   ar
    16    25    26   ar
    17    26    29    1
    18    29    30    2
    19    29    31   am
    20    31    33    1
    21    33    34    1
    22    34    35    1
    23    35    36   ar
    24    35    37   ar
    25    26    27   ar
    26    27    28   ar
    27     5     9   ar
    28     9    10   ar
    29    10    11    1
    30    11    12   ar
    31    12    13   ar
    32    13    14   ar
    33    14    18    1
    34    18    19    1
    35    18    20    1
    36    18    21    1
    37    14    15   ar
    38    15    16   ar
    39    16    17    1
    40    10     2   ar
    41    16    11   ar
    42     8     4   ar
    43    28    23   ar
    44    31    32    1
@<TRIPOS>MOLECULE
*****
 41 44 0 0 0
SMALL
GASTEIGER

@<TRIPOS>ATOM
      1 C           0.4033   -0.1449   29.1726 C.3     1  UNL1        0.0311
      2 C           1.7803    0.1757   28.6713 C.ar    1  UNL1       -0.0203
      3 C           2.9752   -0.4968   29.2792 C.ar    1  UNL1        0.0145
      4 C           4.3521   -0.1762   28.7780 C.ar    1  UNL1        0.0794
      5 C           4.5341    0.8170   27.6687 C.ar    1  UNL1        0.0382
      6 C           6.0025    0.9307   27.3845 C.ar    1  UNL1        0.1216
      7 N           6.7281    0.0077   28.3181 N.ar    1  UNL1       -0.1675
      8 N           5.7082   -0.6764   29.1793 N.ar    1  UNL1       -0.2487
      9 C           3.3391    1.4896   27.0607 C.ar    1  UNL1        0.0028
     10 C           1.9622    1.1689   27.5621 C.ar    1  UNL1       -0.0030
     11 C           0.7671    1.8415   26.9541 C.ar    1  UNL1        0.0103
     12 C           0.2175    1.3551   25.6459 C.ar    1  UNL1        0.0008
     13 C          -0.9775    2.0277   25.0379 C.ar    1  UNL1        0.0039
     14 C          -1.6228    3.1866   25.7381 C.ar    1  UNL1        0.0723
     15 C          -1.0732    3.6730   27.0463 C.ar    1  UNL1        0.0152
     16 C           0.1218    3.0005   27.6543 C.ar    1  UNL1        0.0576
     17 CL          0.6714    3.4868   28.9625 Cl      1  UNL1       -0.0823
     18 C          -2.8178    3.8593   25.1302 C.3     1  UNL1        0.4186
     19 F          -4.0128    4.5319   24.5224 F       1  UNL1       -0.1659
     20 F          -3.6155    3.5572   26.3640 F       1  UNL1       -0.1659
     21 F          -2.0202    4.1613   23.8963 F       1  UNL1       -0.1659
     22 C           5.9940   -1.6838   30.2533 C.3     1  UNL1        0.1273
     23 C           5.8093   -1.3153   31.6956 C.ar    1  UNL1       -0.0001
     24 C           4.6848   -1.9169   32.4852 C.ar    1  UNL1       -0.0023
     25 C           4.5000   -1.5485   33.9275 C.ar    1  UNL1        0.0042
     26 C           5.4398   -0.5783   34.5801 C.ar    1  UNL1        0.0533
     27 C           6.5642    0.0232   33.7905 C.ar    1  UNL1        0.0042
     28 C           6.7490   -0.3452   32.3482 C.ar    1  UNL1       -0.0023
     29 C           5.2550   -0.2099   36.0223 C.2     1  UNL1        0.2459
     30 O           6.2829   -0.6138   37.0373 O.2     1  UNL1       -0.2701
     31 N           4.0422    0.5625   36.4497 N.am    1  UNL1       -0.3005
     32 H           3.3675    0.8276   35.7836 H       1  UNL1        0.1498
     33 C           3.8575    0.9310   37.8919 C.3     1  UNL1        0.0956
     34 C           2.6389    1.6932   38.3211 C.3     1  UNL1        0.0629
     35 C           1.5603    1.0043   39.1033 C.2     1  UNL1        0.0520
     36 O           1.9235    0.0265   40.1812 O.co2   1  UNL1       -0.5491
     37 O           0.1183    1.2932   38.8075 O.co2   1  UNL1       -0.5491
     38 C           6.4647   -3.0596   29.8851 C.3     1  UNL1        0.0289
     39 C           7.4499   -3.7747   30.7613 C.3     1  UNL1        0.0023
     40 C           7.0063   -4.9437   31.5900 C.3     1  UNL1        0.0001
     41 C           8.8789   -3.3210   30.8089 C.3     1  UNL1        0.0001
@<TRIPOS>UNITY_ATOM_ATTR
36 1
charge -1
@<TRIPOS>BOND
     1     1     2    1
     2     2     3   ar
     3     3     4   ar
     4     4     5   ar
     5     5     6   ar
     6     6     7   ar
     7     7     8   ar
     8     8    22    1
     9    22    38    1
    10    38    39    1
    11    39    40    1
    12    39    41    1
    13    22    23    1
    14    23    24   ar
    15    24    25   ar
    16    25    26   ar
    17    26    29    1
    18    29    30    2
    19    29    31   am
    20    31    33    1
    21    33    34    1
    22    34    35    1
    23    35    36   ar
    24    35    37   ar
    25    26    27   ar
    26    27    28   ar
    27     5     9   ar
    28     9    10   ar
    29    10    11    1
    30    11    12   ar
    31    12    13   ar
    32    13    14   ar
    33    14    18    1
    34    18    19    1
    35    18    20    1
    36    18    21    1
    37    14    15   ar
    38    15    16   ar
    39    16    17    1
    40    10     2   ar
    41    16    11   ar
    42     8     4   ar
    43    28    23   ar
    44    31    32    1
@<TRIPOS>MOLECULE
*****
 41 44 0 0 0
SMALL
GASTEIGER

@<TRIPOS>ATOM
      1 C           2.5818    2.9502   24.4710 C.3     1  UNL1        0.0311
      2 C           1.2213    3.1335   23.8664 C.ar    1  UNL1       -0.0203
      3 C           1.0828    3.3901   22.3951 C.ar    1  UNL1        0.0145
      4 C          -0.2776    3.5734   21.7905 C.ar    1  UNL1        0.0794
      5 C          -1.4996    3.5001   22.6573 C.ar    1  UNL1        0.0382
      6 C          -2.7003    3.7190   21.7853 C.ar    1  UNL1        0.1216
      7 N          -2.2204    3.9276   20.3795 N.ar    1  UNL1       -0.1675
      8 N          -0.7231    3.8377   20.3827 N.ar    1  UNL1       -0.2487
      9 C          -1.3612    3.2435   24.1286 C.ar    1  UNL1        0.0028
     10 C          -0.0006    3.0602   24.7332 C.ar    1  UNL1       -0.0030
     11 C           0.1378    2.8035   26.2046 C.ar    1  UNL1        0.0103
     12 C           0.0066    1.4077   26.7381 C.ar    1  UNL1        0.0008
     13 C           0.1450    1.1511   28.2095 C.ar    1  UNL1        0.0039
     14 C           0.4147    2.2902   29.1474 C.ar    1  UNL1        0.0723
     15 C           0.5460    3.6860   28.6139 C.ar    1  UNL1        0.0152
     16 C           0.4075    3.9426   27.1425 C.ar    1  UNL1        0.0576
     17 CL          0.5388    5.3384   26.6090 Cl      1  UNL1       -0.0823
     18 C           0.5532    2.0336   30.6187 C.3     1  UNL1        0.4186
     19 F           0.6916    1.7770   32.0901 F       1  UNL1       -0.1659
     20 F          -0.7297    1.2566   30.6040 F       1  UNL1       -0.1659
     21 F           1.8362    2.8106   30.6336 F       1  UNL1       -0.1659
     22 C           0.1717    3.9859   19.1880 C.3     1  UNL1        0.1273
     23 C           1.1229    2.8854   18.8223 C.ar    1  UNL1       -0.0001
     24 C           0.6093    1.4942   18.5966 C.ar    1  UNL1       -0.0023
     25 C           1.5606    0.3936   18.2309 C.ar    1  UNL1        0.0042
     26 C           3.0256    0.6842   18.0908 C.ar    1  UNL1        0.0533
     27 C           3.5392    2.0753   18.3165 C.ar    1  UNL1        0.0042
     28 C           2.5879    3.1759   18.6822 C.ar    1  UNL1       -0.0023
     29 C           3.9769   -0.4164   17.7251 C.2     1  UNL1        0.2459
     30 O           3.9178   -1.0363   16.3605 O.2     1  UNL1       -0.2701
     31 N           4.9874   -0.8971   18.7240 N.am    1  UNL1       -0.3005
     32 H           5.0262   -0.4903   19.6197 H       1  UNL1        0.1498
     33 C           5.9387   -1.9977   18.3583 C.3     1  UNL1        0.0956
     34 C           5.8955   -3.3026   19.0968 C.3     1  UNL1        0.0629
     35 C           4.6246   -4.0981   19.1402 C.2     1  UNL1        0.0520
     36 O           4.6667   -5.5885   18.9758 O.co2   1  UNL1       -0.5491
     37 O           3.3115   -3.4033   19.3479 O.co2   1  UNL1       -0.5491
     38 C           0.1151    5.2347   18.3589 C.3     1  UNL1        0.0289
     39 C           0.0393    5.1396   16.8639 C.3     1  UNL1        0.0023
     40 C           1.0722    5.8206   16.0157 C.3     1  UNL1        0.0001
     41 C          -1.0694    4.3634   16.2169 C.3     1  UNL1        0.0001
@<TRIPOS>UNITY_ATOM_ATTR
36 1
charge -1
@<TRIPOS>BOND
     1     1     2    1
     2     2     3   ar
     3     3     4   ar
     4     4     5   ar
     5     5     6   ar
     6     6     7   ar
     7     7     8   ar
     8     8    22    1
     9    22    38    1
    10    38    39    1
    11    39    40    1
    12    39    41    1
    13    22    23    1
    14    23    24   ar
    15    24    25   ar
    16    25    26   ar
    17    26    29    1
    18    29    30    2
    19    29    31   am
    20    31    33    1
    21    33    34    1
    22    34    35    1
    23    35    36   ar
    24    35    37   ar
    25    26    27   ar
    26    27    28   ar
    27     5     9   ar
    28     9    10   ar
    29    10    11    1
    30    11    12   ar
    31    12    13   ar
    32    13    14   ar
    33    14    18    1
    34    18    19    1
    35    18    20    1
    36    18    21    1
    37    14    15   ar
    38    15    16   ar
    39    16    17    1
    40    10     2   ar
    41    16    11   ar
    42     8     4   ar
    43    28    23   ar
    44    31    32    1
@<TRIPOS>MOLECULE
*****
 41 44 0 0 0
SMALL
GASTEIGER

@<TRIPOS>ATOM
      1 C           6.0040    0.2843   23.8489 C.3     1  UNL1        0.0311
      2 C           5.5139   -0.9258   23.1102 C.ar    1  UNL1       -0.0203
      3 C           4.9062   -0.7772   21.7470 C.ar    1  UNL1        0.0145
      4 C           4.4161   -1.9872   21.0083 C.ar    1  UNL1        0.0794
      5 C           4.5338   -3.3459   21.6329 C.ar    1  UNL1        0.0382
      6 C           3.9674   -4.3486   20.6718 C.ar    1  UNL1        0.1216
      7 N           3.4996   -3.6096   19.4532 N.ar    1  UNL1       -0.1675
      8 N           3.7769   -2.1502   19.6611 N.ar    1  UNL1       -0.2487
      9 C           5.1416   -3.4946   22.9961 C.ar    1  UNL1        0.0028
     10 C           5.6317   -2.2844   23.7348 C.ar    1  UNL1       -0.0030
     11 C           6.2395   -2.4331   25.0981 C.ar    1  UNL1        0.0103
     12 C           7.6417   -2.9461   25.2423 C.ar    1  UNL1        0.0008
     13 C           8.2495   -3.0948   26.6055 C.ar    1  UNL1        0.0039
     14 C           7.4552   -2.7303   27.8246 C.ar    1  UNL1        0.0723
     15 C           6.0530   -2.2173   27.6805 C.ar    1  UNL1        0.0152
     16 C           5.4452   -2.0686   26.3172 C.ar    1  UNL1        0.0576
     17 CL          4.0430   -1.5556   26.1730 Cl      1  UNL1       -0.0823
     18 C           8.0629   -2.8789   29.1879 C.3     1  UNL1        0.4186
     19 F           8.6706   -3.0275   30.5512 F       1  UNL1       -0.1659
     20 F           7.6606   -1.4727   29.5205 F       1  UNL1       -0.1659
     21 F           8.4652   -4.2852   28.8553 F       1  UNL1       -0.1659
     22 C           3.4690   -1.0474   18.6921 C.3     1  UNL1        0.1273
     23 C           2.4148   -0.0324   19.0212 C.ar    1  UNL1       -0.0001
     24 C           1.3662   -0.3458   20.0470 C.ar    1  UNL1       -0.0023
     25 C           0.3120    0.6692   20.3762 C.ar    1  UNL1        0.0042
     26 C           0.3063    1.9977   19.6795 C.ar    1  UNL1        0.0533
     27 C           1.3548    2.3110   18.6537 C.ar    1  UNL1        0.0042
     28 C           2.4091    1.2961   18.3245 C.ar    1  UNL1       -0.0023
     29 C          -0.7480    3.0127   20.0086 C.2     1  UNL1        0.2459
     30 O          -0.5637    4.4444   19.6013 O.2     1  UNL1       -0.2701
     31 N          -1.9865    2.5958   20.7451 N.am    1  UNL1       -0.3005
     32 H          -2.1074    1.6561   21.0124 H       1  UNL1        0.1498
     33 C          -3.0407    3.6108   21.0742 C.3     1  UNL1        0.0956
     34 C          -4.4482    3.4128   20.5948 C.3     1  UNL1        0.0629
     35 C          -4.7537    3.4569   19.1269 C.2     1  UNL1        0.0520
     36 O          -6.1460    3.1808   18.6420 O.co2   1  UNL1       -0.5491
     37 O          -3.6668    3.7771   18.1439 O.co2   1  UNL1       -0.5491
     38 C           4.2154   -0.9596   17.3939 C.3     1  UNL1        0.0289
     39 C           5.6420   -0.4967   17.3789 C.3     1  UNL1        0.0023
     40 C           6.7075   -1.3290   18.0287 C.3     1  UNL1        0.0001
     41 C           6.0034    0.7985   16.7141 C.3     1  UNL1        0.0001
@<TRIPOS>UNITY_ATOM_ATTR
36 1
charge -1
@<TRIPOS>BOND
     1     1     2    1
     2     2     3   ar
     3     3     4   ar
     4     4     5   ar
     5     5     6   ar
     6     6     7   ar
     7     7     8   ar
     8     8    22    1
     9    22    38    1
    10    38    39    1
    11    39    40    1
    12    39    41    1
    13    22    23    1
    14    23    24   ar
    15    24    25   ar
    16    25    26   ar
    17    26    29    1
    18    29    30    2
    19    29    31   am
    20    31    33    1
    21    33    34    1
    22    34    35    1
    23    35    36   ar
    24    35    37   ar
    25    26    27   ar
    26    27    28   ar
    27     5     9   ar
    28     9    10   ar
    29    10    11    1
    30    11    12   ar
    31    12    13   ar
    32    13    14   ar
    33    14    18    1
    34    18    19    1
    35    18    20    1
    36    18    21    1
    37    14    15   ar
    38    15    16   ar
    39    16    17    1
    40    10     2   ar
    41    16    11   ar
    42     8     4   ar
    43    28    23   ar
    44    31    32    1
@<TRIPOS>MOLECULE
*****
 41 44 0 0 0
SMALL
GASTEIGER

@<TRIPOS>ATOM
      1 C           4.9632    1.0074   24.1815 C.3     1  UNL1        0.0311
      2 C           3.5621    1.1149   24.7062 C.ar    1  UNL1       -0.0203
      3 C           3.3248    1.4786   26.1420 C.ar    1  UNL1        0.0145
      4 C           1.9237    1.5861   26.6668 C.ar    1  UNL1        0.0794
      5 C           0.7599    1.3300   25.7557 C.ar    1  UNL1        0.0382
      6 C          -0.4994    1.5096   26.5507 C.ar    1  UNL1        0.1216
      7 N          -0.1138    1.8767   27.9530 N.ar    1  UNL1       -0.1675
      8 N           1.3837    1.9240   28.0248 N.ar    1  UNL1       -0.2487
      9 C           0.9972    0.9664   24.3200 C.ar    1  UNL1        0.0028
     10 C           2.3983    0.8588   23.7953 C.ar    1  UNL1       -0.0030
     11 C           2.6356    0.4952   22.3594 C.ar    1  UNL1        0.0103
     12 C           2.8240   -0.9413   21.9708 C.ar    1  UNL1        0.0008
     13 C           3.0612   -1.3050   20.5351 C.ar    1  UNL1        0.0039
     14 C           3.1102   -0.2321   19.4879 C.ar    1  UNL1        0.0723
     15 C           2.9219    1.2044   19.8765 C.ar    1  UNL1        0.0152
     16 C           2.6846    1.5680   21.3122 C.ar    1  UNL1        0.0576
     17 CL          2.4963    3.0045   21.7009 Cl      1  UNL1       -0.0823
     18 C           3.3475   -0.5957   18.0521 C.3     1  UNL1        0.4186
     19 F           3.5847   -0.9591   16.6163 F       1  UNL1       -0.1659
     20 F           3.0770    0.8233   17.6481 F       1  UNL1       -0.1659
     21 F           3.6179   -2.0147   18.4560 F       1  UNL1       -0.1659
     22 C           2.1982    2.2516   29.2410 C.3     1  UNL1        0.1273
     23 C           3.0568    1.1976   29.8749 C.ar    1  UNL1       -0.0001
     24 C           4.5496    1.2694   29.7472 C.ar    1  UNL1       -0.0023
     25 C           5.4082    0.2154   30.3810 C.ar    1  UNL1        0.0042
     26 C           4.7740   -0.9105   31.1427 C.ar    1  UNL1        0.0533
     27 C           3.2813   -0.9824   31.2705 C.ar    1  UNL1        0.0042
     28 C           2.4226    0.0716   30.6366 C.ar    1  UNL1       -0.0023
     29 C           5.6326   -1.9646   31.7766 C.2     1  UNL1        0.2459
     30 O           5.0563   -2.8724   32.8224 O.2     1  UNL1       -0.2701
     31 N           7.0675   -2.1108   31.3647 N.am    1  UNL1       -0.3005
     32 H           7.4458   -1.5149   30.6783 H       1  UNL1        0.1498
     33 C           7.9261   -3.1648   31.9986 C.3     1  UNL1        0.0956
     34 C           8.2346   -4.4292   31.2530 C.3     1  UNL1        0.0629
     35 C           7.1480   -5.4294   30.9907 C.2     1  UNL1        0.0520
     36 O           6.6330   -6.2876   32.1079 O.co2   1  UNL1       -0.5491
     37 O           6.5763   -5.5713   29.6111 O.co2   1  UNL1       -0.5491
     38 C           2.1541    3.6333   29.8234 C.3     1  UNL1        0.0289
     39 C           0.9935    4.0506   30.6770 C.3     1  UNL1        0.0023
     40 C           0.5555    3.1863   31.8220 C.3     1  UNL1        0.0001
     41 C           0.2707    5.3323   30.3855 C.3     1  UNL1        0.0001
@<TRIPOS>UNITY_ATOM_ATTR
36 1
charge -1
@<TRIPOS>BOND
     1     1     2    1
     2     2     3   ar
     3     3     4   ar
     4     4     5   ar
     5     5     6   ar
     6     6     7   ar
     7     7     8   ar
     8     8    22    1
     9    22    38    1
    10    38    39    1
    11    39    40    1
    12    39    41    1
    13    22    23    1
    14    23    24   ar
    15    24    25   ar
    16    25    26   ar
    17    26    29    1
    18    29    30    2
    19    29    31   am
    20    31    33    1
    21    33    34    1
    22    34    35    1
    23    35    36   ar
    24    35    37   ar
    25    26    27   ar
    26    27    28   ar
    27     5     9   ar
    28     9    10   ar
    29    10    11    1
    30    11    12   ar
    31    12    13   ar
    32    13    14   ar
    33    14    18    1
    34    18    19    1
    35    18    20    1
    36    18    21    1
    37    14    15   ar
    38    15    16   ar
    39    16    17    1
    40    10     2   ar
    41    16    11   ar
    42     8     4   ar
    43    28    23   ar
    44    31    32    1
@<TRIPOS>MOLECULE
*****
 41 44 0 0 0
SMALL
GASTEIGER

@<TRIPOS>ATOM
      1 C           3.7807    4.0169   30.5835 C.3     1  UNL1        0.0311
      2 C           2.5976    3.2334   30.0973 C.ar    1  UNL1       -0.0203
      3 C           2.4317    2.9574   28.6323 C.ar    1  UNL1        0.0145
      4 C           1.2486    2.1740   28.1460 C.ar    1  UNL1        0.0794
      5 C           0.2314    1.6666   29.1247 C.ar    1  UNL1        0.0382
      6 C          -0.8237    0.9280   28.3557 C.ar    1  UNL1        0.1216
      7 N          -0.4586    0.9790   26.9017 N.ar    1  UNL1       -0.1675
      8 N           0.8221    1.7490   26.7721 N.ar    1  UNL1       -0.2487
      9 C           0.3973    1.9426   30.5897 C.ar    1  UNL1        0.0028
     10 C           1.5804    2.7261   31.0759 C.ar    1  UNL1       -0.0030
     11 C           1.7464    3.0021   32.5410 C.ar    1  UNL1        0.0103
     12 C           1.1705    4.2515   33.1387 C.ar    1  UNL1        0.0008
     13 C           1.3364    4.5276   34.6037 C.ar    1  UNL1        0.0039
     14 C           2.0782    3.5542   35.4710 C.ar    1  UNL1        0.0723
     15 C           2.6540    2.3047   34.8733 C.ar    1  UNL1        0.0152
     16 C           2.4881    2.0287   33.4083 C.ar    1  UNL1        0.0576
     17 CL          3.0640    0.7792   32.8105 Cl      1  UNL1       -0.0823
     18 C           2.2441    3.8301   36.9360 C.3     1  UNL1        0.4186
     19 F           2.4100    4.1061   38.4010 F       1  UNL1       -0.1659
     20 F           1.2093    4.9125   36.8494 F       1  UNL1       -0.1659
     21 F           3.2789    2.7477   37.0228 F       1  UNL1       -0.1659
     22 C           1.5488    2.0426   25.4931 C.3     1  UNL1        0.1273
     23 C           2.2179    0.9320   24.7388 C.ar    1  UNL1       -0.0001
     24 C           2.0670    0.8397   23.2493 C.ar    1  UNL1       -0.0023
     25 C           2.7361   -0.2708   22.4950 C.ar    1  UNL1        0.0042
     26 C           3.5562   -1.2892   23.2303 C.ar    1  UNL1        0.0533
     27 C           3.7072   -1.1969   24.7197 C.ar    1  UNL1        0.0042
     28 C           3.0381   -0.0863   25.4741 C.ar    1  UNL1       -0.0023
     29 C           4.2253   -2.3997   22.4760 C.2     1  UNL1        0.2459
     30 O           4.9497   -3.4818   23.2204 O.2     1  UNL1       -0.2701
     31 N           4.1701   -2.4281   20.9773 N.am    1  UNL1       -0.3005
     32 H           3.6946   -1.7179   20.4887 H       1  UNL1        0.1498
     33 C           4.8392   -3.5387   20.2230 C.3     1  UNL1        0.0956
     34 C           4.9623   -3.4634   18.7300 C.3     1  UNL1        0.0629
     35 C           5.4751   -2.2117   18.0818 C.2     1  UNL1        0.0520
     36 O           4.6738   -0.9459   18.1569 O.co2   1  UNL1       -0.5491
     37 O           6.7892   -2.2257   17.3587 O.co2   1  UNL1       -0.5491
     38 C           1.6064    3.4466   24.9684 C.3     1  UNL1        0.0289
     39 C           0.4381    4.3675   25.1605 C.3     1  UNL1        0.0023
     40 C          -0.8104    4.1739   24.3520 C.3     1  UNL1        0.0001
     41 C           0.5182    5.4822   26.1612 C.3     1  UNL1        0.0001
@<TRIPOS>UNITY_ATOM_ATTR
36 1
charge -1
@<TRIPOS>BOND
     1     1     2    1
     2     2     3   ar
     3     3     4   ar
     4     4     5   ar
     5     5     6   ar
     6     6     7   ar
     7     7     8   ar
     8     8    22    1
     9    22    38    1
    10    38    39    1
    11    39    40    1
    12    39    41    1
    13    22    23    1
    14    23    24   ar
    15    24    25   ar
    16    25    26   ar
    17    26    29    1
    18    29    30    2
    19    29    31   am
    20    31    33    1
    21    33    34    1
    22    34    35    1
    23    35    36   ar
    24    35    37   ar
    25    26    27   ar
    26    27    28   ar
    27     5     9   ar
    28     9    10   ar
    29    10    11    1
    30    11    12   ar
    31    12    13   ar
    32    13    14   ar
    33    14    18    1
    34    18    19    1
    35    18    20    1
    36    18    21    1
    37    14    15   ar
    38    15    16   ar
    39    16    17    1
    40    10     2   ar
    41    16    11   ar
    42     8     4   ar
    43    28    23   ar
    44    31    32    1
@<TRIPOS>MOLECULE
*****
 41 44 0 0 0
SMALL
GASTEIGER

@<TRIPOS>ATOM
      1 C           4.9816    2.1984   29.9555 C.3     1  UNL1        0.0311
      2 C           3.6427    1.5632   29.7233 C.ar    1  UNL1       -0.0203
      3 C           2.8954    1.8325   28.4509 C.ar    1  UNL1        0.0145
      4 C           1.5565    1.1974   28.2186 C.ar    1  UNL1        0.0794
      5 C           0.9649    0.2929   29.2588 C.ar    1  UNL1        0.0382
      6 C          -0.3634   -0.1875   28.7540 C.ar    1  UNL1        0.1216
      7 N          -0.5927    0.4201   27.4019 N.ar    1  UNL1       -0.1675
      8 N           0.5938    1.2760   27.0710 N.ar    1  UNL1       -0.2487
      9 C           1.7122    0.0235   30.5312 C.ar    1  UNL1        0.0028
     10 C           3.0511    0.6588   30.7634 C.ar    1  UNL1       -0.0030
     11 C           3.7985    0.3894   32.0358 C.ar    1  UNL1        0.0103
     12 C           4.8120   -0.7150   32.0910 C.ar    1  UNL1        0.0008
     13 C           5.5593   -0.9843   33.3633 C.ar    1  UNL1        0.0039
     14 C           5.2931   -0.1492   34.5806 C.ar    1  UNL1        0.0723
     15 C           4.2795    0.9552   34.5255 C.ar    1  UNL1        0.0152
     16 C           3.5322    1.2245   33.2531 C.ar    1  UNL1        0.0576
     17 CL          2.5187    2.3289   33.1979 Cl      1  UNL1       -0.0823
     18 C           6.0403   -0.4185   35.8530 C.3     1  UNL1        0.4186
     19 F           6.7877   -0.6878   37.1254 F       1  UNL1       -0.1659
     20 F           7.3387   -0.3503   35.1050 F       1  UNL1       -0.1659
     21 F           4.7420   -0.4867   36.6012 F       1  UNL1       -0.1659
     22 C           0.7842    2.0709   25.8133 C.3     1  UNL1        0.1273
     23 C           1.2111    1.3846   24.5497 C.ar    1  UNL1       -0.0001
     24 C           2.3275    0.3833   24.5804 C.ar    1  UNL1       -0.0023
     25 C           2.7544   -0.3031   23.3168 C.ar    1  UNL1        0.0042
     26 C           2.0649    0.0120   22.0224 C.ar    1  UNL1        0.0533
     27 C           0.9485    1.0132   21.9917 C.ar    1  UNL1        0.0042
     28 C           0.5216    1.6996   23.2553 C.ar    1  UNL1       -0.0023
     29 C           2.4918   -0.6743   20.7588 C.2     1  UNL1        0.2459
     30 O           1.5000   -0.9013   19.6567 O.2     1  UNL1       -0.2701
     31 N           3.9105   -1.1337   20.5973 N.am    1  UNL1       -0.3005
     32 H           4.5615   -0.9848   21.3206 H       1  UNL1        0.1498
     33 C           4.3374   -1.8200   19.3337 C.3     1  UNL1        0.0956
     34 C           4.0033   -3.2660   19.1159 C.3     1  UNL1        0.0629
     35 C           4.0941   -4.2368   20.2558 C.2     1  UNL1        0.0520
     36 O           3.5598   -5.6296   20.0991 O.co2   1  UNL1       -0.5491
     37 O           4.7192   -3.8146   21.5524 O.co2   1  UNL1       -0.5491
     38 C           0.5477    3.5522   25.8192 C.3     1  UNL1        0.0289
     39 C          -0.7451    4.1031   26.3435 C.3     1  UNL1        0.0023
     40 C          -0.7343    5.1309   27.4359 C.3     1  UNL1        0.0001
     41 C          -2.0490    3.6262   25.7753 C.3     1  UNL1        0.0001
@<TRIPOS>UNITY_ATOM_ATTR
36 1
charge -1
@<TRIPOS>BOND
     1     1     2    1
     2     2     3   ar
     3     3     4   ar
     4     4     5   ar
     5     5     6   ar
     6     6     7   ar
     7     7     8   ar
     8     8    22    1
     9    22    38    1
    10    38    39    1
    11    39    40    1
    12    39    41    1
    13    22    23    1
    14    23    24   ar
    15    24    25   ar
    16    25    26   ar
    17    26    29    1
    18    29    30    2
    19    29    31   am
    20    31    33    1
    21    33    34    1
    22    34    35    1
    23    35    36   ar
    24    35    37   ar
    25    26    27   ar
    26    27    28   ar
    27     5     9   ar
    28     9    10   ar
    29    10    11    1
    30    11    12   ar
    31    12    13   ar
    32    13    14   ar
    33    14    18    1
    34    18    19    1
    35    18    20    1
    36    18    21    1
    37    14    15   ar
    38    15    16   ar
    39    16    17    1
    40    10     2   ar
    41    16    11   ar
    42     8     4   ar
    43    28    23   ar
    44    31    32    1
