@<TRIPOS>MOLECULE
*****
 32 36 0 0 0
SMALL
GASTEIGER

@<TRIPOS>ATOM
      1 N          -3.8439  -18.3896   22.0443 N.ar    1  UNL1       -0.2954
      2 C          -5.1812  -18.5829   21.3931 C.ar    1  UNL1        0.2014
      3 N          -4.9816  -18.5536   19.9068 N.ar    1  UNL1       -0.2136
      4 C          -3.5208  -18.3421   19.6393 C.ar    1  UNL1        0.0999
      5 C          -2.7402  -18.2288   18.3636 C.ar    1  UNL1        0.0207
      6 C          -1.2563  -18.0141   18.4089 C.ar    1  UNL1        0.0016
      7 C          -0.5532  -17.9127   19.7300 C.ar    1  UNL1        0.0016
      8 C          -1.3338  -18.0261   21.0057 C.ar    1  UNL1        0.0188
      9 C          -2.8177  -18.2408   20.9604 C.ar    1  UNL1        0.0801
     10 N          -6.4887  -18.7723   22.1036 N.pl3   1  UNL1       -0.2794
     11 C          -7.2544  -17.5801   22.5958 C.3     1  UNL1        0.0949
     12 C          -8.5618  -17.7695   23.3062 C.3     1  UNL1        0.0373
     13 C          -9.1036  -19.1511   23.5244 C.3     1  UNL1        0.0574
     14 C          -8.3379  -20.3433   23.0322 C.3     1  UNL1        0.0373
     15 C          -7.0304  -20.1539   22.3218 C.3     1  UNL1        0.0949
     16 N         -10.4110  -19.3405   24.2348 N.3     1  UNL1       -0.2984
     17 H         -10.4323  -18.6638   24.9978 H       1  UNL1        0.1232
     18 C         -11.7011  -19.1882   23.4849 C.3     1  UNL1        0.0686
     19 C         -11.7299  -18.4366   22.1871 C.3     1  UNL1        0.0207
     20 C         -12.3034  -17.0515   22.1351 C.3     1  UNL1        0.0335
     21 C         -12.3322  -16.2999   20.8373 C.3     1  UNL1        0.1422
     22 O         -11.7876  -16.9334   19.5915 O.3     1  UNL1       -0.3538
     23 C         -11.2141  -18.3185   19.6435 C.3     1  UNL1        0.1422
     24 C         -11.1853  -19.0701   20.9412 C.3     1  UNL1        0.0335
     25 C          -3.5791  -18.3517   23.5203 C.3     1  UNL1        0.1354
     26 F          -6.1295  -14.1152   26.9183 F       1  UNL1       -0.2042
     27 C          -5.4919  -15.1743   26.0688 C.ar    1  UNL1        0.1401
     28 C          -4.9377  -16.4140   26.7061 C.ar    1  UNL1        0.0294
     29 C          -4.3001  -17.4731   25.8566 C.ar    1  UNL1       -0.0001
     30 C          -4.2167  -17.2926   24.3697 C.ar    1  UNL1        0.0006
     31 C          -4.7709  -16.0529   23.7325 C.ar    1  UNL1       -0.0001
     32 C          -5.4084  -14.9938   24.5821 C.ar    1  UNL1        0.0294
@<TRIPOS>BOND
     1    26    27    1
     2    27    28   ar
     3    28    29   ar
     4    29    30   ar
     5    30    25    1
     6    25     1    1
     7     1     2   ar
     8     2    10    1
     9    10    11    1
    10    11    12    1
    11    12    13    1
    12    13    16    1
    13    16    18    1
    14    18    19    1
    15    19    20    1
    16    20    21    1
    17    21    22    1
    18    22    23    1
    19    23    24    1
    20    13    14    1
    21    14    15    1
    22     2     3   ar
    23     3     4   ar
    24     4     5   ar
    25     5     6   ar
    26     6     7   ar
    27     7     8   ar
    28     8     9   ar
    29    30    31   ar
    30    31    32   ar
    31    32    27   ar
    32     9     1   ar
    33    15    10    1
    34     9     4   ar
    35    24    19    1
    36    16    17    1
@<TRIPOS>MOLECULE
*****
 32 36 0 0 0
SMALL
GASTEIGER

@<TRIPOS>ATOM
      1 N          -5.2085  -19.6128   21.5141 N.ar    1  UNL1       -0.2954
      2 C          -5.8518  -18.5755   22.3859 C.ar    1  UNL1        0.2014
      3 N          -4.8714  -17.4561   22.5748 N.ar    1  UNL1       -0.2136
      4 C          -3.6222  -17.8015   21.8197 C.ar    1  UNL1        0.0999
      5 C          -2.3219  -17.0746   21.6444 C.ar    1  UNL1        0.0207
      6 C          -1.2300  -17.6806   20.8135 C.ar    1  UNL1        0.0016
      7 C          -1.4383  -19.0135   20.1579 C.ar    1  UNL1        0.0016
      8 C          -2.7386  -19.7405   20.3332 C.ar    1  UNL1        0.0188
      9 C          -3.8305  -19.1345   21.1641 C.ar    1  UNL1        0.0801
     10 N          -7.2329  -18.6454   22.9669 N.pl3   1  UNL1       -0.2794
     11 C          -7.9276  -17.3895   23.4028 C.3     1  UNL1        0.0949
     12 C          -9.3088  -17.4593   23.9837 C.3     1  UNL1        0.0373
     13 C          -9.9953  -18.7851   24.1288 C.3     1  UNL1        0.0574
     14 C          -9.3006  -20.0410   23.6929 C.3     1  UNL1        0.0373
     15 C          -7.9194  -19.9711   23.1119 C.3     1  UNL1        0.0949
     16 N         -11.3764  -18.8550   24.7097 N.3     1  UNL1       -0.2984
     17 H         -11.3751  -18.2676   25.5436 H       1  UNL1        0.1232
     18 C         -12.5583  -18.4359   23.8867 C.3     1  UNL1        0.0686
     19 C         -12.3563  -17.9171   22.4938 C.3     1  UNL1        0.0207
     20 C         -11.8293  -18.8268   21.4238 C.3     1  UNL1        0.0335
     21 C         -11.6273  -18.3081   20.0309 C.3     1  UNL1        0.1422
     22 O         -11.9523  -16.8797   19.7081 O.3     1  UNL1       -0.3538
     23 C         -12.4793  -15.9701   20.7781 C.3     1  UNL1        0.1422
     24 C         -12.6813  -16.4888   22.1710 C.3     1  UNL1        0.0335
     25 C          -5.8334  -20.9022   21.0701 C.3     1  UNL1        0.1354
     26 F          -9.9158  -20.9000   16.6730 F       1  UNL1       -0.2042
     27 C          -8.8952  -20.9005   17.7723 C.ar    1  UNL1        0.1401
     28 C          -8.0773  -22.1301   18.0357 C.ar    1  UNL1        0.0294
     29 C          -7.0567  -22.1306   19.1350 C.ar    1  UNL1       -0.0001
     30 C          -6.8540  -20.9016   19.9709 C.ar    1  UNL1        0.0006
     31 C          -7.6719  -19.6721   19.7074 C.ar    1  UNL1       -0.0001
     32 C          -8.6924  -19.6716   18.6081 C.ar    1  UNL1        0.0294
@<TRIPOS>BOND
     1    26    27    1
     2    27    28   ar
     3    28    29   ar
     4    29    30   ar
     5    30    25    1
     6    25     1    1
     7     1     2   ar
     8     2    10    1
     9    10    11    1
    10    11    12    1
    11    12    13    1
    12    13    16    1
    13    16    18    1
    14    18    19    1
    15    19    20    1
    16    20    21    1
    17    21    22    1
    18    22    23    1
    19    23    24    1
    20    13    14    1
    21    14    15    1
    22     2     3   ar
    23     3     4   ar
    24     4     5   ar
    25     5     6   ar
    26     6     7   ar
    27     7     8   ar
    28     8     9   ar
    29    30    31   ar
    30    31    32   ar
    31    32    27   ar
    32     9     1   ar
    33    15    10    1
    34     9     4   ar
    35    24    19    1
    36    16    17    1
@<TRIPOS>MOLECULE
*****
 32 36 0 0 0
SMALL
GASTEIGER

@<TRIPOS>ATOM
      1 N         -13.2674   -5.3837   18.1009 N.ar    1  UNL1       -0.2954
      2 C         -13.0887   -4.0374   18.7376 C.ar    1  UNL1        0.2014
      3 N         -11.6747   -3.9409   19.2287 N.ar    1  UNL1       -0.2136
      4 C         -10.9794   -5.2276   18.8955 C.ar    1  UNL1        0.0999
      5 C          -9.5772   -5.7024   19.1367 C.ar    1  UNL1        0.0207
      6 C          -9.1593   -7.0690   18.6809 C.ar    1  UNL1        0.0016
      7 C         -10.1436   -7.9607   17.9839 C.ar    1  UNL1        0.0016
      8 C         -11.5459   -7.4859   17.7426 C.ar    1  UNL1        0.0188
      9 C         -11.9638   -6.1193   18.1984 C.ar    1  UNL1        0.0801
     10 N         -14.1396   -2.9742   18.8615 N.pl3   1  UNL1       -0.2794
     11 C         -15.4147   -3.2621   19.5971 C.3     1  UNL1        0.0949
     12 C         -16.4656   -2.1989   19.7210 C.3     1  UNL1        0.0373
     13 C         -16.2414   -0.8479   19.1092 C.3     1  UNL1        0.0574
     14 C         -14.9663   -0.5600   18.3736 C.3     1  UNL1        0.0373
     15 C         -13.9154   -1.6231   18.2497 C.3     1  UNL1        0.0949
     16 N         -17.2922    0.2153   19.2331 N.3     1  UNL1       -0.2984
     17 H         -18.1101   -0.1183   18.7231 H       1  UNL1        0.1232
     18 C         -17.7716    0.6417   20.5889 C.3     1  UNL1        0.0686
     19 C         -17.1776    1.8509   21.2484 C.3     1  UNL1        0.0207
     20 C         -16.3082    2.7845   20.4593 C.3     1  UNL1        0.0335
     21 C         -15.7142    3.9937   21.1188 C.3     1  UNL1        0.1422
     22 O         -15.9896    4.2694   22.5674 O.3     1  UNL1       -0.3538
     23 C         -16.8590    3.3358   23.3564 C.3     1  UNL1        0.1422
     24 C         -17.4530    2.1266   22.6969 C.3     1  UNL1        0.0335
     25 C         -14.5283   -5.9033   17.4762 C.3     1  UNL1        0.1354
     26 F         -17.2262  -10.7548   19.7531 F       1  UNL1       -0.2042
     27 C         -16.5517   -9.5419   19.1838 C.ar    1  UNL1        0.1401
     28 C         -16.7652   -8.1987   19.8166 C.ar    1  UNL1        0.0294
     29 C         -16.0907   -6.9859   19.2473 C.ar    1  UNL1       -0.0001
     30 C         -15.2027   -7.1161   18.0454 C.ar    1  UNL1        0.0006
     31 C         -14.9893   -8.4593   17.4127 C.ar    1  UNL1       -0.0001
     32 C         -15.6638   -9.6722   17.9819 C.ar    1  UNL1        0.0294
@<TRIPOS>BOND
     1    26    27    1
     2    27    28   ar
     3    28    29   ar
     4    29    30   ar
     5    30    25    1
     6    25     1    1
     7     1     2   ar
     8     2    10    1
     9    10    11    1
    10    11    12    1
    11    12    13    1
    12    13    16    1
    13    16    18    1
    14    18    19    1
    15    19    20    1
    16    20    21    1
    17    21    22    1
    18    22    23    1
    19    23    24    1
    20    13    14    1
    21    14    15    1
    22     2     3   ar
    23     3     4   ar
    24     4     5   ar
    25     5     6   ar
    26     6     7   ar
    27     7     8   ar
    28     8     9   ar
    29    30    31   ar
    30    31    32   ar
    31    32    27   ar
    32     9     1   ar
    33    15    10    1
    34     9     4   ar
    35    24    19    1
    36    16    17    1
@<TRIPOS>MOLECULE
*****
 32 36 0 0 0
SMALL
GASTEIGER

@<TRIPOS>ATOM
      1 N         -15.1746   -6.7810   18.0130 N.ar    1  UNL1       -0.2954
      2 C         -15.9846   -5.7372   18.7231 C.ar    1  UNL1        0.2014
      3 N         -17.0909   -6.4315   19.4608 N.ar    1  UNL1       -0.2136
      4 C         -16.9646   -7.9044   19.2065 C.ar    1  UNL1        0.0999
      5 C         -17.7749   -9.0768   19.6741 C.ar    1  UNL1        0.0207
      6 C         -17.4010  -10.4652   19.2470 C.ar    1  UNL1        0.0016
      7 C         -16.2167  -10.6812   18.3521 C.ar    1  UNL1        0.0016
      8 C         -15.4063   -9.5088   17.8845 C.ar    1  UNL1        0.0188
      9 C         -15.7802   -8.1204   18.3117 C.ar    1  UNL1        0.0801
     10 N         -15.7326   -4.2587   18.6998 N.pl3   1  UNL1       -0.2794
     11 C         -15.2992   -3.5519   19.9498 C.3     1  UNL1        0.0949
     12 C         -15.0472   -2.0734   19.9264 C.3     1  UNL1        0.0373
     13 C         -15.2287   -1.3017   18.6531 C.3     1  UNL1        0.0574
     14 C         -15.6622   -2.0085   17.4031 C.3     1  UNL1        0.0373
     15 C         -15.9141   -3.4870   17.4264 C.3     1  UNL1        0.0949
     16 N         -14.9767    0.1768   18.6297 N.3     1  UNL1       -0.2984
     17 H         -15.3722    0.5565   19.4898 H       1  UNL1        0.1232
     18 C         -13.5732    0.6970   18.5319 C.3     1  UNL1        0.0686
     19 C         -12.4872   -0.1751   17.9751 C.3     1  UNL1        0.0207
     20 C         -12.0439   -0.0045   16.5522 C.3     1  UNL1        0.0335
     21 C         -10.9579   -0.8766   15.9954 C.3     1  UNL1        0.1422
     22 O         -10.3152   -1.9193   16.8613 O.3     1  UNL1       -0.3538
     23 C         -10.7586   -2.0899   18.2841 C.3     1  UNL1        0.1422
     24 C         -11.8446   -1.2178   18.8410 C.3     1  UNL1        0.0335
     25 C         -13.9704   -6.5296   17.1547 C.3     1  UNL1        0.1354
     26 F          -8.4906   -6.5343   19.5985 F       1  UNL1       -0.2042
     27 C          -9.8606   -6.5332   18.9876 C.ar    1  UNL1        0.1401
     28 C         -10.8272   -5.4340   19.3158 C.ar    1  UNL1        0.0294
     29 C         -12.1971   -5.4329   18.7048 C.ar    1  UNL1       -0.0001
     30 C         -12.6005   -6.5308   17.7656 C.ar    1  UNL1        0.0006
     31 C         -11.6338   -7.6298   17.4375 C.ar    1  UNL1       -0.0001
     32 C         -10.2639   -7.6310   18.0484 C.ar    1  UNL1        0.0294
@<TRIPOS>BOND
     1    26    27    1
     2    27    28   ar
     3    28    29   ar
     4    29    30   ar
     5    30    25    1
     6    25     1    1
     7     1     2   ar
     8     2    10    1
     9    10    11    1
    10    11    12    1
    11    12    13    1
    12    13    16    1
    13    16    18    1
    14    18    19    1
    15    19    20    1
    16    20    21    1
    17    21    22    1
    18    22    23    1
    19    23    24    1
    20    13    14    1
    21    14    15    1
    22     2     3   ar
    23     3     4   ar
    24     4     5   ar
    25     5     6   ar
    26     6     7   ar
    27     7     8   ar
    28     8     9   ar
    29    30    31   ar
    30    31    32   ar
    31    32    27   ar
    32     9     1   ar
    33    15    10    1
    34     9     4   ar
    35    24    19    1
    36    16    17    1
@<TRIPOS>MOLECULE
*****
 32 36 0 0 0
SMALL
GASTEIGER

@<TRIPOS>ATOM
      1 N          -3.5201  -18.1213   22.1915 N.ar    1  UNL1       -0.2954
      2 C          -3.4406  -16.7890   22.8760 C.ar    1  UNL1        0.2014
      3 N          -2.3065  -16.0208   22.2646 N.ar    1  UNL1       -0.2136
      4 C          -1.6852  -16.8784   21.2023 C.ar    1  UNL1        0.0999
      5 C          -0.5333  -16.6449   20.2703 C.ar    1  UNL1        0.0207
      6 C          -0.1316  -17.7096   19.2931 C.ar    1  UNL1        0.0016
      7 C          -0.8816  -19.0078   19.2479 C.ar    1  UNL1        0.0016
      8 C          -2.0335  -19.2413   20.1799 C.ar    1  UNL1        0.0188
      9 C          -2.4352  -18.1766   21.1571 C.ar    1  UNL1        0.0801
     10 N          -4.3376  -16.3091   23.9783 N.pl3   1  UNL1       -0.2794
     11 C          -5.3651  -15.2518   23.7024 C.3     1  UNL1        0.0949
     12 C          -6.2621  -14.7719   24.8048 C.3     1  UNL1        0.0373
     13 C          -6.1316  -15.3493   26.1829 C.3     1  UNL1        0.0574
     14 C          -5.1041  -16.4067   26.4588 C.3     1  UNL1        0.0373
     15 C          -4.2071  -16.8866   25.3565 C.3     1  UNL1        0.0949
     16 N          -7.0286  -14.8694   27.2853 N.3     1  UNL1       -0.2984
     17 H          -7.0506  -13.8515   27.2248 H       1  UNL1        0.1232
     18 C          -8.4546  -15.3306   27.3462 C.3     1  UNL1        0.0686
     19 C          -9.0114  -16.1930   26.2524 C.3     1  UNL1        0.0207
     20 C          -9.2215  -17.6596   26.4872 C.3     1  UNL1        0.0335
     21 C          -9.7782  -18.5220   25.3935 C.3     1  UNL1        0.1422
     22 O         -10.1249  -17.9178   24.0649 O.3     1  UNL1       -0.3538
     23 C          -9.9147  -16.4513   23.8302 C.3     1  UNL1        0.1422
     24 C          -9.3580  -15.5889   24.9240 C.3     1  UNL1        0.0335
     25 C          -4.5107  -19.2077   22.4892 C.3     1  UNL1        0.1354
     26 F          -9.6064  -19.5663   19.3421 F       1  UNL1       -0.2042
     27 C          -8.3325  -19.4767   20.1288 C.ar    1  UNL1        0.1401
     28 C          -8.2490  -18.5688   21.3200 C.ar    1  UNL1        0.0294
     29 C          -6.9750  -18.4792   22.1067 C.ar    1  UNL1       -0.0001
     30 C          -5.7845  -19.2974   21.7024 C.ar    1  UNL1        0.0006
     31 C          -5.8681  -20.2053   20.5112 C.ar    1  UNL1       -0.0001
     32 C          -7.1421  -20.2949   19.7245 C.ar    1  UNL1        0.0294
@<TRIPOS>BOND
     1    26    27    1
     2    27    28   ar
     3    28    29   ar
     4    29    30   ar
     5    30    25    1
     6    25     1    1
     7     1     2   ar
     8     2    10    1
     9    10    11    1
    10    11    12    1
    11    12    13    1
    12    13    16    1
    13    16    18    1
    14    18    19    1
    15    19    20    1
    16    20    21    1
    17    21    22    1
    18    22    23    1
    19    23    24    1
    20    13    14    1
    21    14    15    1
    22     2     3   ar
    23     3     4   ar
    24     4     5   ar
    25     5     6   ar
    26     6     7   ar
    27     7     8   ar
    28     8     9   ar
    29    30    31   ar
    30    31    32   ar
    31    32    27   ar
    32     9     1   ar
    33    15    10    1
    34     9     4   ar
    35    24    19    1
    36    16    17    1
@<TRIPOS>MOLECULE
*****
 32 36 0 0 0
SMALL
GASTEIGER

@<TRIPOS>ATOM
      1 N           0.6467    1.8458   19.5122 N.ar    1  UNL1       -0.2954
      2 C           1.8073    2.2094   18.6343 C.ar    1  UNL1        0.2014
      3 N           1.5941    3.6097   18.1405 N.ar    1  UNL1       -0.2136
      4 C           0.3017    4.1114   18.7131 C.ar    1  UNL1        0.0999
      5 C          -0.4176    5.4201   18.5722 C.ar    1  UNL1        0.0207
      6 C          -1.7224    5.6386   19.2789 C.ar    1  UNL1        0.0016
      7 C          -2.3080    4.5485   20.1266 C.ar    1  UNL1        0.0016
      8 C          -1.5887    3.2398   20.2676 C.ar    1  UNL1        0.0188
      9 C          -0.2839    3.0213   19.5609 C.ar    1  UNL1        0.0801
     10 N           2.9760    1.3277   18.3077 N.pl3   1  UNL1       -0.2794
     11 C           4.3540    1.7108   18.7595 C.3     1  UNL1        0.0949
     12 C           5.5227    0.8291   18.4329 C.3     1  UNL1        0.0373
     13 C           5.3134   -0.4358   17.6544 C.3     1  UNL1        0.0574
     14 C           3.9354   -0.8190   17.2025 C.3     1  UNL1        0.0373
     15 C           2.7667    0.0628   17.5292 C.3     1  UNL1        0.0949
     16 N           6.4820   -1.3176   17.3277 N.3     1  UNL1       -0.2984
     17 H           7.2338   -0.7050   17.0114 H       1  UNL1        0.1232
     18 C           7.0658   -2.2104   18.3822 C.3     1  UNL1        0.0686
     19 C           6.1614   -3.0093   19.2733 C.3     1  UNL1        0.0207
     20 C           6.3546   -2.9773   20.7605 C.3     1  UNL1        0.0335
     21 C           5.4502   -3.7762   21.6515 C.3     1  UNL1        0.1422
     22 O           4.3528   -4.6071   21.0554 O.3     1  UNL1       -0.3538
     23 C           4.1597   -4.6391   19.5682 C.3     1  UNL1        0.1422
     24 C           5.0641   -3.8402   18.6772 C.3     1  UNL1        0.0335
     25 C           0.4509    0.5365   20.2175 C.3     1  UNL1        0.1354
     26 F           3.9234   -0.9005   24.8947 F       1  UNL1       -0.2042
     27 C           3.0552   -0.5412   23.7254 C.ar    1  UNL1        0.1401
     28 C           3.2687   -1.2095   22.3995 C.ar    1  UNL1        0.0294
     29 C           2.4005   -0.8503   21.2303 C.ar    1  UNL1       -0.0001
     30 C           1.3189    0.1773   21.3868 C.ar    1  UNL1        0.0006
     31 C           1.1056    0.8455   22.7126 C.ar    1  UNL1       -0.0001
     32 C           1.9737    0.4863   23.8819 C.ar    1  UNL1        0.0294
@<TRIPOS>BOND
     1    26    27    1
     2    27    28   ar
     3    28    29   ar
     4    29    30   ar
     5    30    25    1
     6    25     1    1
     7     1     2   ar
     8     2    10    1
     9    10    11    1
    10    11    12    1
    11    12    13    1
    12    13    16    1
    13    16    18    1
    14    18    19    1
    15    19    20    1
    16    20    21    1
    17    21    22    1
    18    22    23    1
    19    23    24    1
    20    13    14    1
    21    14    15    1
    22     2     3   ar
    23     3     4   ar
    24     4     5   ar
    25     5     6   ar
    26     6     7   ar
    27     7     8   ar
    28     8     9   ar
    29    30    31   ar
    30    31    32   ar
    31    32    27   ar
    32     9     1   ar
    33    15    10    1
    34     9     4   ar
    35    24    19    1
    36    16    17    1
@<TRIPOS>MOLECULE
*****
 32 36 0 0 0
SMALL
GASTEIGER

@<TRIPOS>ATOM
      1 N           7.7729   -4.0541   23.5757 N.ar    1  UNL1       -0.2954
      2 C           7.8400   -4.5683   22.1682 C.ar    1  UNL1        0.2014
      3 N           8.2515   -6.0098   22.2205 N.ar    1  UNL1       -0.2136
      4 C           8.4387   -6.3865   23.6603 C.ar    1  UNL1        0.0999
      5 C           8.8402   -7.6740   24.3168 C.ar    1  UNL1        0.0207
      6 C           8.9460   -7.7528   25.8110 C.ar    1  UNL1        0.0016
      7 C           8.6503   -6.5441   26.6486 C.ar    1  UNL1        0.0016
      8 C           8.2487   -5.2566   25.9920 C.ar    1  UNL1        0.0188
      9 C           8.1429   -5.1778   24.4979 C.ar    1  UNL1        0.0801
     10 N           7.5471   -3.7795   20.9264 N.pl3   1  UNL1       -0.2794
     11 C           6.1805   -3.8307   20.3103 C.3     1  UNL1        0.0949
     12 C           5.8875   -3.0419   19.0685 C.3     1  UNL1        0.0373
     13 C           6.9612   -2.2018   18.4429 C.3     1  UNL1        0.0574
     14 C           8.3278   -2.1506   19.0591 C.3     1  UNL1        0.0373
     15 C           8.6208   -2.9394   20.3008 C.3     1  UNL1        0.0949
     16 N           6.6683   -1.4130   17.2012 N.3     1  UNL1       -0.2984
     17 H           5.8325   -1.8217   16.7830 H       1  UNL1        0.1232
     18 C           6.4293    0.0651   17.2905 C.3     1  UNL1        0.0686
     19 C           5.0883    0.5835   17.7182 C.3     1  UNL1        0.0207
     20 C           3.8645   -0.2655   17.5405 C.3     1  UNL1        0.0335
     21 C           2.5234    0.2529   17.9681 C.3     1  UNL1        0.1422
     22 O           2.4062    1.6204   18.5735 O.3     1  UNL1       -0.3538
     23 C           3.6300    2.4693   18.7512 C.3     1  UNL1        0.1422
     24 C           4.9710    1.9509   18.3235 C.3     1  UNL1        0.0335
     25 C           7.4011   -2.6608   23.9886 C.3     1  UNL1        0.1354
     26 F           2.8646    0.1663   21.2633 F       1  UNL1       -0.2042
     27 C           3.9988   -0.5405   21.9446 C.ar    1  UNL1        0.1401
     28 C           3.7287   -1.7479   22.7927 C.ar    1  UNL1        0.0294
     29 C           4.8629   -2.4547   23.4740 C.ar    1  UNL1       -0.0001
     30 C           6.2671   -1.9540   23.3073 C.ar    1  UNL1        0.0006
     31 C           6.5370   -0.7466   22.4592 C.ar    1  UNL1       -0.0001
     32 C           5.4029   -0.0398   21.7779 C.ar    1  UNL1        0.0294
@<TRIPOS>BOND
     1    26    27    1
     2    27    28   ar
     3    28    29   ar
     4    29    30   ar
     5    30    25    1
     6    25     1    1
     7     1     2   ar
     8     2    10    1
     9    10    11    1
    10    11    12    1
    11    12    13    1
    12    13    16    1
    13    16    18    1
    14    18    19    1
    15    19    20    1
    16    20    21    1
    17    21    22    1
    18    22    23    1
    19    23    24    1
    20    13    14    1
    21    14    15    1
    22     2     3   ar
    23     3     4   ar
    24     4     5   ar
    25     5     6   ar
    26     6     7   ar
    27     7     8   ar
    28     8     9   ar
    29    30    31   ar
    30    31    32   ar
    31    32    27   ar
    32     9     1   ar
    33    15    10    1
    34     9     4   ar
    35    24    19    1
    36    16    17    1
@<TRIPOS>MOLECULE
*****
 32 36 0 0 0
SMALL
GASTEIGER

@<TRIPOS>ATOM
      1 N          -1.7210    3.5834   22.2857 N.ar    1  UNL1       -0.2954
      2 C          -1.6133    2.8453   20.9843 C.ar    1  UNL1        0.2014
      3 N          -2.9503    2.9032   20.3067 N.ar    1  UNL1       -0.2136
      4 C          -3.8843    3.6770   21.1893 C.ar    1  UNL1        0.0999
      5 C          -5.3283    4.0531   21.0373 C.ar    1  UNL1        0.0207
      6 C          -6.0126    4.8496   22.1084 C.ar    1  UNL1        0.0016
      7 C          -5.2528    5.2700   23.3315 C.ar    1  UNL1        0.0016
      8 C          -3.8088    4.8940   23.4835 C.ar    1  UNL1        0.0188
      9 C          -3.1245    4.0974   22.4124 C.ar    1  UNL1        0.0801
     10 N          -0.3845    2.1683   20.4537 N.pl3   1  UNL1       -0.2794
     11 C           0.2607    2.6651   19.1940 C.3     1  UNL1        0.0949
     12 C           1.4896    1.9881   18.6634 C.3     1  UNL1        0.0373
     13 C           2.0732    0.8143   19.3924 C.3     1  UNL1        0.0574
     14 C           1.4279    0.3175   20.6521 C.3     1  UNL1        0.0373
     15 C           0.1991    0.9945   21.1827 C.3     1  UNL1        0.0949
     16 N           3.3020    0.1372   18.8618 N.3     1  UNL1       -0.2984
     17 H           3.8156    0.8369   18.3260 H       1  UNL1        0.1232
     18 C           4.2824   -0.4879   19.8095 C.3     1  UNL1        0.0686
     19 C           4.2084   -1.9567   20.1043 C.3     1  UNL1        0.0207
     20 C           3.7565   -2.9133   19.0408 C.3     1  UNL1        0.0335
     21 C           3.6824   -4.3822   19.3357 C.3     1  UNL1        0.1422
     22 O           4.0604   -4.8945   20.6939 O.3     1  UNL1       -0.3538
     23 C           4.5122   -3.9379   21.7573 C.3     1  UNL1        0.1422
     24 C           4.5863   -2.4691   21.4625 C.3     1  UNL1        0.0335
     25 C          -0.6187    3.7741   23.2850 C.3     1  UNL1        0.1354
     26 F          -0.7669    0.8342   28.5132 F       1  UNL1       -0.2042
     27 C          -0.7299    1.5692   27.2061 C.ar    1  UNL1        0.1401
     28 C           0.0810    1.0299   26.0652 C.ar    1  UNL1        0.0294
     29 C           0.1180    1.7649   24.7581 C.ar    1  UNL1       -0.0001
     30 C          -0.6557    3.0392   24.5920 C.ar    1  UNL1        0.0006
     31 C          -1.4665    3.5784   25.7330 C.ar    1  UNL1       -0.0001
     32 C          -1.5035    2.8434   27.0400 C.ar    1  UNL1        0.0294
@<TRIPOS>BOND
     1    26    27    1
     2    27    28   ar
     3    28    29   ar
     4    29    30   ar
     5    30    25    1
     6    25     1    1
     7     1     2   ar
     8     2    10    1
     9    10    11    1
    10    11    12    1
    11    12    13    1
    12    13    16    1
    13    16    18    1
    14    18    19    1
    15    19    20    1
    16    20    21    1
    17    21    22    1
    18    22    23    1
    19    23    24    1
    20    13    14    1
    21    14    15    1
    22     2     3   ar
    23     3     4   ar
    24     4     5   ar
    25     5     6   ar
    26     6     7   ar
    27     7     8   ar
    28     8     9   ar
    29    30    31   ar
    30    31    32   ar
    31    32    27   ar
    32     9     1   ar
    33    15    10    1
    34     9     4   ar
    35    24    19    1
    36    16    17    1
@<TRIPOS>MOLECULE
*****
 32 36 0 0 0
SMALL
GASTEIGER

@<TRIPOS>ATOM
      1 N         -15.2279   -4.5852   19.4160 N.ar    1  UNL1       -0.2954
      2 C         -16.0927   -3.4786   18.8892 C.ar    1  UNL1        0.2014
      3 N         -17.2952   -4.0986   18.2413 N.ar    1  UNL1       -0.2136
      4 C         -17.1736   -5.5883   18.3678 C.ar    1  UNL1        0.0999
      5 C         -18.0611   -6.7098   17.9156 C.ar    1  UNL1        0.0207
      6 C         -17.6710   -8.1320   18.1895 C.ar    1  UNL1        0.0016
      7 C         -16.3934   -8.4328   18.9155 C.ar    1  UNL1        0.0016
      8 C         -15.5058   -7.3113   19.3676 C.ar    1  UNL1        0.0188
      9 C         -15.8959   -5.8891   19.0938 C.ar    1  UNL1        0.0801
     10 N         -15.8055   -2.0100   18.9921 N.pl3   1  UNL1       -0.2794
     11 C         -14.6845   -1.4076   18.1982 C.3     1  UNL1        0.0949
     12 C         -14.3973    0.0611   18.3012 C.3     1  UNL1        0.0373
     13 C         -15.2311    0.9273   19.1980 C.3     1  UNL1        0.0574
     14 C         -16.3521    0.3249   19.9919 C.3     1  UNL1        0.0373
     15 C         -16.6393   -1.1438   19.8890 C.3     1  UNL1        0.0949
     16 N         -14.9439    2.3959   19.3009 N.3     1  UNL1       -0.2984
     17 H         -14.7475    2.7245   18.3555 H       1  UNL1        0.1232
     18 C         -15.9732    3.3229   19.8765 C.3     1  UNL1        0.0686
     19 C         -15.9024    3.7178   21.3218 C.3     1  UNL1        0.0207
     20 C         -14.8349    4.6620   21.7899 C.3     1  UNL1        0.0335
     21 C         -14.7640    5.0570   23.2352 C.3     1  UNL1        0.1422
     22 O         -15.7607    4.5077   24.2125 O.3     1  UNL1       -0.3538
     23 C         -16.8282    3.5635   23.7444 C.3     1  UNL1        0.1422
     24 C         -16.8990    3.1686   22.2991 C.3     1  UNL1        0.0335
     25 C         -13.9240   -4.4175   20.1383 C.3     1  UNL1        0.1354
     26 F          -8.7476   -5.0397   17.1691 F       1  UNL1       -0.2042
     27 C         -10.0417   -4.8842   17.9114 C.ar    1  UNL1        0.1401
     28 C         -10.5467   -3.5153   18.2596 C.ar    1  UNL1        0.0294
     29 C         -11.8408   -3.3598   19.0019 C.ar    1  UNL1       -0.0001
     30 C         -12.6300   -4.5731   19.3960 C.ar    1  UNL1        0.0006
     31 C         -12.1249   -5.9419   19.0478 C.ar    1  UNL1       -0.0001
     32 C         -10.8308   -6.0974   18.3055 C.ar    1  UNL1        0.0294
@<TRIPOS>BOND
     1    26    27    1
     2    27    28   ar
     3    28    29   ar
     4    29    30   ar
     5    30    25    1
     6    25     1    1
     7     1     2   ar
     8     2    10    1
     9    10    11    1
    10    11    12    1
    11    12    13    1
    12    13    16    1
    13    16    18    1
    14    18    19    1
    15    19    20    1
    16    20    21    1
    17    21    22    1
    18    22    23    1
    19    23    24    1
    20    13    14    1
    21    14    15    1
    22     2     3   ar
    23     3     4   ar
    24     4     5   ar
    25     5     6   ar
    26     6     7   ar
    27     7     8   ar
    28     8     9   ar
    29    30    31   ar
    30    31    32   ar
    31    32    27   ar
    32     9     1   ar
    33    15    10    1
    34     9     4   ar
    35    24    19    1
    36    16    17    1
