@<TRIPOS>MOLECULE
*****
 28 32 0 0 0
SMALL
GASTEIGER

@<TRIPOS>ATOM
      1 C         -13.0405   -0.2068   18.3810 C.ar    1  UNL1        0.1722
      2 C         -14.4922   -0.1076   18.7456 C.ar    1  UNL1        0.0400
      3 C         -15.3147   -1.3531   18.8951 C.ar    1  UNL1        0.0032
      4 C         -14.6854   -2.6977   18.6800 C.ar    1  UNL1        0.0043
      5 C         -13.2338   -2.7968   18.3154 C.ar    1  UNL1        0.0611
      6 C         -12.4114   -1.5514   18.1660 C.ar    1  UNL1        0.1723
      7 C         -12.6046   -4.1414   18.1004 C.3     1  UNL1        0.2194
      8 N         -13.4271   -5.3869   18.2499 N.pl3   1  UNL1       -0.2807
      9 C         -12.7980   -6.7314   18.0348 C.3     1  UNL1        0.1147
     10 C         -14.8788   -5.2877   18.6144 C.ar    1  UNL1        0.0498
     11 C         -15.5079   -3.9431   18.8295 C.ar    1  UNL1        0.0133
     12 C         -16.9596   -3.8441   19.1940 C.ar    1  UNL1        0.0012
     13 C         -17.7821   -5.0895   19.3435 C.ar    1  UNL1        0.0002
     14 C         -17.1529   -6.4341   19.1285 C.ar    1  UNL1        0.0044
     15 C         -17.9754   -7.6796   19.2780 C.ar    1  UNL1        0.0402
     16 C         -17.3462   -9.0241   19.0629 C.ar    1  UNL1        0.1764
     17 C         -15.8946   -9.1233   18.6984 C.ar    1  UNL1        0.1765
     18 C         -15.0721   -7.8778   18.5489 C.ar    1  UNL1        0.0414
     19 C         -15.7013   -6.5332   18.7639 C.ar    1  UNL1        0.0166
     20 O         -15.5521  -10.5761   18.5497 O.3     1  UNL1       -0.4346
     21 C         -16.7921  -11.3748   18.8224 C.3     1  UNL1        0.4294
     22 O         -17.9009  -10.4157   19.1396 O.3     1  UNL1       -0.4346
     23 C         -12.3561    1.8856   17.0011 C.3     1  UNL1        0.2526
     24 O         -12.2180    1.0386   18.2315 O.3     1  UNL1       -0.4684
     25 O         -10.9597   -1.6504   17.8014 O.3     1  UNL1       -0.4686
     26 C         -10.5095   -1.3019   16.4137 C.3     1  UNL1        0.2526
     27 O         -11.1530   -4.2406   17.7358 O.3     1  UNL1       -0.3313
     28 C         -10.1447   -4.6379   18.7729 C.3     1  UNL1        0.1764
@<TRIPOS>BOND
     1    23    24    1
     2    24     1    1
     3     1     2   ar
     4     2     3   ar
     5     3     4   ar
     6     4     5   ar
     7     5     6   ar
     8     6    25    1
     9    25    26    1
    10     5     7    1
    11     7    27    1
    12    27    28    1
    13     7     8    1
    14     8     9    1
    15     8    10    1
    16    10    11   ar
    17    11    12   ar
    18    12    13   ar
    19    13    14   ar
    20    14    15   ar
    21    15    16   ar
    22    16    17   ar
    23    17    18   ar
    24    18    19   ar
    25    17    20    1
    26    20    21    1
    27    21    22    1
    28     6     1   ar
    29    19    10   ar
    30    11     4    1
    31    19    14   ar
    32    22    16    1
@<TRIPOS>MOLECULE
*****
 28 32 0 0 0
SMALL
GASTEIGER

@<TRIPOS>ATOM
      1 C         -16.7037    2.3673   19.5192 C.ar    1  UNL1        0.1722
      2 C         -17.4756    1.2178   20.0962 C.ar    1  UNL1        0.0400
      3 C         -16.8750   -0.1566   20.1115 C.ar    1  UNL1        0.0032
      4 C         -15.5024   -0.3814   19.5497 C.ar    1  UNL1        0.0043
      5 C         -14.7305    0.7680   18.9727 C.ar    1  UNL1        0.0611
      6 C         -15.3312    2.1424   18.9574 C.ar    1  UNL1        0.1723
      7 C         -13.3580    0.5431   18.4109 C.3     1  UNL1        0.2194
      8 N         -12.7573   -0.8313   18.4262 N.pl3   1  UNL1       -0.2807
      9 C         -11.3848   -1.0562   17.8644 C.3     1  UNL1        0.1147
     10 C         -13.5292   -1.9808   19.0032 C.ar    1  UNL1        0.0498
     11 C         -14.9017   -1.7558   19.5649 C.ar    1  UNL1        0.0133
     12 C         -15.6736   -2.9054   20.1420 C.ar    1  UNL1        0.0012
     13 C         -15.0729   -4.2798   20.1572 C.ar    1  UNL1        0.0002
     14 C         -13.7003   -4.5047   19.5954 C.ar    1  UNL1        0.0044
     15 C         -13.0997   -5.8791   19.6107 C.ar    1  UNL1        0.0402
     16 C         -11.7272   -6.1040   19.0489 C.ar    1  UNL1        0.1764
     17 C         -10.9553   -4.9545   18.4719 C.ar    1  UNL1        0.1765
     18 C         -11.5560   -3.5801   18.4566 C.ar    1  UNL1        0.0414
     19 C         -12.9285   -3.3552   19.0184 C.ar    1  UNL1        0.0166
     20 O          -9.6333   -5.4775   17.9935 O.3     1  UNL1       -0.4346
     21 C          -9.5882   -6.9501   18.2749 C.3     1  UNL1        0.4294
     22 O         -10.8822   -7.3374   18.9272 O.3     1  UNL1       -0.4346
     23 C         -17.0030    4.7044   20.6141 C.3     1  UNL1        0.2526
     24 O         -17.3044    3.7417   19.5039 O.3     1  UNL1       -0.4684
     25 O         -14.5594    3.2919   18.3804 O.3     1  UNL1       -0.4686
     26 C         -15.0715    4.0034   17.1632 C.3     1  UNL1        0.2526
     27 O         -12.5861    1.6925   17.8339 O.3     1  UNL1       -0.3313
     28 C         -12.3560    1.7738   16.3539 C.3     1  UNL1        0.1764
@<TRIPOS>BOND
     1    23    24    1
     2    24     1    1
     3     1     2   ar
     4     2     3   ar
     5     3     4   ar
     6     4     5   ar
     7     5     6   ar
     8     6    25    1
     9    25    26    1
    10     5     7    1
    11     7    27    1
    12    27    28    1
    13     7     8    1
    14     8     9    1
    15     8    10    1
    16    10    11   ar
    17    11    12   ar
    18    12    13   ar
    19    13    14   ar
    20    14    15   ar
    21    15    16   ar
    22    16    17   ar
    23    17    18   ar
    24    18    19   ar
    25    17    20    1
    26    20    21    1
    27    21    22    1
    28     6     1   ar
    29    19    10   ar
    30    11     4    1
    31    19    14   ar
    32    22    16    1
@<TRIPOS>MOLECULE
*****
 28 32 0 0 0
SMALL
GASTEIGER

@<TRIPOS>ATOM
      1 C           5.6827   -3.5978   21.9618 C.ar    1  UNL1        0.1722
      2 C           5.4073   -3.0905   23.3462 C.ar    1  UNL1        0.0400
      3 C           4.3746   -2.0243   23.5627 C.ar    1  UNL1        0.0032
      4 C           3.6174   -1.4655   22.3946 C.ar    1  UNL1        0.0043
      5 C           3.8928   -1.9729   21.0101 C.ar    1  UNL1        0.0611
      6 C           4.9255   -3.0390   20.7937 C.ar    1  UNL1        0.1723
      7 C           3.1355   -1.4140   19.8421 C.3     1  UNL1        0.2194
      8 N           2.1029   -0.3479   20.0585 N.pl3   1  UNL1       -0.2807
      9 C           1.3456    0.2109   18.8905 C.3     1  UNL1        0.1147
     10 C           1.8274    0.1595   21.4430 C.ar    1  UNL1        0.0498
     11 C           2.5847   -0.3994   22.6110 C.ar    1  UNL1        0.0133
     12 C           2.3092    0.1081   23.9955 C.ar    1  UNL1        0.0012
     13 C           1.2765    1.1742   24.2119 C.ar    1  UNL1        0.0002
     14 C           0.5193    1.7330   23.0438 C.ar    1  UNL1        0.0044
     15 C          -0.5134    2.7992   23.2603 C.ar    1  UNL1        0.0402
     16 C          -1.2707    3.3580   22.0923 C.ar    1  UNL1        0.1764
     17 C          -0.9952    2.8506   20.7078 C.ar    1  UNL1        0.1765
     18 C           0.0374    1.7845   20.4913 C.ar    1  UNL1        0.0414
     19 C           0.7947    1.2257   21.6595 C.ar    1  UNL1        0.0166
     20 O          -1.8929    3.5861   19.7574 O.3     1  UNL1       -0.4346
     21 C          -2.7232    4.5480   20.5546 C.3     1  UNL1        0.4294
     22 O          -2.3386    4.4070   21.9976 O.3     1  UNL1       -0.4346
     23 C           8.0769   -4.2967   21.2338 C.3     1  UNL1        0.2526
     24 O           6.7154   -4.6640   21.7453 O.3     1  UNL1       -0.4684
     25 O           5.2010   -3.5464   19.4093 O.3     1  UNL1       -0.4686
     26 C           4.6614   -4.8777   18.9773 C.3     1  UNL1        0.2526
     27 O           3.4110   -1.9214   18.4576 O.3     1  UNL1       -0.3313
     28 C           4.1931   -1.0807   17.4925 C.3     1  UNL1        0.1764
@<TRIPOS>BOND
     1    23    24    1
     2    24     1    1
     3     1     2   ar
     4     2     3   ar
     5     3     4   ar
     6     4     5   ar
     7     5     6   ar
     8     6    25    1
     9    25    26    1
    10     5     7    1
    11     7    27    1
    12    27    28    1
    13     7     8    1
    14     8     9    1
    15     8    10    1
    16    10    11   ar
    17    11    12   ar
    18    12    13   ar
    19    13    14   ar
    20    14    15   ar
    21    15    16   ar
    22    16    17   ar
    23    17    18   ar
    24    18    19   ar
    25    17    20    1
    26    20    21    1
    27    21    22    1
    28     6     1   ar
    29    19    10   ar
    30    11     4    1
    31    19    14   ar
    32    22    16    1
@<TRIPOS>MOLECULE
*****
 28 32 0 0 0
SMALL
GASTEIGER

@<TRIPOS>ATOM
      1 C          -0.9945    3.0569   21.8077 C.ar    1  UNL1        0.1722
      2 C          -0.7317    2.3771   20.4966 C.ar    1  UNL1        0.0400
      3 C           0.2910    1.2832   20.4107 C.ar    1  UNL1        0.0032
      4 C           1.0509    0.8691   21.6360 C.ar    1  UNL1        0.0043
      5 C           0.7881    1.5489   22.9470 C.ar    1  UNL1        0.0611
      6 C          -0.2346    2.6427   23.0329 C.ar    1  UNL1        0.1723
      7 C           1.5480    1.1348   24.1722 C.3     1  UNL1        0.2194
      8 N           2.5708    0.0409   24.0862 N.pl3   1  UNL1       -0.2807
      9 C           3.3307   -0.3733   25.3114 C.3     1  UNL1        0.1147
     10 C           2.8336   -0.6389   22.7752 C.ar    1  UNL1        0.0498
     11 C           2.0737   -0.2248   21.5500 C.ar    1  UNL1        0.0133
     12 C           2.3366   -0.9046   20.2390 C.ar    1  UNL1        0.0012
     13 C           3.3593   -1.9985   20.1531 C.ar    1  UNL1        0.0002
     14 C           4.1192   -2.4126   21.3783 C.ar    1  UNL1        0.0044
     15 C           5.1420   -3.5065   21.2924 C.ar    1  UNL1        0.0402
     16 C           5.9019   -3.9206   22.5175 C.ar    1  UNL1        0.1764
     17 C           5.6391   -3.2408   23.8286 C.ar    1  UNL1        0.1765
     18 C           4.6163   -2.1469   23.9145 C.ar    1  UNL1        0.0414
     19 C           3.8564   -1.7328   22.6893 C.ar    1  UNL1        0.0166
     20 O           6.5367   -3.8588   24.8593 O.3     1  UNL1       -0.4346
     21 C           7.3543   -4.9205   24.1853 C.3     1  UNL1        0.4294
     22 O           6.9620   -4.9587   22.7380 O.3     1  UNL1       -0.4346
     23 C          -3.4773    3.8223   21.7911 C.3     1  UNL1        0.2526
     24 O          -2.0173    4.1508   21.8936 O.3     1  UNL1       -0.4684
     25 O          -0.4975    3.3226   24.3439 O.3     1  UNL1       -0.4686
     26 C          -1.7794    3.0644   25.0787 C.3     1  UNL1        0.2526
     27 O           1.2852    1.8145   25.4832 O.3     1  UNL1       -0.3313
     28 C           2.2524    2.8348   26.0062 C.3     1  UNL1        0.1764
@<TRIPOS>BOND
     1    23    24    1
     2    24     1    1
     3     1     2   ar
     4     2     3   ar
     5     3     4   ar
     6     4     5   ar
     7     5     6   ar
     8     6    25    1
     9    25    26    1
    10     5     7    1
    11     7    27    1
    12    27    28    1
    13     7     8    1
    14     8     9    1
    15     8    10    1
    16    10    11   ar
    17    11    12   ar
    18    12    13   ar
    19    13    14   ar
    20    14    15   ar
    21    15    16   ar
    22    16    17   ar
    23    17    18   ar
    24    18    19   ar
    25    17    20    1
    26    20    21    1
    27    21    22    1
    28     6     1   ar
    29    19    10   ar
    30    11     4    1
    31    19    14   ar
    32    22    16    1
@<TRIPOS>MOLECULE
*****
 28 32 0 0 0
SMALL
GASTEIGER

@<TRIPOS>ATOM
      1 C           4.4196   -2.9978   19.9044 C.ar    1  UNL1        0.1722
      2 C           3.3990   -2.0059   19.4304 C.ar    1  UNL1        0.0400
      3 C           2.7444   -1.0772   20.4097 C.ar    1  UNL1        0.0032
      4 C           3.1105   -1.1404   21.8630 C.ar    1  UNL1        0.0043
      5 C           4.1310   -2.1323   22.3371 C.ar    1  UNL1        0.0611
      6 C           4.7855   -3.0609   21.3577 C.ar    1  UNL1        0.1723
      7 C           4.4970   -2.1955   23.7903 C.3     1  UNL1        0.2194
      8 N           3.8424   -1.2668   24.7696 N.pl3   1  UNL1       -0.2807
      9 C           4.2083   -1.3299   26.2229 C.3     1  UNL1        0.1147
     10 C           2.8218   -0.2749   24.2956 C.ar    1  UNL1        0.0498
     11 C           2.4559   -0.2117   22.8423 C.ar    1  UNL1        0.0133
     12 C           1.4353    0.7802   22.3684 C.ar    1  UNL1        0.0012
     13 C           0.7807    1.7089   23.3477 C.ar    1  UNL1        0.0002
     14 C           1.1467    1.6457   24.8010 C.ar    1  UNL1        0.0044
     15 C           0.4921    2.5744   25.7803 C.ar    1  UNL1        0.0402
     16 C           0.8581    2.5112   27.2336 C.ar    1  UNL1        0.1764
     17 C           1.8786    1.5193   27.7076 C.ar    1  UNL1        0.1765
     18 C           2.5332    0.5906   26.7283 C.ar    1  UNL1        0.0414
     19 C           2.1672    0.6539   25.2750 C.ar    1  UNL1        0.0166
     20 O           2.0355    1.6881   29.1898 O.3     1  UNL1       -0.4346
     21 C           1.1119    2.7842   29.6318 C.3     1  UNL1        0.4294
     22 O           0.3842    3.2930   28.4228 O.3     1  UNL1       -0.4346
     23 C           4.5504   -5.3210   18.7486 C.3     1  UNL1        0.2526
     24 O           5.0742   -3.9265   18.9251 O.3     1  UNL1       -0.4684
     25 O           5.8061   -4.0529   21.8317 O.3     1  UNL1       -0.4686
     26 C           7.2238   -3.9580   21.3509 C.3     1  UNL1        0.2526
     27 O           5.5175   -3.1873   24.2644 O.3     1  UNL1       -0.3313
     28 C           6.8408   -2.7108   24.7857 C.3     1  UNL1        0.1764
@<TRIPOS>BOND
     1    23    24    1
     2    24     1    1
     3     1     2   ar
     4     2     3   ar
     5     3     4   ar
     6     4     5   ar
     7     5     6   ar
     8     6    25    1
     9    25    26    1
    10     5     7    1
    11     7    27    1
    12    27    28    1
    13     7     8    1
    14     8     9    1
    15     8    10    1
    16    10    11   ar
    17    11    12   ar
    18    12    13   ar
    19    13    14   ar
    20    14    15   ar
    21    15    16   ar
    22    16    17   ar
    23    17    18   ar
    24    18    19   ar
    25    17    20    1
    26    20    21    1
    27    21    22    1
    28     6     1   ar
    29    19    10   ar
    30    11     4    1
    31    19    14   ar
    32    22    16    1
@<TRIPOS>MOLECULE
*****
 28 32 0 0 0
SMALL
GASTEIGER

@<TRIPOS>ATOM
      1 C           6.9860   -4.2709   24.7412 C.ar    1  UNL1        0.1722
      2 C           6.7819   -4.6298   23.2991 C.ar    1  UNL1        0.0400
      3 C           5.7779   -3.8801   22.4745 C.ar    1  UNL1        0.0032
      4 C           4.9779   -2.7716   23.0921 C.ar    1  UNL1        0.0043
      5 C           5.1820   -2.4127   24.5342 C.ar    1  UNL1        0.0611
      6 C           6.1861   -3.1624   25.3587 C.ar    1  UNL1        0.1723
      7 C           4.3821   -1.3042   25.1516 C.3     1  UNL1        0.2194
      8 N           3.3781   -0.5545   24.3270 N.pl3   1  UNL1       -0.2807
      9 C           2.5781    0.5540   24.9445 C.3     1  UNL1        0.1147
     10 C           3.1740   -0.9134   22.8850 C.ar    1  UNL1        0.0498
     11 C           3.9739   -2.0219   22.2675 C.ar    1  UNL1        0.0133
     12 C           3.7698   -2.3808   20.8254 C.ar    1  UNL1        0.0012
     13 C           2.7657   -1.6311   20.0008 C.ar    1  UNL1        0.0002
     14 C           1.9658   -0.5226   20.6184 C.ar    1  UNL1        0.0044
     15 C           0.9618    0.2271   19.7938 C.ar    1  UNL1        0.0402
     16 C           0.1618    1.3356   20.4112 C.ar    1  UNL1        0.1764
     17 C           0.3659    1.6945   21.8533 C.ar    1  UNL1        0.1765
     18 C           1.3699    0.9448   22.6779 C.ar    1  UNL1        0.0414
     19 C           2.1699   -0.1637   22.0603 C.ar    1  UNL1        0.0166
     20 O          -0.5615    2.8257   22.1853 O.3     1  UNL1       -0.4346
     21 C          -1.3388    3.1659   20.9483 C.3     1  UNL1        0.4294
     22 O          -0.8918    2.2450   19.8519 O.3     1  UNL1       -0.4346
     23 C           7.5533   -6.1874   26.4012 C.3     1  UNL1        0.2526
     24 O           7.9900   -5.0205   25.5658 O.3     1  UNL1       -0.4684
     25 O           6.3902   -2.8035   26.8008 O.3     1  UNL1       -0.4686
     26 C           7.6634   -2.1402   27.2355 C.3     1  UNL1        0.2526
     27 O           4.5862   -0.9453   26.5937 O.3     1  UNL1       -0.3313
     28 C           3.5359   -1.2889   27.6080 C.3     1  UNL1        0.1764
@<TRIPOS>BOND
     1    23    24    1
     2    24     1    1
     3     1     2   ar
     4     2     3   ar
     5     3     4   ar
     6     4     5   ar
     7     5     6   ar
     8     6    25    1
     9    25    26    1
    10     5     7    1
    11     7    27    1
    12    27    28    1
    13     7     8    1
    14     8     9    1
    15     8    10    1
    16    10    11   ar
    17    11    12   ar
    18    12    13   ar
    19    13    14   ar
    20    14    15   ar
    21    15    16   ar
    22    16    17   ar
    23    17    18   ar
    24    18    19   ar
    25    17    20    1
    26    20    21    1
    27    21    22    1
    28     6     1   ar
    29    19    10   ar
    30    11     4    1
    31    19    14   ar
    32    22    16    1
@<TRIPOS>MOLECULE
*****
 28 32 0 0 0
SMALL
GASTEIGER

@<TRIPOS>ATOM
      1 C           8.1584   -4.9248   26.3408 C.ar    1  UNL1        0.1722
      2 C           8.2101   -5.5220   24.9658 C.ar    1  UNL1        0.0400
      3 C           7.3231   -4.9861   23.8814 C.ar    1  UNL1        0.0032
      4 C           6.3843   -3.8528   24.1721 C.ar    1  UNL1        0.0043
      5 C           6.3326   -3.2555   25.5471 C.ar    1  UNL1        0.0611
      6 C           7.2196   -3.7916   26.6314 C.ar    1  UNL1        0.1723
      7 C           5.3938   -2.1223   25.8377 C.3     1  UNL1        0.2194
      8 N           4.5068   -1.5863   24.7534 N.pl3   1  UNL1       -0.2807
      9 C           3.5680   -0.4531   25.0440 C.3     1  UNL1        0.1147
     10 C           4.5585   -2.1835   23.3784 C.ar    1  UNL1        0.0498
     11 C           5.4973   -3.3168   23.0877 C.ar    1  UNL1        0.0133
     12 C           5.5490   -3.9140   21.7127 C.ar    1  UNL1        0.0012
     13 C           4.6619   -3.3780   20.6283 C.ar    1  UNL1        0.0002
     14 C           3.7231   -2.2447   20.9190 C.ar    1  UNL1        0.0044
     15 C           2.8361   -1.7087   19.8346 C.ar    1  UNL1        0.0402
     16 C           1.8974   -0.5755   20.1253 C.ar    1  UNL1        0.1764
     17 C           1.8456    0.0218   21.5003 C.ar    1  UNL1        0.1765
     18 C           2.7326   -0.5142   22.5846 C.ar    1  UNL1        0.0414
     19 C           3.6714   -1.6475   22.2939 C.ar    1  UNL1        0.0166
     20 O           0.8271    1.1229   21.4894 O.3     1  UNL1       -0.4346
     21 C           0.2494    1.2062   20.1076 C.3     1  UNL1        0.4294
     22 O           0.9108    0.1565   19.2645 O.3     1  UNL1       -0.4346
     23 C           8.7256   -6.7743   28.0751 C.3     1  UNL1        0.2526
     24 O           9.0454   -5.4608   27.4251 O.3     1  UNL1       -0.4684
     25 O           7.1680   -3.1944   28.0064 O.3     1  UNL1       -0.4686
     26 C           6.5361   -3.9579   29.1324 C.3     1  UNL1        0.2526
     27 O           5.3421   -1.5250   27.2127 O.3     1  UNL1       -0.3313
     28 C           6.0152   -0.2127   27.4862 C.3     1  UNL1        0.1764
@<TRIPOS>BOND
     1    23    24    1
     2    24     1    1
     3     1     2   ar
     4     2     3   ar
     5     3     4   ar
     6     4     5   ar
     7     5     6   ar
     8     6    25    1
     9    25    26    1
    10     5     7    1
    11     7    27    1
    12    27    28    1
    13     7     8    1
    14     8     9    1
    15     8    10    1
    16    10    11   ar
    17    11    12   ar
    18    12    13   ar
    19    13    14   ar
    20    14    15   ar
    21    15    16   ar
    22    16    17   ar
    23    17    18   ar
    24    18    19   ar
    25    17    20    1
    26    20    21    1
    27    21    22    1
    28     6     1   ar
    29    19    10   ar
    30    11     4    1
    31    19    14   ar
    32    22    16    1
@<TRIPOS>MOLECULE
*****
 28 32 0 0 0
SMALL
GASTEIGER

@<TRIPOS>ATOM
      1 C           5.6284   -1.6816   30.1757 C.ar    1  UNL1        0.1722
      2 C           4.5957   -0.7227   29.6619 C.ar    1  UNL1        0.0400
      3 C           4.2362   -0.7169   28.2056 C.ar    1  UNL1        0.0032
      4 C           4.9096   -1.6700   27.2632 C.ar    1  UNL1        0.0043
      5 C           5.9424   -2.6289   27.7769 C.ar    1  UNL1        0.0611
      6 C           6.3017   -2.6347   29.2332 C.ar    1  UNL1        0.1723
      7 C           6.6157   -3.5820   26.8345 C.3     1  UNL1        0.2194
      8 N           6.2563   -3.5761   25.3782 N.pl3   1  UNL1       -0.2807
      9 C           6.9297   -4.5292   24.4357 C.3     1  UNL1        0.1147
     10 C           5.2236   -2.6172   24.8644 C.ar    1  UNL1        0.0498
     11 C           4.5502   -1.6642   25.8069 C.ar    1  UNL1        0.0133
     12 C           3.5175   -0.7053   25.2930 C.ar    1  UNL1        0.0012
     13 C           3.1581   -0.6994   23.8367 C.ar    1  UNL1        0.0002
     14 C           3.8315   -1.6526   22.8942 C.ar    1  UNL1        0.0044
     15 C           3.4721   -1.6467   21.4380 C.ar    1  UNL1        0.0402
     16 C           4.1454   -2.5998   20.4955 C.ar    1  UNL1        0.1764
     17 C           5.1781   -3.5587   21.0093 C.ar    1  UNL1        0.1765
     18 C           5.5375   -3.5645   22.4655 C.ar    1  UNL1        0.0414
     19 C           4.8641   -2.6114   23.4080 C.ar    1  UNL1        0.0166
     20 O           5.6697   -4.3751   19.8509 O.3     1  UNL1       -0.4346
     21 C           4.9407   -3.9208   18.6212 C.3     1  UNL1        0.4294
     22 O           3.9986   -2.8236   19.0195 O.3     1  UNL1       -0.4346
     23 C           5.0685   -2.3287   32.6289 C.3     1  UNL1        0.2526
     24 O           5.9878   -1.6875   31.6320 O.3     1  UNL1       -0.4684
     25 O           7.3345   -3.5936   29.7471 O.3     1  UNL1       -0.4686
     26 C           6.9132   -4.7972   30.5368 C.3     1  UNL1        0.2526
     27 O           7.6485   -4.5408   27.3482 O.3     1  UNL1       -0.3313
     28 C           9.1043   -4.2799   27.0985 C.3     1  UNL1        0.1764
@<TRIPOS>BOND
     1    23    24    1
     2    24     1    1
     3     1     2   ar
     4     2     3   ar
     5     3     4   ar
     6     4     5   ar
     7     5     6   ar
     8     6    25    1
     9    25    26    1
    10     5     7    1
    11     7    27    1
    12    27    28    1
    13     7     8    1
    14     8     9    1
    15     8    10    1
    16    10    11   ar
    17    11    12   ar
    18    12    13   ar
    19    13    14   ar
    20    14    15   ar
    21    15    16   ar
    22    16    17   ar
    23    17    18   ar
    24    18    19   ar
    25    17    20    1
    26    20    21    1
    27    21    22    1
    28     6     1   ar
    29    19    10   ar
    30    11     4    1
    31    19    14   ar
    32    22    16    1
@<TRIPOS>MOLECULE
*****
 28 32 0 0 0
SMALL
GASTEIGER

@<TRIPOS>ATOM
      1 C           5.3286   -3.5116   21.3161 C.ar    1  UNL1        0.1722
      2 C           4.7189   -3.2030   19.9808 C.ar    1  UNL1        0.0400
      3 C           3.6553   -2.1514   19.8670 C.ar    1  UNL1        0.0032
      4 C           3.2015   -1.4084   21.0885 C.ar    1  UNL1        0.0043
      5 C           3.8112   -1.7170   22.4238 C.ar    1  UNL1        0.0611
      6 C           4.8747   -2.7686   22.5376 C.ar    1  UNL1        0.1723
      7 C           3.3574   -0.9740   23.6453 C.3     1  UNL1        0.2194
      8 N           2.2938    0.0776   23.5314 N.pl3   1  UNL1       -0.2807
      9 C           1.8400    0.8206   24.7529 C.3     1  UNL1        0.1147
     10 C           1.6841    0.3862   22.1961 C.ar    1  UNL1        0.0498
     11 C           2.1379   -0.3568   20.9747 C.ar    1  UNL1        0.0133
     12 C           1.5281   -0.0481   19.6394 C.ar    1  UNL1        0.0012
     13 C           0.4646    1.0034   19.5255 C.ar    1  UNL1        0.0002
     14 C           0.0107    1.7464   20.7471 C.ar    1  UNL1        0.0044
     15 C          -1.0528    2.7980   20.6333 C.ar    1  UNL1        0.0402
     16 C          -1.5067    3.5410   21.8547 C.ar    1  UNL1        0.1764
     17 C          -0.8969    3.2324   23.1900 C.ar    1  UNL1        0.1765
     18 C           0.1666    2.1808   23.3039 C.ar    1  UNL1        0.0414
     19 C           0.6204    1.4378   22.0823 C.ar    1  UNL1        0.0166
     20 O          -1.5417    4.1224   24.2109 O.3     1  UNL1       -0.4346
     21 C          -2.5499    4.9811   23.5065 C.3     1  UNL1        0.4294
     22 O          -2.5283    4.6218   22.0503 O.3     1  UNL1       -0.4346
     23 C           7.7677   -4.3000   20.8927 C.3     1  UNL1        0.2526
     24 O           6.3922   -4.5631   21.4300 O.3     1  UNL1       -0.4684
     25 O           5.4845   -3.0772   23.8729 O.3     1  UNL1       -0.4686
     26 C           6.9278   -2.7592   24.1297 C.3     1  UNL1        0.2526
     27 O           3.9671   -1.2826   24.9806 O.3     1  UNL1       -0.3313
     28 C           4.8414   -0.2694   25.6580 C.3     1  UNL1        0.1764
@<TRIPOS>BOND
     1    23    24    1
     2    24     1    1
     3     1     2   ar
     4     2     3   ar
     5     3     4   ar
     6     4     5   ar
     7     5     6   ar
     8     6    25    1
     9    25    26    1
    10     5     7    1
    11     7    27    1
    12    27    28    1
    13     7     8    1
    14     8     9    1
    15     8    10    1
    16    10    11   ar
    17    11    12   ar
    18    12    13   ar
    19    13    14   ar
    20    14    15   ar
    21    15    16   ar
    22    16    17   ar
    23    17    18   ar
    24    18    19   ar
    25    17    20    1
    26    20    21    1
    27    21    22    1
    28     6     1   ar
    29    19    10   ar
    30    11     4    1
    31    19    14   ar
    32    22    16    1
