@<TRIPOS>MOLECULE
*****
 32 36 0 0 0
SMALL
GASTEIGER

@<TRIPOS>ATOM
      1 O         -10.9286  -20.4288   21.8825 O.2     1  UNL1       -0.2695
      2 C          -9.9890  -19.3434   22.3173 C.2     1  UNL1        0.2538
      3 N         -10.4552  -18.2865   23.2742 N.am    1  UNL1       -0.2400
      4 C          -9.5155  -17.2012   23.7089 C.ar    1  UNL1        0.1482
      5 N          -8.9362  -17.2204   25.0923 N.ar    1  UNL1       -0.2279
      6 C          -7.9965  -16.1350   25.5270 C.ar    1  UNL1        0.1004
      7 C          -7.6362  -15.0305   24.5782 C.ar    1  UNL1        0.0216
      8 C          -8.2155  -15.0113   23.1947 C.ar    1  UNL1        0.0158
      9 C          -9.1552  -16.0966   22.7601 C.ar    1  UNL1        0.0896
     10 CL         -9.7346  -16.0774   21.3766 Cl      1  UNL1       -0.0793
     11 C         -11.8612  -18.3150   23.7963 C.3     1  UNL1        0.0972
     12 C         -12.9877  -17.8087   22.9450 C.3     1  UNL1        0.0231
     13 C         -14.3936  -17.8372   23.4670 C.3     1  UNL1        0.0188
     14 C         -14.6730  -18.3720   24.8403 C.3     1  UNL1        0.0687
     15 N         -13.5465  -18.8783   25.6915 N.3     1  UNL1       -0.2961
     16 C         -12.1406  -18.8499   25.1695 C.3     1  UNL1        0.0890
     17 H         -13.7588  -19.8512   25.9127 H       1  UNL1        0.1233
     18 C          -8.5831  -19.3150   21.7952 C.ar    1  UNL1        0.0540
     19 C          -8.3327  -19.1865   20.3218 C.ar    1  UNL1        0.0061
     20 C          -6.9268  -19.1581   19.7997 C.ar    1  UNL1        0.0194
     21 C          -5.7712  -19.2581   20.7510 C.ar    1  UNL1        0.0861
     22 C          -6.0217  -19.3866   22.2242 C.ar    1  UNL1        0.0194
     23 C          -7.4276  -19.4150   22.7464 C.ar    1  UNL1        0.0061
     24 N          -4.3653  -19.2297   20.2288 N.ar    1  UNL1       -0.1930
     25 N          -3.7769  -20.1800   19.2285 N.ar    1  UNL1       -0.0582
     26 N          -2.3489  -19.7836   18.9969 N.ar    1  UNL1       -0.1268
     27 C          -2.0548  -18.5882   19.8540 C.ar    1  UNL1        0.1402
     28 C          -0.8132  -17.7673   20.0395 C.ar    1  UNL1        0.0257
     29 C          -0.8178  -16.6040   20.9864 C.ar    1  UNL1        0.0224
     30 C          -2.0640  -16.2617   21.7478 C.ar    1  UNL1        0.1007
     31 N          -3.3056  -17.0826   21.5623 N.ar    1  UNL1       -0.2236
     32 C          -3.3010  -18.2459   20.6154 C.ar    1  UNL1        0.1848
@<TRIPOS>BOND
     1     1     2    2
     2     2    18    1
     3    18    19   ar
     4    19    20   ar
     5    20    21   ar
     6    21    24    1
     7    24    25   ar
     8    25    26   ar
     9    26    27   ar
    10    27    28   ar
    11    28    29   ar
    12    29    30   ar
    13    30    31   ar
    14    31    32   ar
    15    21    22   ar
    16    22    23   ar
    17     2     3   am
    18     3     4    1
    19     4     5   ar
    20     5     6   ar
    21     6     7   ar
    22     7     8   ar
    23     8     9   ar
    24     9    10    1
    25    11     3    1
    26    11    12    1
    27    12    13    1
    28    13    14    1
    29    14    15    1
    30    15    16    1
    31    23    18   ar
    32     9     4   ar
    33    16    11    1
    34    32    24   ar
    35    32    27   ar
    36    15    17    1
@<TRIPOS>MOLECULE
*****
 32 36 0 0 0
SMALL
GASTEIGER

@<TRIPOS>ATOM
      1 O          -9.9953  -19.7620   25.2823 O.2     1  UNL1       -0.2695
      2 C          -9.9230  -19.1086   23.9341 C.2     1  UNL1        0.2538
      3 N         -11.1417  -18.4580   23.3496 N.am    1  UNL1       -0.2400
      4 C         -11.0694  -17.8046   22.0014 C.ar    1  UNL1        0.1482
      5 N         -10.9789  -16.3111   21.8956 N.ar    1  UNL1       -0.2279
      6 C         -10.9066  -15.6578   20.5473 C.ar    1  UNL1        0.1004
      7 C         -10.9247  -16.4979   19.3048 C.ar    1  UNL1        0.0216
      8 C         -11.0152  -17.9915   19.4106 C.ar    1  UNL1        0.0158
      9 C         -11.0875  -18.6448   20.7589 C.ar    1  UNL1        0.0896
     10 CL        -11.1780  -20.1383   20.8646 Cl      1  UNL1       -0.0793
     11 C         -12.4327  -18.4609   24.1135 C.3     1  UNL1        0.0972
     12 C         -13.7218  -18.1589   23.4086 C.3     1  UNL1        0.0231
     13 C         -15.0128  -18.1618   24.1724 C.3     1  UNL1        0.0188
     14 C         -15.0146  -18.4666   25.6410 C.3     1  UNL1        0.0687
     15 N         -13.7254  -18.7686   26.3459 N.3     1  UNL1       -0.2961
     16 C         -12.4344  -18.7657   25.5822 C.3     1  UNL1        0.0890
     17 H         -13.8238  -19.6981   26.7543 H       1  UNL1        0.1233
     18 C          -8.6321  -19.1057   23.1703 C.ar    1  UNL1        0.0540
     19 C          -7.9505  -17.8075   22.8542 C.ar    1  UNL1        0.0061
     20 C          -6.6595  -17.8046   22.0905 C.ar    1  UNL1        0.0194
     21 C          -6.0501  -19.1001   21.6427 C.ar    1  UNL1        0.0861
     22 C          -6.7317  -20.3983   21.9588 C.ar    1  UNL1        0.0194
     23 C          -8.0227  -20.4012   22.7226 C.ar    1  UNL1        0.0061
     24 N          -4.7591  -19.0973   20.8789 N.ar    1  UNL1       -0.1930
     25 N          -4.3858  -20.0416   19.7749 N.ar    1  UNL1       -0.0582
     26 N          -3.0107  -19.6775   19.2987 N.ar    1  UNL1       -0.1268
     27 C          -2.5342  -18.5083   20.1085 C.ar    1  UNL1        0.1402
     28 C          -1.2560  -17.7238   20.0828 C.ar    1  UNL1        0.0257
     29 C          -1.0583  -16.5807   21.0337 C.ar    1  UNL1        0.0224
     30 C          -2.1389  -16.2221   22.0103 C.ar    1  UNL1        0.1007
     31 N          -3.4171  -17.0066   22.0360 N.ar    1  UNL1       -0.2236
     32 C          -3.6148  -18.1497   21.0852 C.ar    1  UNL1        0.1848
@<TRIPOS>BOND
     1     1     2    2
     2     2    18    1
     3    18    19   ar
     4    19    20   ar
     5    20    21   ar
     6    21    24    1
     7    24    25   ar
     8    25    26   ar
     9    26    27   ar
    10    27    28   ar
    11    28    29   ar
    12    29    30   ar
    13    30    31   ar
    14    31    32   ar
    15    21    22   ar
    16    22    23   ar
    17     2     3   am
    18     3     4    1
    19     4     5   ar
    20     5     6   ar
    21     6     7   ar
    22     7     8   ar
    23     8     9   ar
    24     9    10    1
    25    11     3    1
    26    11    12    1
    27    12    13    1
    28    13    14    1
    29    14    15    1
    30    15    16    1
    31    23    18   ar
    32     9     4   ar
    33    16    11    1
    34    32    24   ar
    35    32    27   ar
    36    15    17    1
@<TRIPOS>MOLECULE
*****
 32 36 0 0 0
SMALL
GASTEIGER

@<TRIPOS>ATOM
      1 O           3.1026   -0.9121   23.6508 O.2     1  UNL1       -0.2695
      2 C           3.2998   -0.5775   22.2020 C.2     1  UNL1        0.2538
      3 N           4.4681   -1.1466   21.4530 N.am    1  UNL1       -0.2400
      4 C           4.6651   -0.8119   20.0042 C.ar    1  UNL1        0.1482
      5 N           5.4994    0.3723   19.6147 N.ar    1  UNL1       -0.2279
      6 C           5.6964    0.7069   18.1659 C.ar    1  UNL1        0.1004
      7 C           5.0592   -0.1426   17.1065 C.ar    1  UNL1        0.0216
      8 C           4.2249   -1.3268   17.4960 C.ar    1  UNL1        0.0158
      9 C           4.0279   -1.6614   18.9448 C.ar    1  UNL1        0.0896
     10 CL          3.1936   -2.8456   19.3343 Cl      1  UNL1       -0.0793
     11 C           5.4393   -2.0505   22.1529 C.3     1  UNL1        0.0972
     12 C           6.5541   -1.4656   22.9686 C.3     1  UNL1        0.0231
     13 C           7.5253   -2.3694   23.6685 C.3     1  UNL1        0.0188
     14 C           7.3818   -3.8579   23.5527 C.3     1  UNL1        0.0687
     15 N           6.2671   -4.4428   22.7370 N.3     1  UNL1       -0.2961
     16 C           5.2958   -3.5390   22.0371 C.3     1  UNL1        0.0890
     17 H           5.7207   -5.0324   23.3650 H       1  UNL1        0.1233
     18 C           2.3285    0.3264   21.5022 C.ar    1  UNL1        0.0540
     19 C           2.5534    1.8094   21.4979 C.ar    1  UNL1        0.0061
     20 C           1.5821    2.7133   20.7981 C.ar    1  UNL1        0.0194
     21 C           0.3859    2.1340   20.1026 C.ar    1  UNL1        0.0861
     22 C           0.1611    0.6510   20.1069 C.ar    1  UNL1        0.0194
     23 C           1.1323   -0.2528   20.8067 C.ar    1  UNL1        0.0061
     24 N          -0.5854    3.0379   19.4028 N.ar    1  UNL1       -0.1930
     25 N          -0.3192    3.8159   18.1483 N.ar    1  UNL1       -0.0582
     26 N          -1.5627    4.5812   17.8049 N.ar    1  UNL1       -0.1268
     27 C          -2.5974    4.2762   18.8471 C.ar    1  UNL1        0.1402
     28 C          -4.0116    4.7437   19.0244 C.ar    1  UNL1        0.0257
     29 C          -4.8218    4.2574   20.1893 C.ar    1  UNL1        0.0224
     30 C          -4.2178    3.3035   21.1769 C.ar    1  UNL1        0.1007
     31 N          -2.8036    2.8360   20.9996 N.ar    1  UNL1       -0.2236
     32 C          -1.9935    3.3223   19.8347 C.ar    1  UNL1        0.1848
@<TRIPOS>BOND
     1     1     2    2
     2     2    18    1
     3    18    19   ar
     4    19    20   ar
     5    20    21   ar
     6    21    24    1
     7    24    25   ar
     8    25    26   ar
     9    26    27   ar
    10    27    28   ar
    11    28    29   ar
    12    29    30   ar
    13    30    31   ar
    14    31    32   ar
    15    21    22   ar
    16    22    23   ar
    17     2     3   am
    18     3     4    1
    19     4     5   ar
    20     5     6   ar
    21     6     7   ar
    22     7     8   ar
    23     8     9   ar
    24     9    10    1
    25    11     3    1
    26    11    12    1
    27    12    13    1
    28    13    14    1
    29    14    15    1
    30    15    16    1
    31    23    18   ar
    32     9     4   ar
    33    16    11    1
    34    32    24   ar
    35    32    27   ar
    36    15    17    1
@<TRIPOS>MOLECULE
*****
 32 36 0 0 0
SMALL
GASTEIGER

@<TRIPOS>ATOM
      1 O           4.7185    2.0702   22.4110 O.2     1  UNL1       -0.2695
      2 C           4.8832    0.7322   21.7533 C.2     1  UNL1        0.2538
      3 N           4.5829    0.5725   20.2924 N.am    1  UNL1       -0.2400
      4 C           4.7477   -0.7656   19.6348 C.ar    1  UNL1        0.1482
      5 N           6.0555   -1.1326   18.9985 N.ar    1  UNL1       -0.2279
      6 C           6.2202   -2.4707   18.3410 C.ar    1  UNL1        0.1004
      7 C           5.0771   -3.4417   18.3197 C.ar    1  UNL1        0.0216
      8 C           3.7693   -3.0746   18.9559 C.ar    1  UNL1        0.0158
      9 C           3.6046   -1.7366   19.6135 C.ar    1  UNL1        0.0896
     10 CL          2.2968   -1.3695   20.2498 Cl      1  UNL1       -0.0793
     11 C           4.1179    1.7509   19.4891 C.3     1  UNL1        0.0972
     12 C           2.6636    2.1174   19.4684 C.3     1  UNL1        0.0231
     13 C           2.1985    3.2958   18.6651 C.3     1  UNL1        0.0188
     14 C           3.1878    4.1075   17.8827 C.3     1  UNL1        0.0687
     15 N           4.6422    3.7410   17.9035 N.3     1  UNL1       -0.2961
     16 C           5.1073    2.5626   18.7067 C.3     1  UNL1        0.0890
     17 H           5.1459    4.5549   18.2559 H       1  UNL1        0.1233
     18 C           5.3482   -0.4461   22.5567 C.ar    1  UNL1        0.0540
     19 C           4.3474   -1.3289   23.2415 C.ar    1  UNL1        0.0061
     20 C           4.8124   -2.5072   24.0449 C.ar    1  UNL1        0.0194
     21 C           6.2783   -2.8028   24.1633 C.ar    1  UNL1        0.0861
     22 C           7.2790   -1.9200   23.4785 C.ar    1  UNL1        0.0194
     23 C           6.8140   -0.7416   22.6751 C.ar    1  UNL1        0.0061
     24 N           6.7433   -3.9811   24.9667 N.ar    1  UNL1       -0.1930
     25 N           6.5135   -4.1941   26.4336 N.ar    1  UNL1       -0.0582
     26 N           7.1479   -5.4979   26.8176 N.ar    1  UNL1       -0.1268
     27 C           7.7699   -6.0907   25.5880 C.ar    1  UNL1        0.1402
     28 C           8.5316   -7.3630   25.3623 C.ar    1  UNL1        0.0257
     29 C           9.0432   -7.6979   23.9926 C.ar    1  UNL1        0.0224
     30 C           8.7931   -6.7604   22.8486 C.ar    1  UNL1        0.1007
     31 N           8.0314   -5.4881   23.0744 N.ar    1  UNL1       -0.2236
     32 C           7.5198   -5.1533   24.4441 C.ar    1  UNL1        0.1848
@<TRIPOS>BOND
     1     1     2    2
     2     2    18    1
     3    18    19   ar
     4    19    20   ar
     5    20    21   ar
     6    21    24    1
     7    24    25   ar
     8    25    26   ar
     9    26    27   ar
    10    27    28   ar
    11    28    29   ar
    12    29    30   ar
    13    30    31   ar
    14    31    32   ar
    15    21    22   ar
    16    22    23   ar
    17     2     3   am
    18     3     4    1
    19     4     5   ar
    20     5     6   ar
    21     6     7   ar
    22     7     8   ar
    23     8     9   ar
    24     9    10    1
    25    11     3    1
    26    11    12    1
    27    12    13    1
    28    13    14    1
    29    14    15    1
    30    15    16    1
    31    23    18   ar
    32     9     4   ar
    33    16    11    1
    34    32    24   ar
    35    32    27   ar
    36    15    17    1
@<TRIPOS>MOLECULE
*****
 32 36 0 0 0
SMALL
GASTEIGER

@<TRIPOS>ATOM
      1 O           3.7926   -1.5618   23.5673 O.2     1  UNL1       -0.2695
      2 C           3.7249   -1.0458   22.1605 C.2     1  UNL1        0.2538
      3 N           4.7915   -1.4168   21.1733 N.am    1  UNL1       -0.2400
      4 C           4.7237   -0.9007   19.7665 C.ar    1  UNL1        0.1482
      5 N           5.2839    0.4509   19.4357 N.ar    1  UNL1       -0.2279
      6 C           5.2161    0.9669   18.0289 C.ar    1  UNL1        0.1004
      7 C           4.5881    0.1314   16.9530 C.ar    1  UNL1        0.0216
      8 C           4.0279   -1.2202   17.2838 C.ar    1  UNL1        0.0158
      9 C           4.0958   -1.7362   18.6906 C.ar    1  UNL1        0.0896
     10 CL          3.5356   -3.0878   19.0215 Cl      1  UNL1       -0.0793
     11 C           5.9259   -2.3040   21.5930 C.3     1  UNL1        0.0972
     12 C           7.2860   -1.7190   21.8337 C.3     1  UNL1        0.0231
     13 C           8.4205   -2.6061   22.2534 C.3     1  UNL1        0.0188
     14 C           8.1947   -4.0781   22.4323 C.3     1  UNL1        0.0687
     15 N           6.8347   -4.6631   22.1916 N.3     1  UNL1       -0.2961
     16 C           5.7002   -3.7760   21.7719 C.3     1  UNL1        0.0890
     17 H           6.5499   -5.1138   23.0611 H       1  UNL1        0.1233
     18 C           2.5904   -0.1586   21.7409 C.ar    1  UNL1        0.0540
     19 C           1.4925   -0.7034   20.8763 C.ar    1  UNL1        0.0061
     20 C           0.3581    0.1838   20.4567 C.ar    1  UNL1        0.0194
     21 C           0.3216    1.6158   20.9018 C.ar    1  UNL1        0.0861
     22 C           1.4196    2.1605   21.7664 C.ar    1  UNL1        0.0194
     23 C           2.5540    1.2734   22.1860 C.ar    1  UNL1        0.0061
     24 N          -0.8128    2.5030   20.4822 N.ar    1  UNL1       -0.1930
     25 N          -2.0223    2.8360   21.3045 N.ar    1  UNL1       -0.0582
     26 N          -2.8939    3.7517   20.4971 N.ar    1  UNL1       -0.1268
     27 C          -2.2230    3.9846   19.1759 C.ar    1  UNL1        0.1402
     28 C          -2.6171    4.7998   17.9800 C.ar    1  UNL1        0.0257
     29 C          -1.7251    4.8432   16.7750 C.ar    1  UNL1        0.0224
     30 C          -0.4389    4.0714   16.7657 C.ar    1  UNL1        0.1007
     31 N          -0.0447    3.2563   17.9616 N.ar    1  UNL1       -0.2236
     32 C          -0.9368    3.2129   19.1667 C.ar    1  UNL1        0.1848
@<TRIPOS>BOND
     1     1     2    2
     2     2    18    1
     3    18    19   ar
     4    19    20   ar
     5    20    21   ar
     6    21    24    1
     7    24    25   ar
     8    25    26   ar
     9    26    27   ar
    10    27    28   ar
    11    28    29   ar
    12    29    30   ar
    13    30    31   ar
    14    31    32   ar
    15    21    22   ar
    16    22    23   ar
    17     2     3   am
    18     3     4    1
    19     4     5   ar
    20     5     6   ar
    21     6     7   ar
    22     7     8   ar
    23     8     9   ar
    24     9    10    1
    25    11     3    1
    26    11    12    1
    27    12    13    1
    28    13    14    1
    29    14    15    1
    30    15    16    1
    31    23    18   ar
    32     9     4   ar
    33    16    11    1
    34    32    24   ar
    35    32    27   ar
    36    15    17    1
@<TRIPOS>MOLECULE
*****
 32 36 0 0 0
SMALL
GASTEIGER

@<TRIPOS>ATOM
      1 O           4.9555    1.5747   30.6735 O.2     1  UNL1       -0.2695
      2 C           3.7178    1.3142   29.8673 C.2     1  UNL1        0.2538
      3 N           2.3759    1.7202   30.4007 N.am    1  UNL1       -0.2400
      4 C           1.1382    1.4597   29.5944 C.ar    1  UNL1        0.1482
      5 N           0.3692    0.1869   29.7908 N.ar    1  UNL1       -0.2279
      6 C          -0.8685   -0.0736   28.9845 C.ar    1  UNL1        0.1004
      7 C          -1.3372    0.9387   27.9817 C.ar    1  UNL1        0.0216
      8 C          -0.5682    2.2115   27.7852 C.ar    1  UNL1        0.0158
      9 C           0.6695    2.4720   28.5916 C.ar    1  UNL1        0.0896
     10 CL          1.4385    3.7448   28.3951 Cl      1  UNL1       -0.0793
     11 C           2.2718    2.3868   31.7404 C.3     1  UNL1        0.0972
     12 C           2.2983    3.8834   31.8375 C.3     1  UNL1        0.0231
     13 C           2.1942    4.5501   33.1772 C.3     1  UNL1        0.0188
     14 C           2.0637    3.7200   34.4198 C.3     1  UNL1        0.0687
     15 N           2.0372    2.2234   34.3227 N.3     1  UNL1       -0.2961
     16 C           2.1413    1.5568   32.9830 C.3     1  UNL1        0.0890
     17 H           1.1567    1.9170   34.7364 H       1  UNL1        0.1233
     18 C           3.8219    0.6476   28.5276 C.ar    1  UNL1        0.0540
     19 C           3.6666   -0.8401   28.4160 C.ar    1  UNL1        0.0061
     20 C           3.7708   -1.5067   27.0762 C.ar    1  UNL1        0.0194
     21 C           4.0303   -0.6854   25.8481 C.ar    1  UNL1        0.0861
     22 C           4.1856    0.8022   25.9597 C.ar    1  UNL1        0.0194
     23 C           4.0815    1.4688   27.2995 C.ar    1  UNL1        0.0061
     24 N           4.1345   -1.3520   24.5083 N.ar    1  UNL1       -0.1930
     25 N           4.9926   -2.5369   24.1775 N.ar    1  UNL1       -0.0582
     26 N           4.7872   -2.8679   22.7289 N.ar    1  UNL1       -0.1268
     27 C           3.8022   -1.8875   22.1645 C.ar    1  UNL1        0.1402
     28 C           3.2204   -1.7268   20.7913 C.ar    1  UNL1        0.0257
     29 C           2.2353   -0.6293   20.5179 C.ar    1  UNL1        0.0224
     30 C           1.8318    0.3076   21.6177 C.ar    1  UNL1        0.1007
     31 N           2.4135    0.1469   22.9909 N.ar    1  UNL1       -0.2236
     32 C           3.3987   -0.9506   23.2643 C.ar    1  UNL1        0.1848
@<TRIPOS>BOND
     1     1     2    2
     2     2    18    1
     3    18    19   ar
     4    19    20   ar
     5    20    21   ar
     6    21    24    1
     7    24    25   ar
     8    25    26   ar
     9    26    27   ar
    10    27    28   ar
    11    28    29   ar
    12    29    30   ar
    13    30    31   ar
    14    31    32   ar
    15    21    22   ar
    16    22    23   ar
    17     2     3   am
    18     3     4    1
    19     4     5   ar
    20     5     6   ar
    21     6     7   ar
    22     7     8   ar
    23     8     9   ar
    24     9    10    1
    25    11     3    1
    26    11    12    1
    27    12    13    1
    28    13    14    1
    29    14    15    1
    30    15    16    1
    31    23    18   ar
    32     9     4   ar
    33    16    11    1
    34    32    24   ar
    35    32    27   ar
    36    15    17    1
@<TRIPOS>MOLECULE
*****
 32 36 0 0 0
SMALL
GASTEIGER

@<TRIPOS>ATOM
      1 O           2.5145    0.1014   22.8382 O.2     1  UNL1       -0.2695
      2 C           3.6577   -0.5218   22.0934 C.2     1  UNL1        0.2538
      3 N           3.8318   -0.2557   20.6275 N.am    1  UNL1       -0.2400
      4 C           4.9750   -0.8789   19.8828 C.ar    1  UNL1        0.1482
      5 N           6.3016   -0.1812   19.8246 N.ar    1  UNL1       -0.2279
      6 C           7.4447   -0.8045   19.0798 C.ar    1  UNL1        0.1004
      7 C           7.2613   -2.1255   18.3933 C.ar    1  UNL1        0.0216
      8 C           5.9348   -2.8232   18.4515 C.ar    1  UNL1        0.0158
      9 C           4.7916   -2.1999   19.1963 C.ar    1  UNL1        0.0896
     10 CL          3.4651   -2.8977   19.2545 Cl      1  UNL1       -0.0793
     11 C           2.8627    0.6337   19.9065 C.3     1  UNL1        0.0972
     12 C           3.1235    2.1080   19.8144 C.3     1  UNL1        0.0231
     13 C           2.1545    2.9975   19.0934 C.3     1  UNL1        0.0188
     14 C           0.9248    2.4125   18.4644 C.3     1  UNL1        0.0687
     15 N           0.6640    0.9383   18.5565 N.3     1  UNL1       -0.2961
     16 C           1.6330    0.0488   19.2775 C.3     1  UNL1        0.0890
     17 H           0.6006    0.5902   17.5998 H       1  UNL1        0.1233
     18 C           4.6267   -1.4111   22.8146 C.ar    1  UNL1        0.0540
     19 C           4.5064   -2.9017   22.6979 C.ar    1  UNL1        0.0061
     20 C           5.4755   -3.7911   23.4190 C.ar    1  UNL1        0.0194
     21 C           6.5648   -3.1898   24.2569 C.ar    1  UNL1        0.0861
     22 C           6.6850   -1.6993   24.3736 C.ar    1  UNL1        0.0194
     23 C           5.7159   -0.8099   23.6524 C.ar    1  UNL1        0.0061
     24 N           7.5338   -4.0792   24.9781 N.ar    1  UNL1       -0.1930
     25 N           8.8019   -4.6446   24.4106 N.ar    1  UNL1       -0.0582
     26 N           9.4567   -5.4741   25.4751 N.ar    1  UNL1       -0.1268
     27 C           8.5932   -5.4213   26.7005 C.ar    1  UNL1        0.1402
     28 C           8.7355   -6.0469   28.0564 C.ar    1  UNL1        0.0257
     29 C           7.6894   -5.8103   29.1050 C.ar    1  UNL1        0.0224
     30 C           6.5010   -4.9481   28.7978 C.ar    1  UNL1        0.1007
     31 N           6.3587   -4.3226   27.4420 N.ar    1  UNL1       -0.2236
     32 C           7.4048   -4.5592   26.3933 C.ar    1  UNL1        0.1848
@<TRIPOS>BOND
     1     1     2    2
     2     2    18    1
     3    18    19   ar
     4    19    20   ar
     5    20    21   ar
     6    21    24    1
     7    24    25   ar
     8    25    26   ar
     9    26    27   ar
    10    27    28   ar
    11    28    29   ar
    12    29    30   ar
    13    30    31   ar
    14    31    32   ar
    15    21    22   ar
    16    22    23   ar
    17     2     3   am
    18     3     4    1
    19     4     5   ar
    20     5     6   ar
    21     6     7   ar
    22     7     8   ar
    23     8     9   ar
    24     9    10    1
    25    11     3    1
    26    11    12    1
    27    12    13    1
    28    13    14    1
    29    14    15    1
    30    15    16    1
    31    23    18   ar
    32     9     4   ar
    33    16    11    1
    34    32    24   ar
    35    32    27   ar
    36    15    17    1
@<TRIPOS>MOLECULE
*****
 32 36 0 0 0
SMALL
GASTEIGER

@<TRIPOS>ATOM
      1 O           7.0212   -4.9835   31.7356 O.2     1  UNL1       -0.2695
      2 C           6.6621   -3.5764   31.3600 C.2     1  UNL1        0.2538
      3 N           6.7721   -3.1299   29.9322 N.am    1  UNL1       -0.2400
      4 C           6.4130   -1.7227   29.5567 C.ar    1  UNL1        0.1482
      5 N           4.9957   -1.3785   29.2061 N.ar    1  UNL1       -0.2279
      6 C           4.6367    0.0286   28.8306 C.ar    1  UNL1        0.1004
      7 C           5.6948    1.0915   28.8057 C.ar    1  UNL1        0.0216
      8 C           7.1120    0.7473   29.1564 C.ar    1  UNL1        0.0158
      9 C           7.4711   -0.6598   29.5319 C.ar    1  UNL1        0.0896
     10 CL          8.8883   -1.0041   29.8825 Cl      1  UNL1       -0.0793
     11 C           7.2412   -4.0905   28.8800 C.3     1  UNL1        0.0972
     12 C           8.7097   -4.2928   28.6504 C.3     1  UNL1        0.0231
     13 C           9.1789   -5.2535   27.5982 C.3     1  UNL1        0.0188
     14 C           8.1796   -6.0117   26.7758 C.3     1  UNL1        0.0687
     15 N           6.7112   -5.8094   27.0055 N.3     1  UNL1       -0.2961
     16 C           6.2420   -4.8488   28.0576 C.3     1  UNL1        0.0890
     17 H           6.3222   -6.7215   27.2449 H       1  UNL1        0.1233
     18 C           6.1930   -2.6158   32.4122 C.ar    1  UNL1        0.0540
     19 C           4.7769   -2.6743   32.9035 C.ar    1  UNL1        0.0061
     20 C           4.3078   -1.7138   33.9558 C.ar    1  UNL1        0.0194
     21 C           5.2548   -0.6946   34.5168 C.ar    1  UNL1        0.0861
     22 C           6.6708   -0.6361   34.0255 C.ar    1  UNL1        0.0194
     23 C           7.1399   -1.5967   32.9732 C.ar    1  UNL1        0.0061
     24 N           4.7857    0.2660   35.5690 N.ar    1  UNL1       -0.1930
     25 N           5.2003    0.2662   37.0106 N.ar    1  UNL1       -0.0582
     26 N           4.4905    1.3953   37.6969 N.ar    1  UNL1       -0.1268
     27 C           3.6371    2.0930   36.6795 C.ar    1  UNL1        0.1402
     28 C           2.7175    3.2737   36.7807 C.ar    1  UNL1        0.0257
     29 C           1.9804    3.7564   35.5668 C.ar    1  UNL1        0.0224
     30 C           2.1629    3.0584   34.2517 C.ar    1  UNL1        0.1007
     31 N           3.0825    1.8778   34.1505 N.ar    1  UNL1       -0.2236
     32 C           3.8196    1.3951   35.3644 C.ar    1  UNL1        0.1848
@<TRIPOS>BOND
     1     1     2    2
     2     2    18    1
     3    18    19   ar
     4    19    20   ar
     5    20    21   ar
     6    21    24    1
     7    24    25   ar
     8    25    26   ar
     9    26    27   ar
    10    27    28   ar
    11    28    29   ar
    12    29    30   ar
    13    30    31   ar
    14    31    32   ar
    15    21    22   ar
    16    22    23   ar
    17     2     3   am
    18     3     4    1
    19     4     5   ar
    20     5     6   ar
    21     6     7   ar
    22     7     8   ar
    23     8     9   ar
    24     9    10    1
    25    11     3    1
    26    11    12    1
    27    12    13    1
    28    13    14    1
    29    14    15    1
    30    15    16    1
    31    23    18   ar
    32     9     4   ar
    33    16    11    1
    34    32    24   ar
    35    32    27   ar
    36    15    17    1
@<TRIPOS>MOLECULE
*****
 32 36 0 0 0
SMALL
GASTEIGER

@<TRIPOS>ATOM
      1 O           7.0430   -6.2709   25.4370 O.2     1  UNL1       -0.2695
      2 C           7.2026   -4.7940   25.2289 C.2     1  UNL1        0.2538
      3 N           7.5714   -3.9095   26.3828 N.am    1  UNL1       -0.2400
      4 C           7.7311   -2.4326   26.1746 C.ar    1  UNL1        0.1482
      5 N           9.0606   -1.8725   25.7639 N.ar    1  UNL1       -0.2279
      6 C           9.2202   -0.3957   25.5557 C.ar    1  UNL1        0.1004
      7 C           8.0503    0.5211   25.7581 C.ar    1  UNL1        0.0216
      8 C           6.7208   -0.0390   26.1688 C.ar    1  UNL1        0.0158
      9 C           6.5612   -1.5159   26.3770 C.ar    1  UNL1        0.0896
     10 CL          5.2317   -2.0760   26.7877 Cl      1  UNL1       -0.0793
     11 C           7.7805   -4.5019   27.7449 C.3     1  UNL1        0.0972
     12 C           6.5988   -4.8860   28.5852 C.3     1  UNL1        0.0231
     13 C           6.8078   -5.4784   29.9473 C.3     1  UNL1        0.0188
     14 C           8.1986   -5.6867   30.4691 C.3     1  UNL1        0.0687
     15 N           9.3803   -5.3026   29.6289 N.3     1  UNL1       -0.2961
     16 C           9.1713   -4.7102   28.2667 C.3     1  UNL1        0.0890
     17 H           9.9372   -6.1474   29.5002 H       1  UNL1        0.1233
     18 C           6.9935   -4.2017   23.8667 C.ar    1  UNL1        0.0540
     19 C           5.6439   -3.6759   23.4766 C.ar    1  UNL1        0.0061
     20 C           5.4348   -3.0836   22.1145 C.ar    1  UNL1        0.0194
     21 C           6.5754   -3.0171   21.1424 C.ar    1  UNL1        0.0861
     22 C           7.9248   -3.5429   21.5325 C.ar    1  UNL1        0.0194
     23 C           8.1340   -4.1352   22.8946 C.ar    1  UNL1        0.0061
     24 N           6.3662   -2.4248   19.7802 N.ar    1  UNL1       -0.1930
     25 N           7.3339   -2.4828   18.6355 N.ar    1  UNL1       -0.0582
     26 N           6.7184   -1.7643   17.4715 N.ar    1  UNL1       -0.1268
     27 C           5.3704   -1.2623   17.8968 C.ar    1  UNL1        0.1402
     28 C           4.3130   -0.4862   17.1691 C.ar    1  UNL1        0.0257
     29 C           3.0380   -0.1183   17.8683 C.ar    1  UNL1        0.0224
     30 C           2.8203   -0.5265   19.2952 C.ar    1  UNL1        0.1007
     31 N           3.8777   -1.3026   20.0229 N.ar    1  UNL1       -0.2236
     32 C           5.1527   -1.6705   19.3237 C.ar    1  UNL1        0.1848
@<TRIPOS>BOND
     1     1     2    2
     2     2    18    1
     3    18    19   ar
     4    19    20   ar
     5    20    21   ar
     6    21    24    1
     7    24    25   ar
     8    25    26   ar
     9    26    27   ar
    10    27    28   ar
    11    28    29   ar
    12    29    30   ar
    13    30    31   ar
    14    31    32   ar
    15    21    22   ar
    16    22    23   ar
    17     2     3   am
    18     3     4    1
    19     4     5   ar
    20     5     6   ar
    21     6     7   ar
    22     7     8   ar
    23     8     9   ar
    24     9    10    1
    25    11     3    1
    26    11    12    1
    27    12    13    1
    28    13    14    1
    29    14    15    1
    30    15    16    1
    31    23    18   ar
    32     9     4   ar
    33    16    11    1
    34    32    24   ar
    35    32    27   ar
    36    15    17    1
