@<TRIPOS>MOLECULE
*****
 36 40 0 0 0
SMALL
GASTEIGER

@<TRIPOS>ATOM
      1 N          -9.0079  -18.2182   21.2340 N.3     1  UNL1       -0.2679
      2 C          -9.5922  -18.9131   22.4280 C.3     1  UNL1        0.0978
      3 C          -8.8257  -20.0089   23.1075 C.3     1  UNL1        0.0224
      4 C          -9.4100  -20.7039   24.3015 C.3     1  UNL1        0.0065
      5 C         -10.7609  -20.3031   24.8159 C.3     1  UNL1        0.0277
      6 C         -11.5274  -19.2074   24.1363 C.ar    1  UNL1       -0.0073
      7 C         -12.8782  -18.8066   24.6507 C.ar    1  UNL1       -0.0015
      8 C         -13.6447  -17.7109   23.9711 C.ar    1  UNL1        0.0203
      9 C         -13.0604  -17.0159   22.7772 C.ar    1  UNL1        0.0985
     10 N         -11.7096  -17.4167   22.2628 N.ar    1  UNL1       -0.2471
     11 C         -10.9431  -18.5124   22.9424 C.ar    1  UNL1        0.0695
     12 C          -8.4073  -16.8515   21.3812 C.3     1  UNL1        0.0886
     13 C          -6.7134  -14.9219   27.7575 C.ar    1  UNL1       -0.0003
     14 C          -8.2071  -15.0095   27.6515 C.ar    1  UNL1       -0.0003
     15 C          -8.8446  -15.4129   26.3550 C.ar    1  UNL1       -0.0045
     16 C          -7.9884  -15.7288   25.1646 C.ar    1  UNL1       -0.0234
     17 C          -6.4948  -15.6412   25.2706 C.ar    1  UNL1       -0.0103
     18 C          -5.8573  -15.2378   26.5671 C.ar    1  UNL1       -0.0032
     19 C          -5.6385  -15.9571   24.0801 C.3     1  UNL1        0.0953
     20 N          -6.2761  -16.3605   22.7837 N.3     1  UNL1       -0.2934
     21 C          -7.7698  -16.4481   22.6777 C.3     1  UNL1        0.0748
     22 C          -8.6259  -16.1322   23.8681 C.3     1  UNL1        0.0432
     23 H          -5.9097  -17.2833   22.5500 H       1  UNL1        0.1236
     24 C          -9.0241  -18.8898   19.8929 C.3     1  UNL1        0.0725
     25 C          -7.8472  -19.7071   19.4491 C.3     1  UNL1        0.0188
     26 C          -6.4595  -19.3032   19.8504 C.3     1  UNL1        0.0185
     27 C          -5.7610  -20.0247   20.9647 C.3     1  UNL1        0.0689
     28 N          -5.4036  -19.2927   22.2243 N.3     1  UNL1       -0.2937
     29 H          -5.9415  -19.7221   22.9771 H       1  UNL1        0.1236
     30 C          -3.9768  -19.2444   22.6845 C.3     1  UNL1        0.0957
     31 C          -2.9522  -18.5063   21.8749 C.ar    1  UNL1       -0.0033
     32 C          -2.6442  -17.0711   22.1835 C.ar    1  UNL1        0.0178
     33 C          -1.6196  -16.3331   21.3739 C.ar    1  UNL1        0.0986
     34 N          -0.9029  -17.0302   20.2558 N.ar    1  UNL1       -0.2423
     35 C          -1.2109  -18.4654   19.9472 C.ar    1  UNL1        0.0986
     36 C          -2.2356  -19.2035   20.7568 C.ar    1  UNL1        0.0178
@<TRIPOS>BOND
     1    13    14   ar
     2    14    15   ar
     3    15    16   ar
     4    16    17   ar
     5    17    18   ar
     6    17    19    1
     7    19    20    1
     8    20    21    1
     9    21    12    1
    10    12     1    1
    11     1    24    1
    12    24    25    1
    13    25    26    1
    14    26    27    1
    15    27    28    1
    16    28    30    1
    17    30    31    1
    18    31    32   ar
    19    32    33   ar
    20    33    34   ar
    21    34    35   ar
    22    35    36   ar
    23     2     1    1
    24     2     3    1
    25     3     4    1
    26     4     5    1
    27     5     6    1
    28     6     7   ar
    29     7     8   ar
    30     8     9   ar
    31     9    10   ar
    32    10    11   ar
    33    21    22    1
    34    18    13   ar
    35    36    31   ar
    36    11     2    1
    37    22    16    1
    38    11     6   ar
    39    20    23    1
    40    28    29    1
@<TRIPOS>MOLECULE
*****
 36 40 0 0 0
SMALL
GASTEIGER

@<TRIPOS>ATOM
      1 N          -7.6949  -19.6671   21.7754 N.3     1  UNL1       -0.2679
      2 C          -8.4208  -19.2068   23.0046 C.3     1  UNL1        0.0978
      3 C          -9.3309  -20.1491   23.7352 C.3     1  UNL1        0.0224
      4 C         -10.0568  -19.6888   24.9645 C.3     1  UNL1        0.0065
      5 C          -9.8726  -18.2862   25.4632 C.3     1  UNL1        0.0277
      6 C          -8.9626  -17.3439   24.7326 C.ar    1  UNL1       -0.0073
      7 C          -8.7784  -15.9413   25.2313 C.ar    1  UNL1       -0.0015
      8 C          -7.8683  -14.9989   24.5007 C.ar    1  UNL1        0.0203
      9 C          -7.1424  -15.4592   23.2715 C.ar    1  UNL1        0.0985
     10 N          -7.3266  -16.8618   22.7728 N.ar    1  UNL1       -0.2471
     11 C          -8.2366  -17.8041   23.5034 C.ar    1  UNL1        0.0695
     12 C          -6.3360  -20.2908   21.8961 C.3     1  UNL1        0.0886
     13 C          -0.6183  -16.9143   20.1193 C.ar    1  UNL1       -0.0003
     14 C          -1.0473  -17.7880   18.9780 C.ar    1  UNL1       -0.0003
     15 C          -2.2766  -18.6381   19.1052 C.ar    1  UNL1       -0.0045
     16 C          -3.0770  -18.6144   20.3735 C.ar    1  UNL1       -0.0234
     17 C          -2.6480  -17.7406   21.5148 C.ar    1  UNL1       -0.0103
     18 C          -1.4187  -16.8906   21.3877 C.ar    1  UNL1       -0.0032
     19 C          -3.4484  -17.7169   22.7833 C.3     1  UNL1        0.0953
     20 N          -4.6777  -18.5670   22.9104 N.3     1  UNL1       -0.2934
     21 C          -5.1067  -19.4407   21.7690 C.3     1  UNL1        0.0748
     22 C          -4.3063  -19.4644   20.5007 C.3     1  UNL1        0.0432
     23 H          -5.4541  -17.9347   23.1051 H       1  UNL1        0.1236
     24 C          -8.3278  -19.5037   20.4253 C.3     1  UNL1        0.0725
     25 C          -9.7182  -18.9528   20.3105 C.3     1  UNL1        0.0188
     26 C         -10.8970  -19.8141   20.6549 C.3     1  UNL1        0.0185
     27 C         -12.1359  -19.1945   21.2306 C.3     1  UNL1        0.0689
     28 N         -12.0739  -18.4779   22.5469 N.3     1  UNL1       -0.2937
     29 H         -11.2497  -18.8290   23.0347 H       1  UNL1        0.1236
     30 C         -11.9931  -16.9806   22.5826 C.3     1  UNL1        0.0957
     31 C         -11.4931  -16.2277   21.3855 C.ar    1  UNL1       -0.0033
     32 C         -12.3007  -16.2067   20.1217 C.ar    1  UNL1        0.0178
     33 C         -11.8007  -15.4538   18.9245 C.ar    1  UNL1        0.0986
     34 N         -10.4932  -14.7218   18.9912 N.ar    1  UNL1       -0.2423
     35 C          -9.6856  -14.7428   20.2550 C.ar    1  UNL1        0.0986
     36 C         -10.1855  -15.4957   21.4522 C.ar    1  UNL1        0.0178
@<TRIPOS>BOND
     1    13    14   ar
     2    14    15   ar
     3    15    16   ar
     4    16    17   ar
     5    17    18   ar
     6    17    19    1
     7    19    20    1
     8    20    21    1
     9    21    12    1
    10    12     1    1
    11     1    24    1
    12    24    25    1
    13    25    26    1
    14    26    27    1
    15    27    28    1
    16    28    30    1
    17    30    31    1
    18    31    32   ar
    19    32    33   ar
    20    33    34   ar
    21    34    35   ar
    22    35    36   ar
    23     2     1    1
    24     2     3    1
    25     3     4    1
    26     4     5    1
    27     5     6    1
    28     6     7   ar
    29     7     8   ar
    30     8     9   ar
    31     9    10   ar
    32    10    11   ar
    33    21    22    1
    34    18    13   ar
    35    36    31   ar
    36    11     2    1
    37    22    16    1
    38    11     6   ar
    39    20    23    1
    40    28    29    1
@<TRIPOS>MOLECULE
*****
 36 40 0 0 0
SMALL
GASTEIGER

@<TRIPOS>ATOM
      1 N          -8.8089  -17.9697   21.3587 N.3     1  UNL1       -0.2679
      2 C         -10.2410  -17.5250   21.3233 C.3     1  UNL1        0.0978
      3 C         -10.7471  -16.7173   20.1651 C.3     1  UNL1        0.0224
      4 C         -12.1793  -16.2726   20.1297 C.3     1  UNL1        0.0065
      5 C         -13.1052  -16.6356   21.2525 C.3     1  UNL1        0.0277
      6 C         -12.5991  -17.4433   22.4107 C.ar    1  UNL1       -0.0073
      7 C         -13.5251  -17.8063   23.5335 C.ar    1  UNL1       -0.0015
      8 C         -13.0190  -18.6140   24.6917 C.ar    1  UNL1        0.0203
      9 C         -11.5869  -19.0587   24.7272 C.ar    1  UNL1        0.0985
     10 N         -10.6610  -18.6957   23.6044 N.ar    1  UNL1       -0.2471
     11 C         -11.1671  -17.8880   22.4461 C.ar    1  UNL1        0.0695
     12 C          -7.7113  -16.9549   21.4837 C.3     1  UNL1        0.0886
     13 C          -6.9179  -14.8538   27.9803 C.ar    1  UNL1       -0.0003
     14 C          -8.3807  -15.0196   27.6931 C.ar    1  UNL1       -0.0003
     15 C          -8.8320  -15.4730   26.3363 C.ar    1  UNL1       -0.0045
     16 C          -7.8204  -15.7606   25.2668 C.ar    1  UNL1       -0.0234
     17 C          -6.3575  -15.5948   25.5540 C.ar    1  UNL1       -0.0103
     18 C          -5.9063  -15.1414   26.9108 C.ar    1  UNL1       -0.0032
     19 C          -5.3458  -15.8824   24.4845 C.3     1  UNL1        0.0953
     20 N          -5.7971  -16.3358   23.1277 N.3     1  UNL1       -0.2934
     21 C          -7.2600  -16.5016   22.8405 C.3     1  UNL1        0.0748
     22 C          -8.2716  -16.2140   23.9100 C.3     1  UNL1        0.0432
     23 H          -5.3594  -17.2416   22.9593 H       1  UNL1        0.1236
     24 C          -8.4743  -19.4292   21.2691 C.3     1  UNL1        0.0725
     25 C          -7.5216  -20.0420   22.2524 C.3     1  UNL1        0.0188
     26 C          -6.1052  -20.3251   21.8478 C.3     1  UNL1        0.0185
     27 C          -5.8014  -20.7847   20.4526 C.3     1  UNL1        0.0689
     28 N          -4.4278  -20.5916   19.8817 N.3     1  UNL1       -0.2937
     29 H          -4.4765  -19.7803   19.2654 H       1  UNL1        0.1236
     30 C          -3.2597  -20.3709   20.7965 C.3     1  UNL1        0.0957
     31 C          -2.6566  -19.0036   20.9264 C.ar    1  UNL1       -0.0033
     32 C          -1.7476  -18.4799   19.8543 C.ar    1  UNL1        0.0178
     33 C          -1.1445  -17.1126   19.9842 C.ar    1  UNL1        0.0986
     34 N          -1.4504  -16.2691   21.1862 N.ar    1  UNL1       -0.2423
     35 C          -2.3594  -16.7929   22.2583 C.ar    1  UNL1        0.0986
     36 C          -2.9625  -18.1601   22.1284 C.ar    1  UNL1        0.0178
@<TRIPOS>BOND
     1    13    14   ar
     2    14    15   ar
     3    15    16   ar
     4    16    17   ar
     5    17    18   ar
     6    17    19    1
     7    19    20    1
     8    20    21    1
     9    21    12    1
    10    12     1    1
    11     1    24    1
    12    24    25    1
    13    25    26    1
    14    26    27    1
    15    27    28    1
    16    28    30    1
    17    30    31    1
    18    31    32   ar
    19    32    33   ar
    20    33    34   ar
    21    34    35   ar
    22    35    36   ar
    23     2     1    1
    24     2     3    1
    25     3     4    1
    26     4     5    1
    27     5     6    1
    28     6     7   ar
    29     7     8   ar
    30     8     9   ar
    31     9    10   ar
    32    10    11   ar
    33    21    22    1
    34    18    13   ar
    35    36    31   ar
    36    11     2    1
    37    22    16    1
    38    11     6   ar
    39    20    23    1
    40    28    29    1
@<TRIPOS>MOLECULE
*****
 36 40 0 0 0
SMALL
GASTEIGER

@<TRIPOS>ATOM
      1 N          -7.3382  -19.5615   21.7650 N.3     1  UNL1       -0.2679
      2 C          -8.2596  -19.1601   22.8785 C.3     1  UNL1        0.0978
      3 C          -9.2279  -20.1552   23.4462 C.3     1  UNL1        0.0224
      4 C         -10.1493  -19.7538   24.5597 C.3     1  UNL1        0.0065
      5 C         -10.1025  -18.3574   25.1055 C.3     1  UNL1        0.0277
      6 C          -9.1343  -17.3624   24.5377 C.ar    1  UNL1       -0.0073
      7 C          -9.0874  -15.9660   25.0835 C.ar    1  UNL1       -0.0015
      8 C          -8.1192  -14.9709   24.5158 C.ar    1  UNL1        0.0203
      9 C          -7.1977  -15.3722   23.4023 C.ar    1  UNL1        0.0985
     10 N          -7.2446  -16.7686   22.8566 N.ar    1  UNL1       -0.2471
     11 C          -8.2128  -17.7637   23.4243 C.ar    1  UNL1        0.0695
     12 C          -5.9793  -20.1140   22.0784 C.3     1  UNL1        0.0886
     13 C          -0.3025  -16.7989   20.0700 C.ar    1  UNL1       -0.0003
     14 C          -0.7179  -17.7576   18.9938 C.ar    1  UNL1       -0.0003
     15 C          -1.9363  -18.6124   19.1802 C.ar    1  UNL1       -0.0045
     16 C          -2.7393  -18.5084   20.4429 C.ar    1  UNL1       -0.0234
     17 C          -2.3239  -17.5497   21.5191 C.ar    1  UNL1       -0.0103
     18 C          -1.1055  -16.6949   21.3326 C.ar    1  UNL1       -0.0032
     19 C          -3.1270  -17.4457   22.7818 C.3     1  UNL1        0.0953
     20 N          -4.3454  -18.3005   22.9682 N.3     1  UNL1       -0.2934
     21 C          -4.7608  -19.2593   21.8919 C.3     1  UNL1        0.0748
     22 C          -3.9578  -19.3632   20.6293 C.3     1  UNL1        0.0432
     23 H          -5.1303  -17.6661   23.1164 H       1  UNL1        0.1236
     24 C          -7.7755  -19.4102   20.3382 C.3     1  UNL1        0.0725
     25 C          -7.6247  -20.5560   19.3820 C.3     1  UNL1        0.0188
     26 C          -8.5289  -20.6622   18.1900 C.3     1  UNL1        0.0185
     27 C         -10.0167  -20.5918   18.3685 C.3     1  UNL1        0.0689
     28 N         -10.6374  -19.3945   19.0250 N.3     1  UNL1       -0.2937
     29 H         -11.4136  -19.1024   18.4312 H       1  UNL1        0.1236
     30 C         -11.1760  -19.4995   20.4210 C.3     1  UNL1        0.0957
     31 C         -11.4846  -18.2562   21.2014 C.ar    1  UNL1       -0.0033
     32 C         -10.6908  -17.0057   20.9646 C.ar    1  UNL1        0.0178
     33 C         -10.9994  -15.7624   21.7450 C.ar    1  UNL1        0.0986
     34 N         -12.1018  -15.7696   22.7621 N.ar    1  UNL1       -0.2423
     35 C         -12.8956  -17.0201   22.9989 C.ar    1  UNL1        0.0986
     36 C         -12.5870  -18.2634   22.2185 C.ar    1  UNL1        0.0178
@<TRIPOS>BOND
     1    13    14   ar
     2    14    15   ar
     3    15    16   ar
     4    16    17   ar
     5    17    18   ar
     6    17    19    1
     7    19    20    1
     8    20    21    1
     9    21    12    1
    10    12     1    1
    11     1    24    1
    12    24    25    1
    13    25    26    1
    14    26    27    1
    15    27    28    1
    16    28    30    1
    17    30    31    1
    18    31    32   ar
    19    32    33   ar
    20    33    34   ar
    21    34    35   ar
    22    35    36   ar
    23     2     1    1
    24     2     3    1
    25     3     4    1
    26     4     5    1
    27     5     6    1
    28     6     7   ar
    29     7     8   ar
    30     8     9   ar
    31     9    10   ar
    32    10    11   ar
    33    21    22    1
    34    18    13   ar
    35    36    31   ar
    36    11     2    1
    37    22    16    1
    38    11     6   ar
    39    20    23    1
    40    28    29    1
@<TRIPOS>MOLECULE
*****
 36 40 0 0 0
SMALL
GASTEIGER

@<TRIPOS>ATOM
      1 N          -7.3215  -19.2620   22.0508 N.3     1  UNL1       -0.2679
      2 C          -6.1624  -19.8121   21.2738 C.3     1  UNL1        0.0978
      3 C          -6.4028  -20.7731   20.1475 C.3     1  UNL1        0.0224
      4 C          -5.2435  -21.3231   19.3705 C.3     1  UNL1        0.0065
      5 C          -3.8439  -20.9122   19.7199 C.3     1  UNL1        0.0277
      6 C          -3.6035  -19.9512   20.8462 C.ar    1  UNL1       -0.0073
      7 C          -2.2038  -19.5402   21.1956 C.ar    1  UNL1       -0.0015
      8 C          -1.9634  -18.5792   22.3220 C.ar    1  UNL1        0.0203
      9 C          -3.1226  -18.0292   23.0989 C.ar    1  UNL1        0.0985
     10 N          -4.5222  -18.4401   22.7495 N.ar    1  UNL1       -0.2471
     11 C          -4.7626  -19.4011   21.6232 C.ar    1  UNL1        0.0695
     12 C          -7.6053  -17.7892   22.0327 C.3     1  UNL1        0.0886
     13 C          -7.0952  -14.3278   27.9495 C.ar    1  UNL1       -0.0003
     14 C          -8.3789  -15.1037   27.9437 C.ar    1  UNL1       -0.0003
     15 C          -8.7376  -15.9512   26.7591 C.ar    1  UNL1       -0.0045
     16 C          -7.8127  -16.0227   25.5805 C.ar    1  UNL1       -0.0234
     17 C          -6.5290  -15.2468   25.5863 C.ar    1  UNL1       -0.0103
     18 C          -6.1703  -14.3994   26.7708 C.ar    1  UNL1       -0.0032
     19 C          -5.6040  -15.3183   24.4076 C.3     1  UNL1        0.0953
     20 N          -5.9628  -16.1658   23.2231 N.3     1  UNL1       -0.2934
     21 C          -7.2465  -16.9417   23.2172 C.3     1  UNL1        0.0748
     22 C          -8.1715  -16.8702   24.3959 C.3     1  UNL1        0.0432
     23 H          -5.2089  -16.8429   23.1063 H       1  UNL1        0.1236
     24 C          -8.1970  -20.1848   22.8458 C.3     1  UNL1        0.0725
     25 C          -9.6730  -19.9313   22.9297 C.3     1  UNL1        0.0188
     26 C         -10.3829  -20.0617   24.2447 C.3     1  UNL1        0.0185
     27 C         -11.0857  -18.8769   24.8384 C.3     1  UNL1        0.0689
     28 N         -12.5743  -18.7456   24.7090 N.3     1  UNL1       -0.2937
     29 H         -12.9148  -18.3697   25.5939 H       1  UNL1        0.1236
     30 C         -13.1605  -17.8937   23.6224 C.3     1  UNL1        0.0957
     31 C         -12.3074  -17.4589   22.4677 C.ar    1  UNL1       -0.0033
     32 C         -11.4763  -16.2150   22.5759 C.ar    1  UNL1        0.0178
     33 C         -10.6232  -15.7802   21.4212 C.ar    1  UNL1        0.0986
     34 N         -10.6014  -16.5893   20.1584 N.ar    1  UNL1       -0.2423
     35 C         -11.4325  -17.8333   20.0503 C.ar    1  UNL1        0.0986
     36 C         -12.2856  -18.2681   21.2049 C.ar    1  UNL1        0.0178
@<TRIPOS>BOND
     1    13    14   ar
     2    14    15   ar
     3    15    16   ar
     4    16    17   ar
     5    17    18   ar
     6    17    19    1
     7    19    20    1
     8    20    21    1
     9    21    12    1
    10    12     1    1
    11     1    24    1
    12    24    25    1
    13    25    26    1
    14    26    27    1
    15    27    28    1
    16    28    30    1
    17    30    31    1
    18    31    32   ar
    19    32    33   ar
    20    33    34   ar
    21    34    35   ar
    22    35    36   ar
    23     2     1    1
    24     2     3    1
    25     3     4    1
    26     4     5    1
    27     5     6    1
    28     6     7   ar
    29     7     8   ar
    30     8     9   ar
    31     9    10   ar
    32    10    11   ar
    33    21    22    1
    34    18    13   ar
    35    36    31   ar
    36    11     2    1
    37    22    16    1
    38    11     6   ar
    39    20    23    1
    40    28    29    1
@<TRIPOS>MOLECULE
*****
 36 40 0 0 0
SMALL
GASTEIGER

@<TRIPOS>ATOM
      1 N          -8.6529  -18.0273   22.0004 N.3     1  UNL1       -0.2679
      2 C         -10.0798  -17.6685   21.7089 C.3     1  UNL1        0.0978
      3 C         -10.4363  -17.0047   20.4118 C.3     1  UNL1        0.0224
      4 C         -11.8633  -16.6458   20.1203 C.3     1  UNL1        0.0065
      5 C         -12.9338  -16.9508   21.1258 C.3     1  UNL1        0.0277
      6 C         -12.5773  -17.6146   22.4228 C.ar    1  UNL1       -0.0073
      7 C         -13.6478  -17.9195   23.4283 C.ar    1  UNL1       -0.0015
      8 C         -13.2914  -18.5833   24.7253 C.ar    1  UNL1        0.0203
      9 C         -11.8644  -18.9422   25.0169 C.ar    1  UNL1        0.0985
     10 N         -10.7940  -18.6372   24.0114 N.ar    1  UNL1       -0.2471
     11 C         -11.1504  -17.9734   22.7144 C.ar    1  UNL1        0.0695
     12 C          -7.9975  -19.1565   21.2618 C.3     1  UNL1        0.0886
     13 C          -1.2475  -18.9190   19.9848 C.ar    1  UNL1       -0.0003
     14 C          -1.9775  -18.1723   18.9080 C.ar    1  UNL1       -0.0003
     15 C          -3.4735  -18.0705   18.9480 C.ar    1  UNL1       -0.0045
     16 C          -4.2395  -18.7153   20.0649 C.ar    1  UNL1       -0.0234
     17 C          -3.5095  -19.4619   21.1417 C.ar    1  UNL1       -0.0103
     18 C          -2.0135  -19.5638   21.1017 C.ar    1  UNL1       -0.0032
     19 C          -4.2755  -20.1068   22.2587 C.3     1  UNL1        0.0953
     20 N          -5.7715  -20.0050   22.2987 N.3     1  UNL1       -0.2934
     21 C          -6.5015  -19.2583   21.2218 C.3     1  UNL1        0.0748
     22 C          -5.7355  -18.6135   20.1049 C.3     1  UNL1        0.0432
     23 H          -6.0126  -19.5571   23.1828 H       1  UNL1        0.1236
     24 C          -7.8813  -17.2570   23.0306 C.3     1  UNL1        0.0725
     25 C          -8.3273  -15.8811   23.4279 C.3     1  UNL1        0.0188
     26 C          -9.0279  -15.6687   24.7371 C.3     1  UNL1        0.0185
     27 C          -8.3950  -16.1423   26.0120 C.3     1  UNL1        0.0689
     28 N          -7.5803  -15.1949   26.8419 N.3     1  UNL1       -0.2937
     29 H          -7.8857  -15.3124   27.8080 H       1  UNL1        0.1236
     30 C          -6.0838  -15.2973   26.8453 C.3     1  UNL1        0.0957
     31 C          -5.3572  -15.7067   25.5986 C.ar    1  UNL1       -0.0033
     32 C          -5.3664  -14.8098   24.3963 C.ar    1  UNL1        0.0178
     33 C          -4.6398  -15.2192   23.1496 C.ar    1  UNL1        0.0986
     34 N          -3.9040  -16.5256   23.1050 N.ar    1  UNL1       -0.2423
     35 C          -3.8948  -17.4225   24.3073 C.ar    1  UNL1        0.0986
     36 C          -4.6214  -17.0131   25.5540 C.ar    1  UNL1        0.0178
@<TRIPOS>BOND
     1    13    14   ar
     2    14    15   ar
     3    15    16   ar
     4    16    17   ar
     5    17    18   ar
     6    17    19    1
     7    19    20    1
     8    20    21    1
     9    21    12    1
    10    12     1    1
    11     1    24    1
    12    24    25    1
    13    25    26    1
    14    26    27    1
    15    27    28    1
    16    28    30    1
    17    30    31    1
    18    31    32   ar
    19    32    33   ar
    20    33    34   ar
    21    34    35   ar
    22    35    36   ar
    23     2     1    1
    24     2     3    1
    25     3     4    1
    26     4     5    1
    27     5     6    1
    28     6     7   ar
    29     7     8   ar
    30     8     9   ar
    31     9    10   ar
    32    10    11   ar
    33    21    22    1
    34    18    13   ar
    35    36    31   ar
    36    11     2    1
    37    22    16    1
    38    11     6   ar
    39    20    23    1
    40    28    29    1
@<TRIPOS>MOLECULE
*****
 36 40 0 0 0
SMALL
GASTEIGER

@<TRIPOS>ATOM
      1 N          -8.4468  -18.1970   22.5346 N.3     1  UNL1       -0.2679
      2 C          -9.9318  -18.1810   22.7457 C.3     1  UNL1        0.0978
      3 C         -10.5320  -18.9134   23.9090 C.3     1  UNL1        0.0224
      4 C         -12.0170  -18.8974   24.1200 C.3     1  UNL1        0.0065
      5 C         -12.9018  -18.1490   23.1677 C.3     1  UNL1        0.0277
      6 C         -12.3016  -17.4165   22.0044 C.ar    1  UNL1       -0.0073
      7 C         -13.1864  -16.6681   21.0521 C.ar    1  UNL1       -0.0015
      8 C         -12.5863  -15.9357   19.8887 C.ar    1  UNL1        0.0203
      9 C         -11.1013  -15.9516   19.6777 C.ar    1  UNL1        0.0985
     10 N         -10.2165  -16.7001   20.6300 N.ar    1  UNL1       -0.2471
     11 C         -10.8167  -17.4325   21.7933 C.ar    1  UNL1        0.0695
     12 C          -7.8203  -19.2693   21.6934 C.3     1  UNL1        0.0886
     13 C          -1.2267  -18.7984   19.8086 C.ar    1  UNL1       -0.0003
     14 C          -2.0802  -18.1090   18.7857 C.ar    1  UNL1       -0.0003
     15 C          -3.5696  -18.0654   18.9581 C.ar    1  UNL1       -0.0045
     16 C          -4.2055  -18.7110   20.1533 C.ar    1  UNL1       -0.0234
     17 C          -3.3520  -19.4003   21.1762 C.ar    1  UNL1       -0.0103
     18 C          -1.8626  -19.4440   21.0038 C.ar    1  UNL1       -0.0032
     19 C          -3.9880  -20.0460   22.3716 C.3     1  UNL1        0.0953
     20 N          -5.4774  -20.0024   22.5439 N.3     1  UNL1       -0.2934
     21 C          -6.3309  -19.3130   21.5210 C.3     1  UNL1        0.0748
     22 C          -5.6950  -18.6673   20.3257 C.3     1  UNL1        0.0432
     23 H          -5.6572  -19.5418   23.4361 H       1  UNL1        0.1236
     24 C          -7.5883  -17.1407   23.1648 C.3     1  UNL1        0.0725
     25 C          -8.1658  -15.7917   23.4755 C.3     1  UNL1        0.0188
     26 C          -8.9082  -15.5714   24.7602 C.3     1  UNL1        0.0185
     27 C          -8.3375  -16.0766   26.0523 C.3     1  UNL1        0.0689
     28 N          -7.5272  -15.1623   26.9226 N.3     1  UNL1       -0.2937
     29 H          -7.8312  -15.3237   27.8827 H       1  UNL1        0.1236
     30 C          -6.0302  -15.2567   26.9206 C.3     1  UNL1        0.0957
     31 C          -5.3057  -15.6591   25.6703 C.ar    1  UNL1       -0.0033
     32 C          -5.2817  -14.7368   24.4876 C.ar    1  UNL1        0.0178
     33 C          -4.5572  -15.1392   23.2374 C.ar    1  UNL1        0.0986
     34 N          -3.8567  -16.4638   23.1698 N.ar    1  UNL1       -0.2423
     35 C          -3.8807  -17.3860   24.3525 C.ar    1  UNL1        0.0986
     36 C          -4.6052  -16.9837   25.6027 C.ar    1  UNL1        0.0178
@<TRIPOS>BOND
     1    13    14   ar
     2    14    15   ar
     3    15    16   ar
     4    16    17   ar
     5    17    18   ar
     6    17    19    1
     7    19    20    1
     8    20    21    1
     9    21    12    1
    10    12     1    1
    11     1    24    1
    12    24    25    1
    13    25    26    1
    14    26    27    1
    15    27    28    1
    16    28    30    1
    17    30    31    1
    18    31    32   ar
    19    32    33   ar
    20    33    34   ar
    21    34    35   ar
    22    35    36   ar
    23     2     1    1
    24     2     3    1
    25     3     4    1
    26     4     5    1
    27     5     6    1
    28     6     7   ar
    29     7     8   ar
    30     8     9   ar
    31     9    10   ar
    32    10    11   ar
    33    21    22    1
    34    18    13   ar
    35    36    31   ar
    36    11     2    1
    37    22    16    1
    38    11     6   ar
    39    20    23    1
    40    28    29    1
@<TRIPOS>MOLECULE
*****
 36 40 0 0 0
SMALL
GASTEIGER

@<TRIPOS>ATOM
      1 N          -7.4581  -18.8204   21.7198 N.3     1  UNL1       -0.2679
      2 C          -6.3039  -19.5388   21.0859 C.3     1  UNL1        0.0978
      3 C          -6.5539  -20.5767   20.0323 C.3     1  UNL1        0.0224
      4 C          -5.3997  -21.2952   19.3984 C.3     1  UNL1        0.0065
      5 C          -3.9956  -20.9756   19.8182 C.3     1  UNL1        0.0277
      6 C          -3.7456  -19.9377   20.8718 C.ar    1  UNL1       -0.0073
      7 C          -2.3414  -19.6181   21.2916 C.ar    1  UNL1       -0.0015
      8 C          -2.0914  -18.5802   22.3452 C.ar    1  UNL1        0.0203
      9 C          -3.2456  -17.8618   22.9791 C.ar    1  UNL1        0.0985
     10 N          -4.6497  -18.1813   22.5593 N.ar    1  UNL1       -0.2471
     11 C          -4.8997  -19.2193   21.5057 C.ar    1  UNL1        0.0695
     12 C          -7.4702  -17.3214   21.7736 C.3     1  UNL1        0.0886
     13 C          -7.0862  -14.5257   28.0415 C.ar    1  UNL1       -0.0003
     14 C          -8.3842  -15.2664   27.9129 C.ar    1  UNL1       -0.0003
     15 C          -8.7206  -15.9737   26.6336 C.ar    1  UNL1       -0.0045
     16 C          -7.7590  -15.9403   25.4829 C.ar    1  UNL1       -0.0234
     17 C          -6.4610  -15.1996   25.6115 C.ar    1  UNL1       -0.0103
     18 C          -6.1246  -14.4923   26.8908 C.ar    1  UNL1       -0.0032
     19 C          -5.4993  -15.1661   24.4608 C.3     1  UNL1        0.0953
     20 N          -5.8357  -15.8734   23.1815 N.3     1  UNL1       -0.2934
     21 C          -7.1338  -16.6141   23.0529 C.3     1  UNL1        0.0748
     22 C          -8.0954  -16.6475   24.2036 C.3     1  UNL1        0.0432
     23 H          -5.0921  -16.5515   23.0156 H       1  UNL1        0.1236
     24 C          -8.6001  -19.6009   22.2998 C.3     1  UNL1        0.0725
     25 C          -9.8225  -19.8684   21.4727 C.3     1  UNL1        0.0188
     26 C          -9.9986  -19.1817   20.1508 C.3     1  UNL1        0.0185
     27 C         -10.9640  -18.0409   20.0210 C.3     1  UNL1        0.0689
     28 N         -10.5852  -16.6775   20.5186 N.3     1  UNL1       -0.2937
     29 H         -10.7204  -16.0320   19.7404 H       1  UNL1        0.1236
     30 C         -11.2953  -16.0862   21.7001 C.3     1  UNL1        0.0957
     31 C         -11.8576  -16.9829   22.7630 C.ar    1  UNL1       -0.0033
     32 C         -10.9353  -17.7089   23.6968 C.ar    1  UNL1        0.0178
     33 C         -11.4976  -18.6056   24.7598 C.ar    1  UNL1        0.0986
     34 N         -12.9822  -18.7762   24.8889 N.ar    1  UNL1       -0.2423
     35 C         -13.9045  -18.0501   23.9550 C.ar    1  UNL1        0.0986
     36 C         -13.3422  -17.1534   22.8921 C.ar    1  UNL1        0.0178
@<TRIPOS>BOND
     1    13    14   ar
     2    14    15   ar
     3    15    16   ar
     4    16    17   ar
     5    17    18   ar
     6    17    19    1
     7    19    20    1
     8    20    21    1
     9    21    12    1
    10    12     1    1
    11     1    24    1
    12    24    25    1
    13    25    26    1
    14    26    27    1
    15    27    28    1
    16    28    30    1
    17    30    31    1
    18    31    32   ar
    19    32    33   ar
    20    33    34   ar
    21    34    35   ar
    22    35    36   ar
    23     2     1    1
    24     2     3    1
    25     3     4    1
    26     4     5    1
    27     5     6    1
    28     6     7   ar
    29     7     8   ar
    30     8     9   ar
    31     9    10   ar
    32    10    11   ar
    33    21    22    1
    34    18    13   ar
    35    36    31   ar
    36    11     2    1
    37    22    16    1
    38    11     6   ar
    39    20    23    1
    40    28    29    1
@<TRIPOS>MOLECULE
*****
 36 40 0 0 0
SMALL
GASTEIGER

@<TRIPOS>ATOM
      1 N           8.4805   -5.7193   24.7513 N.3     1  UNL1       -0.2679
      2 C           8.3157   -5.1587   23.3698 C.3     1  UNL1        0.0978
      3 C           9.2969   -5.5166   22.2932 C.3     1  UNL1        0.0224
      4 C           9.1321   -4.9560   20.9116 C.3     1  UNL1        0.0065
      5 C           7.9861   -4.0374   20.6068 C.3     1  UNL1        0.0277
      6 C           7.0049   -3.6795   21.6835 C.ar    1  UNL1       -0.0073
      7 C           5.8589   -2.7610   21.3786 C.ar    1  UNL1       -0.0015
      8 C           4.8777   -2.4031   22.4553 C.ar    1  UNL1        0.0203
      9 C           5.0425   -2.9637   23.8368 C.ar    1  UNL1        0.0985
     10 N           6.1885   -3.8822   24.1416 N.ar    1  UNL1       -0.2471
     11 C           7.1697   -4.2401   23.0649 C.ar    1  UNL1        0.0695
     12 C           9.2037   -4.9279   25.8005 C.3     1  UNL1        0.0886
     13 C           6.0755   -2.8772   31.5676 C.ar    1  UNL1       -0.0003
     14 C           6.8019   -4.1624   31.8334 C.ar    1  UNL1       -0.0003
     15 C           7.5728   -4.8296   30.7331 C.ar    1  UNL1       -0.0045
     16 C           7.6173   -4.2116   29.3671 C.ar    1  UNL1       -0.0234
     17 C           6.8910   -2.9264   29.1013 C.ar    1  UNL1       -0.0103
     18 C           6.1200   -2.2592   30.2016 C.ar    1  UNL1       -0.0032
     19 C           6.9355   -2.3083   27.7353 C.3     1  UNL1        0.0953
     20 N           7.7064   -2.9755   26.6350 N.3     1  UNL1       -0.2934
     21 C           8.4328   -4.2608   26.9008 C.3     1  UNL1        0.0748
     22 C           8.3882   -4.8787   28.2668 C.3     1  UNL1        0.0432
     23 H           8.4040   -2.3037   26.3150 H       1  UNL1        0.1236
     24 C           7.9222   -7.0713   25.0836 C.3     1  UNL1        0.0725
     25 C           8.7217   -8.0288   25.9166 C.3     1  UNL1        0.0188
     26 C           8.2725   -8.3695   27.3066 C.3     1  UNL1        0.0185
     27 C           8.0613   -9.8026   27.6964 C.3     1  UNL1        0.0689
     28 N           6.6804  -10.3882   27.6815 N.3     1  UNL1       -0.2937
     29 H           6.4378  -10.5453   26.7033 H       1  UNL1        0.1236
     30 C           6.4016  -11.6704   28.4082 C.3     1  UNL1        0.0957
     31 C           5.0642  -12.3354   28.2698 C.ar    1  UNL1       -0.0033
     32 C           4.0206  -12.1492   29.3310 C.ar    1  UNL1        0.0178
     33 C           2.6833  -12.8143   29.1926 C.ar    1  UNL1        0.0986
     34 N           2.3895  -13.6654   27.9930 N.ar    1  UNL1       -0.2423
     35 C           3.4331  -13.8516   26.9318 C.ar    1  UNL1        0.0986
     36 C           4.7704  -13.1866   27.0702 C.ar    1  UNL1        0.0178
@<TRIPOS>BOND
     1    13    14   ar
     2    14    15   ar
     3    15    16   ar
     4    16    17   ar
     5    17    18   ar
     6    17    19    1
     7    19    20    1
     8    20    21    1
     9    21    12    1
    10    12     1    1
    11     1    24    1
    12    24    25    1
    13    25    26    1
    14    26    27    1
    15    27    28    1
    16    28    30    1
    17    30    31    1
    18    31    32   ar
    19    32    33   ar
    20    33    34   ar
    21    34    35   ar
    22    35    36   ar
    23     2     1    1
    24     2     3    1
    25     3     4    1
    26     4     5    1
    27     5     6    1
    28     6     7   ar
    29     7     8   ar
    30     8     9   ar
    31     9    10   ar
    32    10    11   ar
    33    21    22    1
    34    18    13   ar
    35    36    31   ar
    36    11     2    1
    37    22    16    1
    38    11     6   ar
    39    20    23    1
    40    28    29    1
