@<TRIPOS>MOLECULE
*****
 40 44 0 0 0
SMALL
GASTEIGER

@<TRIPOS>ATOM
      1 C           4.2873   -0.9731   33.6421 C.3     1  UNL1        0.0832
      2 C           4.6835   -0.7653   35.0738 C.3     1  UNL1        0.0374
      3 C           4.3304    0.5147   35.7714 C.3     1  UNL1        0.0738
      4 N           3.5812    1.5870   35.0373 N.3     1  UNL1       -0.2734
      5 C           3.1850    1.3792   33.6056 C.3     1  UNL1        0.0828
      6 C           3.5381    0.0991   32.9080 C.3     1  UNL1        0.1103
      7 C           3.2281    2.8671   35.7350 C.3     1  UNL1        0.0575
      8 C           2.1079    3.7195   35.2167 C.3     1  UNL1        0.0160
      9 C           1.7548    4.9996   35.9145 C.3     1  UNL1        0.0014
     10 C           2.5219    5.4272   37.1305 C.3     1  UNL1        0.0001
     11 C           3.6421    4.5748   37.6488 C.3     1  UNL1        0.0014
     12 C           3.9952    3.2947   36.9511 C.3     1  UNL1        0.0160
     13 O           7.1274   -1.5090   32.8377 O.2     1  UNL1       -0.2684
     14 C           6.0605   -2.5212   32.5422 C.2     1  UNL1        0.2669
     15 N           4.6404   -2.2532   32.9444 N.am    1  UNL1       -0.3006
     16 H           3.9402   -2.9175   32.7504 H       1  UNL1        0.1497
     17 C           6.4136   -3.8012   31.8445 C.ar    1  UNL1        0.1761
     18 C           6.6729   -3.9624   30.3759 C.ar    1  UNL1        0.0673
     19 C           6.9890   -5.4056   30.1166 C.ar    1  UNL1        0.1792
     20 O           6.9250   -6.1364   31.4251 O.2     1  UNL1       -0.3532
     21 N           6.5694   -5.1448   32.4929 N.ar    1  UNL1       -0.0723
     22 C           7.3123   -6.0117   28.7832 C.ar    1  UNL1        0.0648
     23 C           6.5564   -5.5819   27.5609 C.ar    1  UNL1        0.0077
     24 C           6.8797   -6.1879   26.2274 C.ar    1  UNL1        0.0299
     25 C           7.9588   -7.2238   26.1162 C.ar    1  UNL1        0.1424
     26 F           8.2821   -7.8298   24.7828 F       1  UNL1       -0.2041
     27 C           8.7147   -7.6535   27.3384 C.ar    1  UNL1        0.0593
     28 C           8.3914   -7.0475   28.6719 C.ar    1  UNL1        0.1453
     29 F           9.1473   -7.4773   29.8942 F       1  UNL1       -0.2040
     30 C           3.1419   -0.1088   31.4762 C.2     1  UNL1        0.2252
     31 O           2.4643   -1.3815   31.0627 O.2     1  UNL1       -0.2750
     32 N           3.4232    0.9562   30.4580 N.am    1  UNL1       -0.3004
     33 H           3.8679    1.7915   30.7294 H       1  UNL1        0.1497
     34 C           3.0271    0.7484   29.0263 C.3     1  UNL1        0.1163
     35 C           1.6240    1.0439   28.5859 C.ar    1  UNL1       -0.0026
     36 C           1.2929    2.3754   27.9798 C.ar    1  UNL1       -0.0026
     37 C          -0.1102    2.6710   27.5393 C.ar    1  UNL1       -0.0003
     38 C          -1.1822    1.6350   27.7050 C.ar    1  UNL1       -0.0000
     39 C          -0.8512    0.3034   28.3112 C.ar    1  UNL1       -0.0003
     40 C           0.5519    0.0079   28.7516 C.ar    1  UNL1       -0.0026
@<TRIPOS>BOND
     1    13    14    2
     2    14    15   am
     3     1    15    1
     4     1     2    1
     5     2     3    1
     6     3     4    1
     7     4     7    1
     8     7     8    1
     9     8     9    1
    10     9    10    1
    11    10    11    1
    12    11    12    1
    13     4     5    1
    14     5     6    1
    15     6    30    1
    16    30    31    2
    17    30    32   am
    18    32    34    1
    19    34    35    1
    20    35    36   ar
    21    36    37   ar
    22    37    38   ar
    23    38    39   ar
    24    39    40   ar
    25    14    17    1
    26    17    18   ar
    27    18    19   ar
    28    19    22    1
    29    22    23   ar
    30    23    24   ar
    31    24    25   ar
    32    25    26    1
    33    25    27   ar
    34    27    28   ar
    35    28    29    1
    36    19    20   ar
    37    20    21   ar
    38     6     1    1
    39    40    35   ar
    40    21    17   ar
    41    12     7    1
    42    28    22   ar
    43    15    16    1
    44    32    33    1
@<TRIPOS>MOLECULE
*****
 40 44 0 0 0
SMALL
GASTEIGER

@<TRIPOS>ATOM
      1 C           6.2545   -2.7963   25.8320 C.3     1  UNL1        0.0832
      2 C           7.0999   -3.7398   25.0288 C.3     1  UNL1        0.0374
      3 C           6.7811   -3.9879   23.5843 C.3     1  UNL1        0.0738
      4 N           5.6171   -3.2926   22.9429 N.3     1  UNL1       -0.2734
      5 C           4.7717   -2.3491   23.7460 C.3     1  UNL1        0.0828
      6 C           5.0905   -2.1009   25.1906 C.3     1  UNL1        0.1103
      7 C           5.2984   -3.5408   21.4982 C.3     1  UNL1        0.0575
      8 C           4.1368   -4.4136   21.1257 C.3     1  UNL1        0.0160
      9 C           3.8180   -4.6618   19.6810 C.3     1  UNL1        0.0014
     10 C           4.6610   -4.0371   18.6090 C.3     1  UNL1        0.0001
     11 C           5.8226   -3.1643   18.9816 C.3     1  UNL1        0.0014
     12 C           6.1413   -2.9161   20.4262 C.3     1  UNL1        0.0160
     13 O           5.8438   -4.9738   27.8542 O.2     1  UNL1       -0.2684
     14 C           6.3679   -3.6369   28.2877 C.2     1  UNL1        0.2669
     15 N           6.5732   -2.5481   27.2766 N.am    1  UNL1       -0.3006
     16 H           6.9172   -1.6706   27.5611 H       1  UNL1        0.1497
     17 C           6.6865   -3.3887   29.7323 C.ar    1  UNL1        0.1761
     18 C           6.0516   -2.3508   30.6096 C.ar    1  UNL1        0.0673
     19 C           6.6688   -2.4555   31.9727 C.ar    1  UNL1        0.1792
     20 O           7.6851   -3.5582   31.9379 O.2     1  UNL1       -0.3532
     21 N           7.6961   -4.1349   30.5532 N.ar    1  UNL1       -0.0723
     22 C           6.3292   -1.6067   33.1619 C.ar    1  UNL1        0.0648
     23 C           7.3185   -0.6015   33.6729 C.ar    1  UNL1        0.0077
     24 C           6.9789    0.2474   34.8620 C.ar    1  UNL1        0.0299
     25 C           5.6501    0.0911   35.5402 C.ar    1  UNL1        0.1424
     26 F           5.3106    0.9399   36.7293 F       1  UNL1       -0.2041
     27 C           4.6610   -0.9141   35.0292 C.ar    1  UNL1        0.0593
     28 C           5.0005   -1.7629   33.8401 C.ar    1  UNL1        0.1453
     29 F           4.0113   -2.7681   33.3291 F       1  UNL1       -0.2040
     30 C           4.2451   -1.1573   25.9938 C.2     1  UNL1        0.2252
     31 O           4.1745    0.2927   25.6167 O.2     1  UNL1       -0.2750
     32 N           3.4704   -1.6639   27.1741 N.am    1  UNL1       -0.3004
     33 H           3.5167   -2.6157   27.4216 H       1  UNL1        0.1497
     34 C           2.6251   -0.7205   27.9774 C.3     1  UNL1        0.1163
     35 C           3.1724   -0.1049   29.2310 C.ar    1  UNL1       -0.0026
     36 C           4.4597    0.6638   29.1889 C.ar    1  UNL1       -0.0026
     37 C           5.0071    1.2793   30.4425 C.ar    1  UNL1       -0.0003
     38 C           4.2670    1.1261   31.7382 C.ar    1  UNL1       -0.0000
     39 C           2.9796    0.3574   31.7804 C.ar    1  UNL1       -0.0003
     40 C           2.4323   -0.2581   30.5267 C.ar    1  UNL1       -0.0026
@<TRIPOS>BOND
     1    13    14    2
     2    14    15   am
     3     1    15    1
     4     1     2    1
     5     2     3    1
     6     3     4    1
     7     4     7    1
     8     7     8    1
     9     8     9    1
    10     9    10    1
    11    10    11    1
    12    11    12    1
    13     4     5    1
    14     5     6    1
    15     6    30    1
    16    30    31    2
    17    30    32   am
    18    32    34    1
    19    34    35    1
    20    35    36   ar
    21    36    37   ar
    22    37    38   ar
    23    38    39   ar
    24    39    40   ar
    25    14    17    1
    26    17    18   ar
    27    18    19   ar
    28    19    22    1
    29    22    23   ar
    30    23    24   ar
    31    24    25   ar
    32    25    26    1
    33    25    27   ar
    34    27    28   ar
    35    28    29    1
    36    19    20   ar
    37    20    21   ar
    38     6     1    1
    39    40    35   ar
    40    21    17   ar
    41    12     7    1
    42    28    22   ar
    43    15    16    1
    44    32    33    1
@<TRIPOS>MOLECULE
*****
 40 44 0 0 0
SMALL
GASTEIGER

@<TRIPOS>ATOM
      1 C           4.5190   -2.0125   24.4758 C.3     1  UNL1        0.0832
      2 C           4.9266   -3.0159   23.4381 C.3     1  UNL1        0.0374
      3 C           4.7206   -2.7157   21.9829 C.3     1  UNL1        0.0738
      4 N           4.1071   -1.4121   21.5656 N.3     1  UNL1       -0.2734
      5 C           3.6994   -0.4087   22.6034 C.3     1  UNL1        0.0828
      6 C           3.9054   -0.7089   24.0585 C.3     1  UNL1        0.1103
      7 C           3.9011   -1.1119   20.1104 C.3     1  UNL1        0.0575
      8 C           2.8626   -0.1147   19.6900 C.3     1  UNL1        0.0160
      9 C           2.6566    0.1855   18.2348 C.3     1  UNL1        0.0014
     10 C           3.4893   -0.5116   17.2000 C.3     1  UNL1        0.0001
     11 C           4.5279   -1.5090   17.6205 C.3     1  UNL1        0.0014
     12 C           4.7338   -1.8091   19.0757 C.3     1  UNL1        0.0160
     13 O           7.0965   -1.2583   25.8128 O.2     1  UNL1       -0.2684
     14 C           6.0136   -1.9356   26.5995 C.2     1  UNL1        0.2669
     15 N           4.7249   -2.3127   25.9310 N.am    1  UNL1       -0.3006
     16 H           4.0142   -2.7572   26.4473 H       1  UNL1        0.1497
     17 C           6.2196   -2.2357   28.0547 C.ar    1  UNL1        0.1761
     18 C           5.6058   -1.4922   29.2038 C.ar    1  UNL1        0.0673
     19 C           6.0824   -2.1290   30.4755 C.ar    1  UNL1        0.1792
     20 O           6.9908   -3.2662   30.1123 O.2     1  UNL1       -0.3532
     21 N           7.0756   -3.3321   28.6162 N.ar    1  UNL1       -0.0723
     22 C           5.7151   -1.7035   31.8662 C.ar    1  UNL1        0.0648
     23 C           4.6523   -2.4452   32.6214 C.ar    1  UNL1        0.0077
     24 C           4.2851   -2.0196   34.0121 C.ar    1  UNL1        0.0299
     25 C           4.9806   -0.8524   34.6475 C.ar    1  UNL1        0.1424
     26 F           4.6134   -0.4269   36.0382 F       1  UNL1       -0.2041
     27 C           6.0434   -0.1108   33.8924 C.ar    1  UNL1        0.0593
     28 C           6.4106   -0.5363   32.5017 C.ar    1  UNL1        0.1453
     29 F           7.4735    0.2053   31.7464 F       1  UNL1       -0.2040
     30 C           3.4978    0.2945   25.0963 C.2     1  UNL1        0.2252
     31 O           4.4031    1.4447   25.4239 O.2     1  UNL1       -0.2750
     32 N           2.1848    0.1476   25.8066 N.am    1  UNL1       -0.3004
     33 H           1.5906   -0.6073   25.5916 H       1  UNL1        0.1497
     34 C           1.7771    1.1510   26.8444 C.3     1  UNL1        0.1163
     35 C           2.1877    0.9599   28.2744 C.ar    1  UNL1       -0.0026
     36 C           1.8823   -0.3299   28.9765 C.ar    1  UNL1       -0.0026
     37 C           2.2929   -0.5210   30.4065 C.ar    1  UNL1       -0.0003
     38 C           3.0090    0.5778   31.1344 C.ar    1  UNL1       -0.0000
     39 C           3.3144    1.8677   30.4323 C.ar    1  UNL1       -0.0003
     40 C           2.9038    2.0588   29.0023 C.ar    1  UNL1       -0.0026
@<TRIPOS>BOND
     1    13    14    2
     2    14    15   am
     3     1    15    1
     4     1     2    1
     5     2     3    1
     6     3     4    1
     7     4     7    1
     8     7     8    1
     9     8     9    1
    10     9    10    1
    11    10    11    1
    12    11    12    1
    13     4     5    1
    14     5     6    1
    15     6    30    1
    16    30    31    2
    17    30    32   am
    18    32    34    1
    19    34    35    1
    20    35    36   ar
    21    36    37   ar
    22    37    38   ar
    23    38    39   ar
    24    39    40   ar
    25    14    17    1
    26    17    18   ar
    27    18    19   ar
    28    19    22    1
    29    22    23   ar
    30    23    24   ar
    31    24    25   ar
    32    25    26    1
    33    25    27   ar
    34    27    28   ar
    35    28    29    1
    36    19    20   ar
    37    20    21   ar
    38     6     1    1
    39    40    35   ar
    40    21    17   ar
    41    12     7    1
    42    28    22   ar
    43    15    16    1
    44    32    33    1
@<TRIPOS>MOLECULE
*****
 40 44 0 0 0
SMALL
GASTEIGER

@<TRIPOS>ATOM
      1 C           4.5472   -1.9101   25.0493 C.3     1  UNL1        0.0832
      2 C           3.6640   -1.3190   23.9908 C.3     1  UNL1        0.0374
      3 C           4.0643   -1.4022   22.5476 C.3     1  UNL1        0.0738
      4 N           5.3478   -2.0765   22.1630 N.3     1  UNL1       -0.2734
      5 C           6.2310   -2.6676   23.2215 C.3     1  UNL1        0.0828
      6 C           5.8307   -2.5844   24.6647 C.3     1  UNL1        0.1103
      7 C           5.7481   -2.1597   20.7197 C.3     1  UNL1        0.0575
      8 C           4.8254   -2.7927   19.7208 C.3     1  UNL1        0.0160
      9 C           5.2257   -2.8758   18.2775 C.3     1  UNL1        0.0014
     10 C           6.5487   -2.3260   17.8333 C.3     1  UNL1        0.0001
     11 C           7.4714   -1.6930   18.8323 C.3     1  UNL1        0.0014
     12 C           7.0711   -1.6098   20.2755 C.3     1  UNL1        0.0160
     13 O           2.9621    0.4392   26.0333 O.2     1  UNL1       -0.2684
     14 C           3.3544   -0.6523   26.9846 C.2     1  UNL1        0.2669
     15 N           4.1469   -1.8270   26.4926 N.am    1  UNL1       -0.3006
     16 H           4.4044   -2.5433   27.1169 H       1  UNL1        0.1497
     17 C           2.9541   -0.5691   28.4277 C.ar    1  UNL1        0.1761
     18 C           3.8850   -0.5925   29.6037 C.ar    1  UNL1        0.0673
     19 C           3.0589   -0.4857   30.8511 C.ar    1  UNL1        0.1792
     20 O           1.6173   -0.3964   30.4461 O.2     1  UNL1       -0.3532
     21 N           1.5526   -0.4479   28.9484 N.ar    1  UNL1       -0.0723
     22 C           3.5823   -0.4709   32.2567 C.ar    1  UNL1        0.0648
     23 C           4.1151   -1.7309   32.8720 C.ar    1  UNL1        0.0077
     24 C           4.6385   -1.7161   34.2776 C.ar    1  UNL1        0.0299
     25 C           4.6292   -0.4413   35.0679 C.ar    1  UNL1        0.1424
     26 F           5.1526   -0.4265   36.4735 F       1  UNL1       -0.2041
     27 C           4.0964    0.8187   34.4527 C.ar    1  UNL1        0.0593
     28 C           3.5730    0.8038   33.0471 C.ar    1  UNL1        0.1453
     29 F           3.0402    2.0639   32.4319 F       1  UNL1       -0.2040
     30 C           6.7139   -3.1755   25.7233 C.2     1  UNL1        0.2252
     31 O           7.9589   -2.4555   26.1494 O.2     1  UNL1       -0.2750
     32 N           6.3521   -4.4867   26.3558 N.am    1  UNL1       -0.3004
     33 H           5.5350   -4.9592   26.0761 H       1  UNL1        0.1497
     34 C           7.2352   -5.0778   27.4143 C.3     1  UNL1        0.1163
     35 C           7.0301   -4.7095   28.8539 C.ar    1  UNL1       -0.0026
     36 C           6.7861   -3.2793   29.2347 C.ar    1  UNL1       -0.0026
     37 C           6.5810   -2.9110   30.6742 C.ar    1  UNL1       -0.0003
     38 C           6.6199   -3.9729   31.7330 C.ar    1  UNL1       -0.0000
     39 C           6.8639   -5.4031   31.3521 C.ar    1  UNL1       -0.0003
     40 C           7.0690   -5.7714   29.9126 C.ar    1  UNL1       -0.0026
@<TRIPOS>BOND
     1    13    14    2
     2    14    15   am
     3     1    15    1
     4     1     2    1
     5     2     3    1
     6     3     4    1
     7     4     7    1
     8     7     8    1
     9     8     9    1
    10     9    10    1
    11    10    11    1
    12    11    12    1
    13     4     5    1
    14     5     6    1
    15     6    30    1
    16    30    31    2
    17    30    32   am
    18    32    34    1
    19    34    35    1
    20    35    36   ar
    21    36    37   ar
    22    37    38   ar
    23    38    39   ar
    24    39    40   ar
    25    14    17    1
    26    17    18   ar
    27    18    19   ar
    28    19    22    1
    29    22    23   ar
    30    23    24   ar
    31    24    25   ar
    32    25    26    1
    33    25    27   ar
    34    27    28   ar
    35    28    29    1
    36    19    20   ar
    37    20    21   ar
    38     6     1    1
    39    40    35   ar
    40    21    17   ar
    41    12     7    1
    42    28    22   ar
    43    15    16    1
    44    32    33    1
@<TRIPOS>MOLECULE
*****
 40 44 0 0 0
SMALL
GASTEIGER

@<TRIPOS>ATOM
      1 C           7.5607   -3.8088   22.5457 C.3     1  UNL1        0.0832
      2 C           8.4216   -5.0223   22.3556 C.3     1  UNL1        0.0374
      3 C           8.6960   -5.9359   23.5132 C.3     1  UNL1        0.0738
      4 N           8.1094   -5.6360   24.8608 N.3     1  UNL1       -0.2734
      5 C           7.2484   -4.4225   25.0508 C.3     1  UNL1        0.0828
      6 C           6.9741   -3.5089   23.8932 C.3     1  UNL1        0.1103
      7 C           8.3838   -6.5497   26.0184 C.3     1  UNL1        0.0575
      8 C           8.9099   -7.9329   25.7738 C.3     1  UNL1        0.0160
      9 C           9.1843   -8.8466   26.9314 C.3     1  UNL1        0.0014
     10 C           8.9326   -8.3770   28.3335 C.3     1  UNL1        0.0001
     11 C           8.4064   -6.9937   28.5781 C.3     1  UNL1        0.0014
     12 C           8.1321   -6.0801   27.4205 C.3     1  UNL1        0.0160
     13 O           5.2604   -4.3708   20.7036 O.2     1  UNL1       -0.2684
     14 C           6.1361   -3.1761   20.4670 C.2     1  UNL1        0.2669
     15 N           7.2863   -2.8951   21.3881 N.am    1  UNL1       -0.3006
     16 H           7.8610   -2.1110   21.2328 H       1  UNL1        0.1497
     17 C           5.8617   -2.2625   19.3095 C.ar    1  UNL1        0.1761
     18 C           6.1107   -0.7837   19.2751 C.ar    1  UNL1        0.0673
     19 C           5.6930   -0.2745   17.9274 C.ar    1  UNL1        0.1792
     20 O           5.1858   -1.4387   17.1289 O.2     1  UNL1       -0.3532
     21 N           5.2901   -2.6673   17.9831 N.ar    1  UNL1       -0.0723
     22 C           5.7691    1.1488   17.4603 C.ar    1  UNL1        0.0648
     23 C           6.8056    1.5537   16.4544 C.ar    1  UNL1        0.0077
     24 C           6.8817    2.9770   15.9872 C.ar    1  UNL1        0.0299
     25 C           5.9213    3.9955   16.5260 C.ar    1  UNL1        0.1424
     26 F           5.9974    5.4189   16.0588 F       1  UNL1       -0.2041
     27 C           4.8849    3.5907   17.5319 C.ar    1  UNL1        0.0593
     28 C           4.8088    2.1674   17.9990 C.ar    1  UNL1        0.1453
     29 F           3.7723    1.7625   19.0049 F       1  UNL1       -0.2040
     30 C           6.1131   -2.2954   24.0832 C.2     1  UNL1        0.2252
     31 O           6.7076   -0.9251   23.9462 O.2     1  UNL1       -0.2750
     32 N           4.6576   -2.4522   24.4102 N.am    1  UNL1       -0.3004
     33 H           4.2674   -3.3516   24.5001 H       1  UNL1        0.1497
     34 C           3.7966   -1.2387   24.6002 C.3     1  UNL1        0.1163
     35 C           3.0186   -0.6827   23.4445 C.ar    1  UNL1       -0.0026
     36 C           2.0873    0.4742   23.6546 C.ar    1  UNL1       -0.0026
     37 C           1.3094    1.0303   22.4989 C.ar    1  UNL1       -0.0003
     38 C           1.4628    0.4294   21.1331 C.ar    1  UNL1       -0.0000
     39 C           2.3941   -0.7275   20.9230 C.ar    1  UNL1       -0.0003
     40 C           3.1720   -1.2836   22.0786 C.ar    1  UNL1       -0.0026
@<TRIPOS>BOND
     1    13    14    2
     2    14    15   am
     3     1    15    1
     4     1     2    1
     5     2     3    1
     6     3     4    1
     7     4     7    1
     8     7     8    1
     9     8     9    1
    10     9    10    1
    11    10    11    1
    12    11    12    1
    13     4     5    1
    14     5     6    1
    15     6    30    1
    16    30    31    2
    17    30    32   am
    18    32    34    1
    19    34    35    1
    20    35    36   ar
    21    36    37   ar
    22    37    38   ar
    23    38    39   ar
    24    39    40   ar
    25    14    17    1
    26    17    18   ar
    27    18    19   ar
    28    19    22    1
    29    22    23   ar
    30    23    24   ar
    31    24    25   ar
    32    25    26    1
    33    25    27   ar
    34    27    28   ar
    35    28    29    1
    36    19    20   ar
    37    20    21   ar
    38     6     1    1
    39    40    35   ar
    40    21    17   ar
    41    12     7    1
    42    28    22   ar
    43    15    16    1
    44    32    33    1
@<TRIPOS>MOLECULE
*****
 40 44 0 0 0
SMALL
GASTEIGER

@<TRIPOS>ATOM
      1 C           3.4170   -0.7193   28.0590 C.3     1  UNL1        0.0832
      2 C           2.5233   -0.2983   29.1877 C.3     1  UNL1        0.0374
      3 C           3.0464   -0.2842   30.5934 C.3     1  UNL1        0.0738
      4 N           4.4633   -0.6912   30.8705 N.3     1  UNL1       -0.2734
      5 C           5.3571   -1.1123   29.7418 C.3     1  UNL1        0.0828
      6 C           4.8339   -1.1264   28.3361 C.3     1  UNL1        0.1103
      7 C           4.9865   -0.6772   32.2763 C.3     1  UNL1        0.0575
      8 C           6.4432   -0.4269   32.5320 C.3     1  UNL1        0.0160
      9 C           6.9663   -0.4128   33.9378 C.3     1  UNL1        0.0014
     10 C           6.0327   -0.6491   35.0878 C.3     1  UNL1        0.0001
     11 C           4.5760   -0.8993   34.8320 C.3     1  UNL1        0.0014
     12 C           4.0529   -0.9134   33.4263 C.3     1  UNL1        0.0160
     13 O           3.6118    1.7464   26.3614 O.2     1  UNL1       -0.2684
     14 C           2.9913    0.4995   25.8044 C.2     1  UNL1        0.2669
     15 N           2.8939   -0.7334   26.6532 N.am    1  UNL1       -0.3006
     16 H           2.4866   -1.5518   26.2877 H       1  UNL1        0.1497
     17 C           2.4682    0.4854   24.3987 C.ar    1  UNL1        0.1761
     18 C           3.2447    0.1061   23.1727 C.ar    1  UNL1        0.0673
     19 C           2.3332    0.2345   21.9884 C.ar    1  UNL1        0.1792
     20 O           0.9932    0.6933   22.4825 O.2     1  UNL1       -0.3532
     21 N           1.0767    0.8483   23.9721 N.ar    1  UNL1       -0.0723
     22 C           2.6975   -0.0465   20.5607 C.ar    1  UNL1        0.0648
     23 C           2.4513    0.9910   19.5057 C.ar    1  UNL1        0.0077
     24 C           2.8156    0.7100   18.0780 C.ar    1  UNL1        0.0299
     25 C           3.4263   -0.6084   17.7054 C.ar    1  UNL1        0.1424
     26 F           3.7907   -0.8894   16.2777 F       1  UNL1       -0.2041
     27 C           3.6726   -1.6458   18.7604 C.ar    1  UNL1        0.0593
     28 C           3.3082   -1.3648   20.1880 C.ar    1  UNL1        0.1453
     29 F           3.5545   -2.4023   21.2431 F       1  UNL1       -0.2040
     30 C           5.7276   -1.5475   27.2074 C.2     1  UNL1        0.2252
     31 O           6.6800   -0.5623   26.5972 O.2     1  UNL1       -0.2750
     32 N           5.6690   -2.9538   26.6888 N.am    1  UNL1       -0.3004
     33 H           5.0439   -3.6004   27.0893 H       1  UNL1        0.1497
     34 C           6.5626   -3.3749   25.5602 C.3     1  UNL1        0.1163
     35 C           7.0084   -4.8028   25.4492 C.ar    1  UNL1       -0.0026
     36 C           6.7511   -5.7586   26.5761 C.ar    1  UNL1       -0.0026
     37 C           7.1969   -7.1865   26.4651 C.ar    1  UNL1       -0.0003
     38 C           7.9000   -7.6586   25.2271 C.ar    1  UNL1       -0.0000
     39 C           8.1574   -6.7028   24.1001 C.ar    1  UNL1       -0.0003
     40 C           7.7116   -5.2749   24.2111 C.ar    1  UNL1       -0.0026
@<TRIPOS>BOND
     1    13    14    2
     2    14    15   am
     3     1    15    1
     4     1     2    1
     5     2     3    1
     6     3     4    1
     7     4     7    1
     8     7     8    1
     9     8     9    1
    10     9    10    1
    11    10    11    1
    12    11    12    1
    13     4     5    1
    14     5     6    1
    15     6    30    1
    16    30    31    2
    17    30    32   am
    18    32    34    1
    19    34    35    1
    20    35    36   ar
    21    36    37   ar
    22    37    38   ar
    23    38    39   ar
    24    39    40   ar
    25    14    17    1
    26    17    18   ar
    27    18    19   ar
    28    19    22    1
    29    22    23   ar
    30    23    24   ar
    31    24    25   ar
    32    25    26    1
    33    25    27   ar
    34    27    28   ar
    35    28    29    1
    36    19    20   ar
    37    20    21   ar
    38     6     1    1
    39    40    35   ar
    40    21    17   ar
    41    12     7    1
    42    28    22   ar
    43    15    16    1
    44    32    33    1
@<TRIPOS>MOLECULE
*****
 40 44 0 0 0
SMALL
GASTEIGER

@<TRIPOS>ATOM
      1 C           1.7647    0.9370   28.1663 C.3     1  UNL1        0.0832
      2 C           0.8221    2.0120   28.6200 C.3     1  UNL1        0.0374
      3 C           0.8889    2.5225   30.0288 C.3     1  UNL1        0.0738
      4 N           1.8983    1.9579   30.9840 N.3     1  UNL1       -0.2734
      5 C           2.8409    0.8829   30.5304 C.3     1  UNL1        0.0828
      6 C           2.7741    0.3724   29.1215 C.3     1  UNL1        0.1103
      7 C           1.9651    2.4685   32.3929 C.3     1  UNL1        0.0575
      8 C           2.6956    1.6831   33.4414 C.3     1  UNL1        0.0160
      9 C           2.7624    2.1936   34.8503 C.3     1  UNL1        0.0014
     10 C           2.0986    3.4896   35.2107 C.3     1  UNL1        0.0001
     11 C           1.3680    4.2750   34.1621 C.3     1  UNL1        0.0014
     12 C           1.3013    3.7644   32.7533 C.3     1  UNL1        0.0160
     13 O           3.4364    2.2139   26.0274 O.2     1  UNL1       -0.2684
     14 C           2.5337    1.0649   25.6879 C.2     1  UNL1        0.2669
     15 N           1.6979    0.4264   26.7574 N.am    1  UNL1       -0.3006
     16 H           1.1055   -0.3277   26.5346 H       1  UNL1        0.1497
     17 C           2.4670    0.5544   24.2791 C.ar    1  UNL1        0.1761
     18 C           3.2245   -0.6177   23.7292 C.ar    1  UNL1        0.0673
     19 C           2.8567   -0.7701   22.2830 C.ar    1  UNL1        0.1792
     20 O           1.8719    0.3078   21.9391 O.2     1  UNL1       -0.3532
     21 N           1.6311    1.1264   23.1728 N.ar    1  UNL1       -0.0723
     22 C           3.3815   -1.8167   21.3453 C.ar    1  UNL1        0.0648
     23 C           3.1308   -1.6967   19.8713 C.ar    1  UNL1        0.0077
     24 C           3.6556   -2.7433   18.9336 C.ar    1  UNL1        0.0299
     25 C           4.4312   -3.9098   19.4700 C.ar    1  UNL1        0.1424
     26 F           4.9560   -4.9564   18.5323 F       1  UNL1       -0.2041
     27 C           4.6819   -4.0298   20.9439 C.ar    1  UNL1        0.0593
     28 C           4.1571   -2.9832   21.8816 C.ar    1  UNL1        0.1453
     29 F           4.4078   -3.1032   23.3556 F       1  UNL1       -0.2040
     30 C           3.7167   -0.7027   28.6678 C.2     1  UNL1        0.2252
     31 O           3.2681   -1.7157   27.6566 O.2     1  UNL1       -0.2750
     32 N           5.1078   -0.7647   29.2254 N.am    1  UNL1       -0.3004
     33 H           5.4022   -0.0998   29.8891 H       1  UNL1        0.1497
     34 C           6.0504   -1.8397   28.7717 C.3     1  UNL1        0.1163
     35 C           6.3558   -2.9989   29.6734 C.ar    1  UNL1       -0.0026
     36 C           6.7018   -4.3351   29.0860 C.ar    1  UNL1       -0.0026
     37 C           7.0071   -5.4943   29.9876 C.ar    1  UNL1       -0.0003
     38 C           6.9665   -5.3174   31.4766 C.ar    1  UNL1       -0.0000
     39 C           6.6205   -3.9812   32.0640 C.ar    1  UNL1       -0.0003
     40 C           6.3151   -2.8220   31.1624 C.ar    1  UNL1       -0.0026
@<TRIPOS>BOND
     1    13    14    2
     2    14    15   am
     3     1    15    1
     4     1     2    1
     5     2     3    1
     6     3     4    1
     7     4     7    1
     8     7     8    1
     9     8     9    1
    10     9    10    1
    11    10    11    1
    12    11    12    1
    13     4     5    1
    14     5     6    1
    15     6    30    1
    16    30    31    2
    17    30    32   am
    18    32    34    1
    19    34    35    1
    20    35    36   ar
    21    36    37   ar
    22    37    38   ar
    23    38    39   ar
    24    39    40   ar
    25    14    17    1
    26    17    18   ar
    27    18    19   ar
    28    19    22    1
    29    22    23   ar
    30    23    24   ar
    31    24    25   ar
    32    25    26    1
    33    25    27   ar
    34    27    28   ar
    35    28    29    1
    36    19    20   ar
    37    20    21   ar
    38     6     1    1
    39    40    35   ar
    40    21    17   ar
    41    12     7    1
    42    28    22   ar
    43    15    16    1
    44    32    33    1
@<TRIPOS>MOLECULE
*****
 40 44 0 0 0
SMALL
GASTEIGER

@<TRIPOS>ATOM
      1 C           4.0056    1.0199   29.6628 C.3     1  UNL1        0.0832
      2 C           5.2904    1.0827   30.4344 C.3     1  UNL1        0.0374
      3 C           5.2668    1.0552   31.9339 C.3     1  UNL1        0.0738
      4 N           3.9585    0.9650   32.6619 N.3     1  UNL1       -0.2734
      5 C           2.6737    0.9022   31.8904 C.3     1  UNL1        0.0828
      6 C           2.6972    0.9297   30.3908 C.3     1  UNL1        0.1103
      7 C           3.9349    0.9375   34.1615 C.3     1  UNL1        0.0575
      8 C           4.6688   -0.1399   34.9035 C.3     1  UNL1        0.0160
      9 C           4.6453   -0.1673   36.4031 C.3     1  UNL1        0.0014
     10 C           3.8878    0.8826   37.1607 C.3     1  UNL1        0.0001
     11 C           3.1540    1.9601   36.4186 C.3     1  UNL1        0.0014
     12 C           3.1775    1.9875   34.9190 C.3     1  UNL1        0.0160
     13 O           3.7786   -1.5381   28.1120 O.2     1  UNL1       -0.2684
     14 C           3.9156   -0.2316   27.3878 C.2     1  UNL1        0.2669
     15 N           4.0291    1.0474   28.1632 N.am    1  UNL1       -0.3006
     16 H           4.1191    1.9048   27.6879 H       1  UNL1        0.1497
     17 C           3.9391   -0.2042   25.8883 C.ar    1  UNL1        0.1761
     18 C           3.8299   -1.3951   24.9828 C.ar    1  UNL1        0.0673
     19 C           3.8993   -0.9080   23.5658 C.ar    1  UNL1        0.1792
     20 O           4.0514    0.5840   23.5956 O.2     1  UNL1       -0.3532
     21 N           4.0760    1.0189   25.0309 N.ar    1  UNL1       -0.0723
     22 C           3.8289   -1.7628   22.3352 C.ar    1  UNL1        0.0648
     23 C           3.1382   -1.2518   21.1056 C.ar    1  UNL1        0.0077
     24 C           3.0678   -2.1066   19.8750 C.ar    1  UNL1        0.0299
     25 C           3.6881   -3.4723   19.8740 C.ar    1  UNL1        0.1424
     26 F           3.6178   -4.3271   18.6434 F       1  UNL1       -0.2041
     27 C           4.3788   -3.9832   21.1036 C.ar    1  UNL1        0.0593
     28 C           4.4492   -3.1285   22.3342 C.ar    1  UNL1        0.1453
     29 F           5.1398   -3.6394   23.5638 F       1  UNL1       -0.2040
     30 C           1.4124    0.8669   29.6192 C.2     1  UNL1        0.2252
     31 O           0.6793   -0.4351   29.4877 O.2     1  UNL1       -0.2750
     32 N           0.8606    2.1062   28.9792 N.am    1  UNL1       -0.3004
     33 H           1.3418    2.9608   29.0655 H       1  UNL1        0.1497
     34 C          -0.4241    2.0435   28.2076 C.3     1  UNL1        0.1163
     35 C          -0.4050    2.1328   26.7104 C.ar    1  UNL1       -0.0026
     36 C           0.5263    1.2630   25.9190 C.ar    1  UNL1       -0.0026
     37 C           0.5454    1.3523   24.4218 C.ar    1  UNL1       -0.0003
     38 C          -0.3667    2.3113   23.7159 C.ar    1  UNL1       -0.0000
     39 C          -1.2980    3.1812   24.5073 C.ar    1  UNL1       -0.0003
     40 C          -1.3171    3.0919   26.0045 C.ar    1  UNL1       -0.0026
@<TRIPOS>BOND
     1    13    14    2
     2    14    15   am
     3     1    15    1
     4     1     2    1
     5     2     3    1
     6     3     4    1
     7     4     7    1
     8     7     8    1
     9     8     9    1
    10     9    10    1
    11    10    11    1
    12    11    12    1
    13     4     5    1
    14     5     6    1
    15     6    30    1
    16    30    31    2
    17    30    32   am
    18    32    34    1
    19    34    35    1
    20    35    36   ar
    21    36    37   ar
    22    37    38   ar
    23    38    39   ar
    24    39    40   ar
    25    14    17    1
    26    17    18   ar
    27    18    19   ar
    28    19    22    1
    29    22    23   ar
    30    23    24   ar
    31    24    25   ar
    32    25    26    1
    33    25    27   ar
    34    27    28   ar
    35    28    29    1
    36    19    20   ar
    37    20    21   ar
    38     6     1    1
    39    40    35   ar
    40    21    17   ar
    41    12     7    1
    42    28    22   ar
    43    15    16    1
    44    32    33    1
@<TRIPOS>MOLECULE
*****
 40 44 0 0 0
SMALL
GASTEIGER

@<TRIPOS>ATOM
      1 C           6.5401   -2.7429   31.6845 C.3     1  UNL1        0.0832
      2 C           7.1143   -4.0702   32.0826 C.3     1  UNL1        0.0374
      3 C           7.3855   -5.1133   31.0394 C.3     1  UNL1        0.0738
      4 N           7.0824   -4.8291   29.5981 N.3     1  UNL1       -0.2734
      5 C           6.5082   -3.5018   29.2000 C.3     1  UNL1        0.0828
      6 C           6.2370   -2.4587   30.2432 C.3     1  UNL1        0.1103
      7 C           7.3537   -5.8722   28.5548 C.3     1  UNL1        0.0575
      8 C           6.6407   -5.8174   27.2362 C.3     1  UNL1        0.0160
      9 C           6.9119   -6.8606   26.1930 C.3     1  UNL1        0.0014
     10 C           7.8961   -7.9585   26.4683 C.3     1  UNL1        0.0001
     11 C           8.6091   -8.0133   27.7870 C.3     1  UNL1        0.0014
     12 C           8.3379   -6.9702   28.8301 C.3     1  UNL1        0.0160
     13 O           3.9109   -2.7143   33.1291 O.2     1  UNL1       -0.2684
     14 C           4.9543   -1.6854   33.4501 C.2     1  UNL1        0.2669
     15 N           6.2689   -1.6998   32.7278 N.am    1  UNL1       -0.3006
     16 H           6.9537   -1.0245   32.9385 H       1  UNL1        0.1497
     17 C           4.6830   -0.6423   34.4933 C.ar    1  UNL1        0.1761
     18 C           3.6945    0.4803   34.3815 C.ar    1  UNL1        0.0673
     19 C           3.7532    1.2777   35.6506 C.ar    1  UNL1        0.1792
     20 O           4.7781    0.6479   36.5468 O.2     1  UNL1       -0.3532
     21 N           5.3527   -0.5387   35.8315 N.ar    1  UNL1       -0.0723
     22 C           2.9314    2.4918   35.9679 C.ar    1  UNL1        0.0648
     23 C           2.5732    3.4603   34.8799 C.ar    1  UNL1        0.0077
     24 C           1.7514    4.6744   35.1972 C.ar    1  UNL1        0.0299
     25 C           1.2878    4.9199   36.6024 C.ar    1  UNL1        0.1424
     26 F           0.4659    6.1339   36.9197 F       1  UNL1       -0.2041
     27 C           1.6459    3.9514   37.6903 C.ar    1  UNL1        0.0593
     28 C           2.4677    2.7374   37.3731 C.ar    1  UNL1        0.1453
     29 F           2.8259    1.7688   38.4610 F       1  UNL1       -0.2040
     30 C           5.6627   -1.1313   29.8452 C.2     1  UNL1        0.2252
     31 O           6.3084    0.1373   30.3179 O.2     1  UNL1       -0.2750
     32 N           4.4428   -1.0727   28.9744 N.am    1  UNL1       -0.3004
     33 H           4.0190   -1.9054   28.6642 H       1  UNL1        0.1497
     34 C           3.8685    0.2545   28.5764 C.3     1  UNL1        0.1163
     35 C           2.7578    0.8627   29.3805 C.ar    1  UNL1       -0.0026
     36 C           1.3415    0.7665   28.8961 C.ar    1  UNL1       -0.0026
     37 C           0.2309    1.3747   29.7002 C.ar    1  UNL1       -0.0003
     38 C           0.5366    2.0791   30.9887 C.ar    1  UNL1       -0.0000
     39 C           1.9530    2.1754   31.4732 C.ar    1  UNL1       -0.0003
     40 C           3.0636    1.5672   30.6691 C.ar    1  UNL1       -0.0026
@<TRIPOS>BOND
     1    13    14    2
     2    14    15   am
     3     1    15    1
     4     1     2    1
     5     2     3    1
     6     3     4    1
     7     4     7    1
     8     7     8    1
     9     8     9    1
    10     9    10    1
    11    10    11    1
    12    11    12    1
    13     4     5    1
    14     5     6    1
    15     6    30    1
    16    30    31    2
    17    30    32   am
    18    32    34    1
    19    34    35    1
    20    35    36   ar
    21    36    37   ar
    22    37    38   ar
    23    38    39   ar
    24    39    40   ar
    25    14    17    1
    26    17    18   ar
    27    18    19   ar
    28    19    22    1
    29    22    23   ar
    30    23    24   ar
    31    24    25   ar
    32    25    26    1
    33    25    27   ar
    34    27    28   ar
    35    28    29    1
    36    19    20   ar
    37    20    21   ar
    38     6     1    1
    39    40    35   ar
    40    21    17   ar
    41    12     7    1
    42    28    22   ar
    43    15    16    1
    44    32    33    1
