@<TRIPOS>MOLECULE
*****
 23 25 0 0 0
SMALL
GASTEIGER

@<TRIPOS>ATOM
      1 C          -9.3256  -18.0361   23.4788 C.3     1  UNL1        0.0718
      2 C          -9.9595  -18.1091   24.8363 C.3     1  UNL1        0.0257
      3 C         -10.5262  -19.4871   25.0097 C.3     1  UNL1        0.0690
      4 N         -10.2425  -20.2658   23.7593 N.3     1  UNL1       -0.2971
      5 C          -9.5005  -19.3689   22.8132 C.3     1  UNL1        0.0759
      6 H         -11.1187  -20.5686   23.3339 H       1  UNL1        0.1233
      7 C          -8.6245  -17.6683   22.2048 C.2     1  UNL1        0.1795
      8 O          -9.2949  -16.7634   21.2141 O.2     1  UNL1       -0.2908
      9 C          -7.2529  -18.2055   21.9215 C.ar    1  UNL1        0.0641
     10 C          -6.0408  -18.0291   22.7873 C.ar    1  UNL1        0.0098
     11 C          -4.8913  -18.7279   22.1236 C.ar    1  UNL1        0.0066
     12 C          -3.4527  -18.8890   22.5163 C.ar    1  UNL1        0.0005
     13 C          -2.5157  -19.6582   21.6330 C.ar    1  UNL1        0.0000
     14 C          -3.0174  -20.2664   20.3569 C.ar    1  UNL1        0.0005
     15 C          -4.4561  -20.1054   19.9642 C.ar    1  UNL1        0.0065
     16 C          -5.3930  -19.3361   20.8475 C.ar    1  UNL1        0.0295
     17 S          -6.8525  -19.0132   20.7227 S.2     1  UNL1       -0.0841
     18 C          -9.0041  -16.6264   23.8780 C.3     1  UNL1        0.0087
     19 C          -8.8864  -16.2663   25.3294 C.3     1  UNL1        0.0005
     20 C          -7.2838  -15.1428   24.5113 C.3     1  UNL1        0.0000
     21 C          -7.5984  -15.7127   25.8627 C.3     1  UNL1        0.0000
     22 C          -7.9130  -16.2825   27.2141 C.3     1  UNL1        0.0000
     23 C          -6.3103  -15.1590   26.3960 C.3     1  UNL1        0.0000
@<TRIPOS>BOND
     1    20    21    1
     2    21    22    1
     3    21    23    1
     4    21    19    1
     5    19    18    1
     6    18     1    1
     7     1     7    1
     8     7     8    2
     9     7     9    1
    10     9    10   ar
    11    10    11   ar
    12    11    12   ar
    13    12    13   ar
    14    13    14   ar
    15    14    15   ar
    16    15    16   ar
    17    16    17   ar
    18     1     2    1
    19     2     3    1
    20     3     4    1
    21     4     5    1
    22     5     1    1
    23    17     9   ar
    24    16    11   ar
    25     4     6    1
@<TRIPOS>MOLECULE
*****
 23 25 0 0 0
SMALL
GASTEIGER

@<TRIPOS>ATOM
      1 C          -9.8971  -17.4321   21.2914 C.3     1  UNL1        0.0718
      2 C         -11.2996  -17.7704   20.8807 C.3     1  UNL1        0.0257
      3 C         -12.0185  -16.4873   20.5860 C.3     1  UNL1        0.0690
      4 N         -11.0604  -15.3560   20.8146 N.3     1  UNL1       -0.2971
      5 C          -9.7493  -15.9400   21.2505 C.3     1  UNL1        0.0759
      6 H         -11.4221  -14.7372   21.5403 H       1  UNL1        0.1233
      7 C          -8.4629  -17.4046   21.7298 C.2     1  UNL1        0.1795
      8 O          -7.3932  -17.9496   20.8305 O.2     1  UNL1       -0.2908
      9 C          -8.0983  -16.8321   23.0674 C.ar    1  UNL1        0.0641
     10 C          -9.0262  -16.6528   24.2323 C.ar    1  UNL1        0.0098
     11 C          -8.2432  -16.0483   25.3599 C.ar    1  UNL1        0.0066
     12 C          -8.6335  -15.6497   26.7523 C.ar    1  UNL1        0.0005
     13 C          -7.6118  -15.0568   27.6767 C.ar    1  UNL1        0.0000
     14 C          -6.2000  -14.8625   27.2088 C.ar    1  UNL1        0.0005
     15 C          -5.8098  -15.2611   25.8164 C.ar    1  UNL1        0.0065
     16 C          -6.8314  -15.8540   24.8920 C.ar    1  UNL1        0.0295
     17 S          -6.7419  -16.3385   23.4752 S.2     1  UNL1       -0.0841
     18 C          -9.7451  -18.9185   21.4239 C.3     1  UNL1        0.0087
     19 C         -10.6745  -19.6912   22.3123 C.3     1  UNL1        0.0005
     20 C         -11.7001  -19.1768   24.0965 C.3     1  UNL1        0.0000
     21 C         -10.3807  -19.8153   23.7780 C.3     1  UNL1        0.0000
     22 C          -9.0613  -20.4538   23.4595 C.3     1  UNL1        0.0000
     23 C         -10.0870  -19.9395   25.2437 C.3     1  UNL1        0.0000
@<TRIPOS>BOND
     1    20    21    1
     2    21    22    1
     3    21    23    1
     4    21    19    1
     5    19    18    1
     6    18     1    1
     7     1     7    1
     8     7     8    2
     9     7     9    1
    10     9    10   ar
    11    10    11   ar
    12    11    12   ar
    13    12    13   ar
    14    13    14   ar
    15    14    15   ar
    16    15    16   ar
    17    16    17   ar
    18     1     2    1
    19     2     3    1
    20     3     4    1
    21     4     5    1
    22     5     1    1
    23    17     9   ar
    24    16    11   ar
    25     4     6    1
@<TRIPOS>MOLECULE
*****
 23 25 0 0 0
SMALL
GASTEIGER

@<TRIPOS>ATOM
      1 C          -6.5665  -16.6498   23.2905 C.3     1  UNL1        0.0718
      2 C          -5.4069  -16.2851   24.1695 C.3     1  UNL1        0.0257
      3 C          -5.7044  -14.9581   24.8024 C.3     1  UNL1        0.0690
      4 N          -7.0478  -14.5026   24.3146 N.3     1  UNL1       -0.2971
      5 C          -7.5805  -15.5482   23.3802 C.3     1  UNL1        0.0759
      6 H          -6.9544  -13.6139   23.8226 H       1  UNL1        0.1233
      7 C          -7.5572  -17.2720   22.3518 C.2     1  UNL1        0.1795
      8 O          -7.1324  -17.6713   20.9698 O.2     1  UNL1       -0.2908
      9 C          -8.9728  -17.4948   22.7952 C.ar    1  UNL1        0.0641
     10 C          -9.4114  -18.3452   23.9503 C.ar    1  UNL1        0.0098
     11 C         -10.9080  -18.2824   24.0303 C.ar    1  UNL1        0.0066
     12 C         -11.8907  -18.9200   24.9671 C.ar    1  UNL1        0.0005
     13 C         -13.3597  -18.6684   24.7981 C.ar    1  UNL1        0.0000
     14 C         -13.8460  -17.7792   23.6923 C.ar    1  UNL1        0.0005
     15 C         -12.8633  -17.1416   22.7555 C.ar    1  UNL1        0.0065
     16 C         -11.3943  -17.3932   22.9245 C.ar    1  UNL1        0.0295
     17 S         -10.1983  -16.9064   22.1612 S.2     1  UNL1       -0.0841
     18 C          -5.7595  -17.8815   23.0047 C.3     1  UNL1        0.0087
     19 C          -4.2676  -17.8530   23.1579 C.3     1  UNL1        0.0005
     20 C          -2.2509  -17.8316   22.5002 C.3     1  UNL1        0.0000
     21 C          -3.4114  -18.7672   22.3327 C.3     1  UNL1        0.0000
     22 C          -4.5718  -19.7028   22.1651 C.3     1  UNL1        0.0000
     23 C          -2.5551  -19.6815   21.5075 C.3     1  UNL1        0.0000
@<TRIPOS>BOND
     1    20    21    1
     2    21    22    1
     3    21    23    1
     4    21    19    1
     5    19    18    1
     6    18     1    1
     7     1     7    1
     8     7     8    2
     9     7     9    1
    10     9    10   ar
    11    10    11   ar
    12    11    12   ar
    13    12    13   ar
    14    13    14   ar
    15    14    15   ar
    16    15    16   ar
    17    16    17   ar
    18     1     2    1
    19     2     3    1
    20     3     4    1
    21     4     5    1
    22     5     1    1
    23    17     9   ar
    24    16    11   ar
    25     4     6    1
@<TRIPOS>MOLECULE
*****
 23 25 0 0 0
SMALL
GASTEIGER

@<TRIPOS>ATOM
      1 C          -9.4419  -17.8308   22.5385 C.3     1  UNL1        0.0718
      2 C         -10.2268  -16.5547   22.6133 C.3     1  UNL1        0.0257
      3 C         -10.7374  -16.2433   21.2376 C.3     1  UNL1        0.0690
      4 N         -10.2681  -17.3270   20.3127 N.3     1  UNL1       -0.2971
      5 C          -9.4675  -18.3080   21.1168 C.3     1  UNL1        0.0759
      6 H          -9.6865  -16.9262   19.5768 H       1  UNL1        0.1233
      7 C          -8.6156  -19.0608   22.7712 C.2     1  UNL1        0.1795
      8 O          -9.2399  -20.2785   23.3856 O.2     1  UNL1       -0.2908
      9 C          -7.1650  -19.0732   22.3896 C.ar    1  UNL1        0.0641
     10 C          -6.1091  -18.1421   22.9074 C.ar    1  UNL1        0.0098
     11 C          -4.8072  -18.5122   22.2609 C.ar    1  UNL1        0.0066
     12 C          -3.4253  -17.9430   22.3891 C.ar    1  UNL1        0.0005
     13 C          -2.2948  -18.5336   21.5999 C.ar    1  UNL1        0.0000
     14 C          -2.5460  -19.6935   20.6825 C.ar    1  UNL1        0.0005
     15 C          -3.9278  -20.2627   20.5544 C.ar    1  UNL1        0.0065
     16 C          -5.0584  -19.6721   21.3436 C.ar    1  UNL1        0.0295
     17 S          -6.5157  -20.0188   21.4231 S.2     1  UNL1       -0.0841
     18 C          -9.2437  -17.6106   24.0089 C.3     1  UNL1        0.0087
     19 C          -9.1103  -16.2169   24.5474 C.3     1  UNL1        0.0005
     20 C          -8.5797  -16.7065   26.5421 C.3     1  UNL1        0.0000
     21 C          -7.9689  -15.8703   25.4568 C.3     1  UNL1        0.0000
     22 C          -7.3582  -15.0341   24.3716 C.3     1  UNL1        0.0000
     23 C          -6.8275  -15.5236   26.3662 C.3     1  UNL1        0.0000
@<TRIPOS>BOND
     1    20    21    1
     2    21    22    1
     3    21    23    1
     4    21    19    1
     5    19    18    1
     6    18     1    1
     7     1     7    1
     8     7     8    2
     9     7     9    1
    10     9    10   ar
    11    10    11   ar
    12    11    12   ar
    13    12    13   ar
    14    13    14   ar
    15    14    15   ar
    16    15    16   ar
    17    16    17   ar
    18     1     2    1
    19     2     3    1
    20     3     4    1
    21     4     5    1
    22     5     1    1
    23    17     9   ar
    24    16    11   ar
    25     4     6    1
@<TRIPOS>MOLECULE
*****
 23 25 0 0 0
SMALL
GASTEIGER

@<TRIPOS>ATOM
      1 C         -11.0884   -6.5279   18.1250 C.3     1  UNL1        0.0718
      2 C          -9.8875   -6.5543   19.0234 C.3     1  UNL1        0.0257
      3 C          -9.1884   -7.8664   18.8244 C.3     1  UNL1        0.0690
      4 N          -9.9572   -8.6510   17.8029 N.3     1  UNL1       -0.2971
      5 C         -11.1315   -7.8237   17.3707 C.3     1  UNL1        0.0759
      6 H         -10.2827   -9.5268   18.2123 H       1  UNL1        0.1233
      7 C         -12.3347   -6.2171   17.3504 C.2     1  UNL1        0.1795
      8 O         -12.2357   -5.6101   15.9823 O.2     1  UNL1       -0.2908
      9 C         -13.6801   -6.5132   17.9439 C.ar    1  UNL1        0.0641
     10 C         -14.0639   -7.7635   18.6784 C.ar    1  UNL1        0.0098
     11 C         -15.4989   -7.6341   19.0956 C.ar    1  UNL1        0.0066
     12 C         -16.4124   -8.5558   19.8479 C.ar    1  UNL1        0.0005
     13 C         -17.8291   -8.1471   20.1235 C.ar    1  UNL1        0.0000
     14 C         -18.3322   -6.8168   19.6469 C.ar    1  UNL1        0.0005
     15 C         -17.4186   -5.8952   18.8946 C.ar    1  UNL1        0.0065
     16 C         -16.0020   -6.3038   18.6189 C.ar    1  UNL1        0.0295
     17 S         -14.8779   -5.6111   17.9072 S.2     1  UNL1       -0.0841
     18 C         -11.3058   -5.1671   18.7173 C.3     1  UNL1        0.0087
     19 C         -10.2253   -4.1303   18.6312 C.3     1  UNL1        0.0005
     20 C         -11.3354   -2.3234   18.5793 C.3     1  UNL1        0.0000
     21 C         -10.3537   -2.9918   17.6630 C.3     1  UNL1        0.0000
     22 C          -9.3721   -3.6602   16.7467 C.3     1  UNL1        0.0000
     23 C         -10.4822   -1.8533   16.6949 C.3     1  UNL1        0.0000
@<TRIPOS>BOND
     1    20    21    1
     2    21    22    1
     3    21    23    1
     4    21    19    1
     5    19    18    1
     6    18     1    1
     7     1     7    1
     8     7     8    2
     9     7     9    1
    10     9    10   ar
    11    10    11   ar
    12    11    12   ar
    13    12    13   ar
    14    13    14   ar
    15    14    15   ar
    16    15    16   ar
    17    16    17   ar
    18     1     2    1
    19     2     3    1
    20     3     4    1
    21     4     5    1
    22     5     1    1
    23    17     9   ar
    24    16    11   ar
    25     4     6    1
@<TRIPOS>MOLECULE
*****
 23 25 0 0 0
SMALL
GASTEIGER

@<TRIPOS>ATOM
      1 C          -6.4425  -15.9609   24.1842 C.3     1  UNL1        0.0718
      2 C          -5.2656  -16.3090   25.0466 C.3     1  UNL1        0.0257
      3 C          -5.3762  -15.5247   26.3204 C.3     1  UNL1        0.0690
      4 N          -6.6215  -14.6918   26.2453 N.3     1  UNL1       -0.2971
      5 C          -7.2805  -14.9615   24.9251 C.3     1  UNL1        0.0759
      6 H          -6.3815  -13.7031   26.3169 H       1  UNL1        0.1233
      7 C          -7.4900  -15.8154   23.1205 C.2     1  UNL1        0.1795
      8 O          -7.1777  -15.0690   21.8575 O.2     1  UNL1       -0.2908
      9 C          -8.8499  -16.4164   23.3198 C.ar    1  UNL1        0.0641
     10 C         -10.1162  -15.9744   22.6482 C.ar    1  UNL1        0.0098
     11 C         -11.2311  -16.8497   23.1390 C.ar    1  UNL1        0.0066
     12 C         -12.6974  -16.8787   22.8241 C.ar    1  UNL1        0.0005
     13 C         -13.5863  -17.8906   23.4841 C.ar    1  UNL1        0.0000
     14 C         -13.0090  -18.8735   24.4591 C.ar    1  UNL1        0.0005
     15 C         -11.5428  -18.8446   24.7740 C.ar    1  UNL1        0.0065
     16 C         -10.6538  -17.8327   24.1139 C.ar    1  UNL1        0.0295
     17 S          -9.1822  -17.5648   24.2257 S.2     1  UNL1       -0.0841
     18 C          -5.8236  -16.9299   23.2210 C.3     1  UNL1        0.0087
     19 C          -4.3422  -17.1648   23.2413 C.3     1  UNL1        0.0005
     20 C          -2.3836  -17.7953   22.7252 C.3     1  UNL1        0.0000
     21 C          -3.7621  -18.3568   22.5394 C.3     1  UNL1        0.0000
     22 C          -5.1406  -18.9182   22.3537 C.3     1  UNL1        0.0000
     23 C          -3.1820  -19.5488   21.8375 C.3     1  UNL1        0.0000
@<TRIPOS>BOND
     1    20    21    1
     2    21    22    1
     3    21    23    1
     4    21    19    1
     5    19    18    1
     6    18     1    1
     7     1     7    1
     8     7     8    2
     9     7     9    1
    10     9    10   ar
    11    10    11   ar
    12    11    12   ar
    13    12    13   ar
    14    13    14   ar
    15    14    15   ar
    16    15    16   ar
    17    16    17   ar
    18     1     2    1
    19     2     3    1
    20     3     4    1
    21     4     5    1
    22     5     1    1
    23    17     9   ar
    24    16    11   ar
    25     4     6    1
@<TRIPOS>MOLECULE
*****
 23 25 0 0 0
SMALL
GASTEIGER

@<TRIPOS>ATOM
      1 C          -6.1370  -19.1017   21.5923 C.3     1  UNL1        0.0718
      2 C          -5.3339  -20.2255   21.0073 C.3     1  UNL1        0.0257
      3 C          -6.1616  -20.8810   19.9418 C.3     1  UNL1        0.0690
      4 N          -7.4762  -20.1623   19.8682 N.3     1  UNL1       -0.2971
      5 C          -7.4609  -19.0627   20.8883 C.3     1  UNL1        0.0759
      6 H          -8.2371  -20.8110   20.0699 H       1  UNL1        0.1233
      7 C          -6.6873  -17.9351   22.3579 C.2     1  UNL1        0.1795
      8 O          -5.7589  -16.8907   22.9030 O.2     1  UNL1       -0.2908
      9 C          -8.1659  -17.8129   22.5783 C.ar    1  UNL1        0.0641
     10 C          -9.0318  -18.7927   23.3134 C.ar    1  UNL1        0.0098
     11 C         -10.4393  -18.2748   23.2918 C.ar    1  UNL1        0.0066
     12 C         -11.7178  -18.8189   23.8569 C.ar    1  UNL1        0.0005
     13 C         -13.0004  -18.0631   23.6736 C.ar    1  UNL1        0.0000
     14 C         -13.0045  -16.7632   22.9251 C.ar    1  UNL1        0.0005
     15 C         -11.7261  -16.2191   22.3600 C.ar    1  UNL1        0.0065
     16 C         -10.4435  -16.9749   22.5433 C.ar    1  UNL1        0.0295
     17 S          -9.0385  -16.6894   22.1024 S.2     1  UNL1       -0.0841
     18 C          -4.9281  -18.8969   22.4563 C.3     1  UNL1        0.0087
     19 C          -3.5551  -19.0824   21.8813 C.3     1  UNL1        0.0005
     20 C          -2.7749  -18.1395   20.1487 C.3     1  UNL1        0.0000
     21 C          -2.6820  -17.8900   21.6248 C.3     1  UNL1        0.0000
     22 C          -2.5890  -17.6406   23.1010 C.3     1  UNL1        0.0000
     23 C          -1.8088  -16.6976   21.3684 C.3     1  UNL1        0.0000
@<TRIPOS>BOND
     1    20    21    1
     2    21    22    1
     3    21    23    1
     4    21    19    1
     5    19    18    1
     6    18     1    1
     7     1     7    1
     8     7     8    2
     9     7     9    1
    10     9    10   ar
    11    10    11   ar
    12    11    12   ar
    13    12    13   ar
    14    13    14   ar
    15    14    15   ar
    16    15    16   ar
    17    16    17   ar
    18     1     2    1
    19     2     3    1
    20     3     4    1
    21     4     5    1
    22     5     1    1
    23    17     9   ar
    24    16    11   ar
    25     4     6    1
@<TRIPOS>MOLECULE
*****
 23 25 0 0 0
SMALL
GASTEIGER

@<TRIPOS>ATOM
      1 C         -11.8069   -7.0252   18.0422 C.3     1  UNL1        0.0718
      2 C         -10.8277   -7.0680   19.1776 C.3     1  UNL1        0.0257
      3 C          -9.6781   -7.9390   18.7657 C.3     1  UNL1        0.0690
      4 N          -9.9468   -8.4345   17.3756 N.3     1  UNL1       -0.2971
      5 C         -11.2625   -7.8696   16.9285 C.3     1  UNL1        0.0759
      6 H          -9.9889   -9.4536   17.3734 H       1  UNL1        0.1233
      7 C         -12.9499   -6.7957   17.0983 C.2     1  UNL1        0.1795
      8 O         -12.8131   -5.8032   15.9821 O.2     1  UNL1       -0.2908
      9 C         -14.2297   -7.5588   17.2707 C.ar    1  UNL1        0.0641
     10 C         -14.3880   -8.8629   17.9947 C.ar    1  UNL1        0.0098
     11 C         -15.8321   -9.2619   17.9209 C.ar    1  UNL1        0.0066
     12 C         -16.5733  -10.4515   18.4550 C.ar    1  UNL1        0.0005
     13 C         -18.0488  -10.5836   18.2195 C.ar    1  UNL1        0.0000
     14 C         -18.7830   -9.5260   17.4498 C.ar    1  UNL1        0.0005
     15 C         -18.0418   -8.3364   16.9156 C.ar    1  UNL1        0.0065
     16 C         -16.5664   -8.2044   17.1512 C.ar    1  UNL1        0.0295
     17 S         -15.5760   -7.1518   16.7494 S.2     1  UNL1       -0.0841
     18 C         -12.5903   -6.1327   18.9586 C.3     1  UNL1        0.0087
     19 C         -12.2458   -4.6765   19.0625 C.3     1  UNL1        0.0005
     20 C         -12.3186   -2.5808   19.3828 C.3     1  UNL1        0.0000
     21 C         -13.1134   -3.7563   19.8690 C.3     1  UNL1        0.0000
     22 C         -13.9082   -4.9318   20.3552 C.3     1  UNL1        0.0000
     23 C         -13.9810   -2.8360   20.6755 C.3     1  UNL1        0.0000
@<TRIPOS>BOND
     1    20    21    1
     2    21    22    1
     3    21    23    1
     4    21    19    1
     5    19    18    1
     6    18     1    1
     7     1     7    1
     8     7     8    2
     9     7     9    1
    10     9    10   ar
    11    10    11   ar
    12    11    12   ar
    13    12    13   ar
    14    13    14   ar
    15    14    15   ar
    16    15    16   ar
    17    16    17   ar
    18     1     2    1
    19     2     3    1
    20     3     4    1
    21     4     5    1
    22     5     1    1
    23    17     9   ar
    24    16    11   ar
    25     4     6    1
@<TRIPOS>MOLECULE
*****
 23 25 0 0 0
SMALL
GASTEIGER

@<TRIPOS>ATOM
      1 C         -13.9696   -4.3003   18.8478 C.3     1  UNL1        0.0718
      2 C         -12.9978   -3.7944   19.8723 C.3     1  UNL1        0.0257
      3 C         -13.7584   -2.9618   20.8614 C.3     1  UNL1        0.0690
      4 N         -15.2004   -2.9531   20.4481 N.3     1  UNL1       -0.2971
      5 C         -15.3308   -3.7803   19.2036 C.3     1  UNL1        0.0759
      6 H         -15.5011   -1.9965   20.2610 H       1  UNL1        0.1233
      7 C         -14.6882   -4.9429   17.6986 C.2     1  UNL1        0.1795
      8 O         -14.6198   -4.3272   16.3326 O.2     1  UNL1       -0.2908
      9 C         -15.4752   -6.2013   17.9155 C.ar    1  UNL1        0.0641
     10 C         -15.3326   -7.1416   19.0755 C.ar    1  UNL1        0.0098
     11 C         -16.3122   -8.2618   18.8874 C.ar    1  UNL1        0.0066
     12 C         -16.6197   -9.4756   19.7134 C.ar    1  UNL1        0.0005
     13 C         -17.6753  -10.4414   19.2631 C.ar    1  UNL1        0.0000
     14 C         -18.4234  -10.1935   17.9868 C.ar    1  UNL1        0.0005
     15 C         -18.1159   -8.9798   17.1608 C.ar    1  UNL1        0.0065
     16 C         -17.0603   -8.0139   17.6111 C.ar    1  UNL1        0.0295
     17 S         -16.5430   -6.7405   17.0105 S.2     1  UNL1       -0.0841
     18 C         -12.7586   -4.9546   18.2517 C.3     1  UNL1        0.0087
     19 C         -11.5310   -5.1636   19.0880 C.3     1  UNL1        0.0005
     20 C          -9.4403   -5.4764   19.2644 C.3     1  UNL1        0.0000
     21 C         -10.5986   -6.2978   18.7810 C.3     1  UNL1        0.0000
     22 C         -11.7569   -7.1192   18.2976 C.3     1  UNL1        0.0000
     23 C          -9.6662   -7.4320   18.4740 C.3     1  UNL1        0.0000
@<TRIPOS>BOND
     1    20    21    1
     2    21    22    1
     3    21    23    1
     4    21    19    1
     5    19    18    1
     6    18     1    1
     7     1     7    1
     8     7     8    2
     9     7     9    1
    10     9    10   ar
    11    10    11   ar
    12    11    12   ar
    13    12    13   ar
    14    13    14   ar
    15    14    15   ar
    16    15    16   ar
    17    16    17   ar
    18     1     2    1
    19     2     3    1
    20     3     4    1
    21     4     5    1
    22     5     1    1
    23    17     9   ar
    24    16    11   ar
    25     4     6    1
