@<TRIPOS>MOLECULE
*****
 51 58 0 0 0
SMALL
GASTEIGER

@<TRIPOS>ATOM
      1 C           6.5039   -3.6819   29.9380 C.ar    1  UNL1        0.1063
      2 C           6.2572   -2.2904   29.4349 C.ar    1  UNL1        0.0210
      3 C           6.2687   -2.0129   27.9609 C.ar    1  UNL1        0.0186
      4 C           6.5268   -3.1266   26.9900 C.ar    1  UNL1        0.0784
      5 N           6.7735   -4.5181   27.4930 N.ar    1  UNL1       -0.2911
      6 C           7.0316   -5.6318   26.5220 C.3     1  UNL1        0.1336
      7 C           6.7620   -4.7957   28.9670 C.ar    1  UNL1        0.2744
      8 O           7.0086   -6.1871   29.4701 O.2     1  UNL1       -0.2656
      9 C           6.0220   -0.6213   27.4579 C.ar    1  UNL1        0.0041
     10 C           7.1565    0.3558   27.3680 C.ar    1  UNL1        0.0206
     11 C           6.9098    1.7473   26.8650 C.ar    1  UNL1        0.1003
     12 N           5.5286    2.1615   26.4518 N.ar    1  UNL1       -0.2290
     13 C           4.3941    1.1843   26.5417 C.ar    1  UNL1        0.1360
     14 C           4.6409   -0.2071   27.0447 C.ar    1  UNL1        0.0390
     15 N           3.0130    1.5985   26.1285 N.am    1  UNL1       -0.2373
     16 C           2.6332    1.6012   24.6774 C.3     1  UNL1        0.1244
     17 C           1.2521    2.0155   24.2642 C.3     1  UNL1        0.1277
     18 N           0.2505    2.4270   25.3022 N.ar    1  UNL1       -0.3256
     19 C           0.6302    2.4243   26.7534 C.ar    1  UNL1        0.1140
     20 C          -0.5609    2.8769   27.5450 C.ar    1  UNL1        0.0187
     21 C          -1.6766    3.1593   26.5830 C.ar    1  UNL1       -0.0089
     22 C          -1.1752    2.8813   25.1969 C.ar    1  UNL1        0.0333
     23 C          -2.2909    3.1637   24.2350 C.3     1  UNL1        0.0438
     24 C          -3.4819    3.6163   25.0265 C.3     1  UNL1        0.0096
     25 C          -4.1393    3.7180   23.6821 C.3     1  UNL1        0.0007
     26 C          -4.8104    4.0901   25.5370 C.3     1  UNL1        0.0007
     27 C          -3.1023    3.6136   26.4777 C.3     1  UNL1        0.0279
     28 C           2.0114    2.0101   27.1666 C.2     1  UNL1        0.2697
     29 O           2.3910    2.0074   28.6177 O.2     1  UNL1       -0.2679
     30 C           3.5064   -1.1843   27.1345 C.3     1  UNL1        0.1664
     31 O           2.5374   -1.1057   28.2770 O.3     1  UNL1       -0.3771
     32 H           2.9969   -1.3138   29.1055 H       1  UNL1        0.2109
     33 N           6.4924   -3.9595   31.4120 N.pl3   1  UNL1       -0.2942
     34 H           6.6941   -4.8640   31.7442 H       1  UNL1        0.1537
     35 C           5.5361   -0.6574   34.3158 C.ar    1  UNL1        0.0674
     36 C           4.4649   -1.6194   33.8948 C.ar    1  UNL1        0.0190
     37 C           4.7837   -2.7200   32.9268 C.ar    1  UNL1        0.0357
     38 C           6.1737   -2.8587   32.3800 C.ar    1  UNL1        0.1324
     39 N           7.2447   -1.8968   32.8011 N.ar    1  UNL1       -0.2278
     40 C           6.9259   -0.7960   33.7690 C.ar    1  UNL1        0.1147
     41 C           4.7053    2.0402   33.2994 C.3     1  UNL1        0.0229
     42 C           4.8019    1.7920   34.7755 C.3     1  UNL1        0.0889
     43 C           4.4831    2.8927   35.7435 C.3     1  UNL1        0.0921
     44 N           4.5797    2.6446   37.2196 N.3     1  UNL1       -0.2668
     45 C           4.9950    1.2959   37.7279 C.3     1  UNL1        0.0939
     46 C           5.3138    0.1952   36.7600 C.3     1  UNL1        0.1081
     47 N           5.2173    0.4433   35.2838 N.pl3   1  UNL1       -0.3051
     48 C           4.2609    3.7453   38.1876 C.3     1  UNL1        0.1173
     49 C           3.8359    5.1783   38.0619 C.3     1  UNL1        0.1606
     50 O           3.8101    5.3017   39.5567 O.3     1  UNL1       -0.3507
     51 C           4.2350    3.8687   39.6824 C.3     1  UNL1        0.1606
@<TRIPOS>BOND
     1    42    41    1
     2    42    43    1
     3    43    44    1
     4    44    48    1
     5    48    49    1
     6    49    50    1
     7    50    51    1
     8    44    45    1
     9    45    46    1
    10    46    47    1
    11    47    35    1
    12    35    36   ar
    13    36    37   ar
    14    37    38   ar
    15    38    33    1
    16    33     1    1
    17     1     2   ar
    18     2     3   ar
    19     3     9    1
    20     9    10   ar
    21    10    11   ar
    22    11    12   ar
    23    12    13   ar
    24    13    15    1
    25    15    16    1
    26    16    17    1
    27    17    18    1
    28    18    19   ar
    29    19    20   ar
    30    20    21   ar
    31    21    22   ar
    32    22    23    1
    33    23    24    1
    34    24    25    1
    35    24    26    1
    36    24    27    1
    37    19    28    1
    38    28    29    2
    39    13    14   ar
    40    14    30    1
    41    30    31    1
    42     3     4   ar
    43     4     5   ar
    44     5     6    1
    45     5     7   ar
    46     7     8    2
    47    38    39   ar
    48    39    40   ar
    49    47    42    1
    50    40    35   ar
    51    51    48    1
    52     7     1   ar
    53    14     9   ar
    54    28    15   am
    55    22    18   ar
    56    27    21    1
    57    33    34    1
    58    31    32    1
@<TRIPOS>MOLECULE
*****
 51 58 0 0 0
SMALL
GASTEIGER

@<TRIPOS>ATOM
      1 C           2.9643    1.9607   34.8153 C.ar    1  UNL1        0.1063
      2 C           4.1911    1.6134   34.0251 C.ar    1  UNL1        0.0210
      3 C           5.4844    1.3347   34.7319 C.ar    1  UNL1        0.0186
      4 C           5.5510    1.4034   36.2288 C.ar    1  UNL1        0.0784
      5 N           4.3242    1.7508   37.0191 N.ar    1  UNL1       -0.2911
      6 C           4.3909    1.8194   38.5159 C.3     1  UNL1        0.1336
      7 C           3.0309    2.0294   36.3123 C.ar    1  UNL1        0.2744
      8 O           1.8041    2.3768   37.1024 O.2     1  UNL1       -0.2656
      9 C           6.7112    0.9874   33.9417 C.ar    1  UNL1        0.0041
     10 C           7.8958    1.9074   33.9525 C.ar    1  UNL1        0.0206
     11 C           9.1226    1.5600   33.1623 C.ar    1  UNL1        0.1003
     12 N           9.1646    0.2925   32.3612 N.ar    1  UNL1       -0.2290
     13 C           7.9800   -0.6275   32.3504 C.ar    1  UNL1        0.1360
     14 C           6.7533   -0.2801   33.1406 C.ar    1  UNL1        0.0390
     15 N           8.0220   -1.8950   31.5493 N.am    1  UNL1       -0.2373
     16 C           8.7309   -3.1011   32.0903 C.3     1  UNL1        0.1244
     17 C           8.7729   -4.3686   31.2892 C.3     1  UNL1        0.1277
     18 N           8.1061   -4.4299   29.9470 N.ar    1  UNL1       -0.3256
     19 C           7.3972   -3.2238   29.4060 C.ar    1  UNL1        0.1140
     20 C           6.8350   -3.5808   28.0618 C.ar    1  UNL1        0.0187
     21 C           7.1965   -5.0075   27.7723 C.ar    1  UNL1       -0.0089
     22 C           7.9820   -5.5323   28.9374 C.ar    1  UNL1        0.0333
     23 C           8.3435   -6.9590   28.6478 C.3     1  UNL1        0.0438
     24 C           7.7814   -7.3159   27.3037 C.3     1  UNL1        0.0096
     25 C           8.3998   -8.6551   27.5757 C.3     1  UNL1        0.0007
     26 C           7.3485   -7.9528   26.0165 C.3     1  UNL1        0.0007
     27 C           7.0724   -6.1098   26.7626 C.3     1  UNL1        0.0279
     28 C           7.3551   -1.9563   30.2070 C.2     1  UNL1        0.2697
     29 O           6.6462   -0.7503   29.6660 O.2     1  UNL1       -0.2679
     30 C           5.5686   -1.2002   33.1298 C.3     1  UNL1        0.1664
     31 O           4.5441   -1.0910   32.0395 O.3     1  UNL1       -0.3771
     32 H           4.0868   -0.2384   32.1097 H       1  UNL1        0.2109
     33 N           1.6709    2.2394   34.1085 N.pl3   1  UNL1       -0.2942
     34 H           0.8681    2.4769   34.6265 H       1  UNL1        0.1537
     35 C           1.4605    1.9897   29.6203 C.ar    1  UNL1        0.0674
     36 C           1.0610    3.2547   30.3207 C.ar    1  UNL1        0.0190
     37 C           1.1312    3.3379   31.8167 C.ar    1  UNL1        0.0357
     38 C           1.6008    2.1561   32.6124 C.ar    1  UNL1        0.1324
     39 N           2.0003    0.8913   31.9121 N.ar    1  UNL1       -0.2278
     40 C           1.9302    0.8081   30.4160 C.ar    1  UNL1        0.1147
     41 C          -1.0301    0.9770   28.2894 C.3     1  UNL1        0.0229
     42 C           0.1451    1.4002   27.4589 C.3     1  UNL1        0.0889
     43 C           0.0750    1.3170   25.9628 C.3     1  UNL1        0.0921
     44 N           1.2501    1.7402   25.1322 N.3     1  UNL1       -0.2668
     45 C           2.4954    2.2465   25.7976 C.3     1  UNL1        0.0939
     46 C           2.5656    2.3297   27.2937 C.3     1  UNL1        0.1081
     47 N           1.3904    1.9066   28.1243 N.pl3   1  UNL1       -0.3051
     48 C           1.1801    1.6570   23.6361 C.3     1  UNL1        0.1173
     49 C           0.1682    2.0436   22.5985 C.3     1  UNL1        0.1606
     50 O           1.0811    1.5393   21.5204 O.3     1  UNL1       -0.3507
     51 C           2.0930    1.1528   22.5579 C.3     1  UNL1        0.1606
@<TRIPOS>BOND
     1    42    41    1
     2    42    43    1
     3    43    44    1
     4    44    48    1
     5    48    49    1
     6    49    50    1
     7    50    51    1
     8    44    45    1
     9    45    46    1
    10    46    47    1
    11    47    35    1
    12    35    36   ar
    13    36    37   ar
    14    37    38   ar
    15    38    33    1
    16    33     1    1
    17     1     2   ar
    18     2     3   ar
    19     3     9    1
    20     9    10   ar
    21    10    11   ar
    22    11    12   ar
    23    12    13   ar
    24    13    15    1
    25    15    16    1
    26    16    17    1
    27    17    18    1
    28    18    19   ar
    29    19    20   ar
    30    20    21   ar
    31    21    22   ar
    32    22    23    1
    33    23    24    1
    34    24    25    1
    35    24    26    1
    36    24    27    1
    37    19    28    1
    38    28    29    2
    39    13    14   ar
    40    14    30    1
    41    30    31    1
    42     3     4   ar
    43     4     5   ar
    44     5     6    1
    45     5     7   ar
    46     7     8    2
    47    38    39   ar
    48    39    40   ar
    49    47    42    1
    50    40    35   ar
    51    51    48    1
    52     7     1   ar
    53    14     9   ar
    54    28    15   am
    55    22    18   ar
    56    27    21    1
    57    33    34    1
    58    31    32    1
@<TRIPOS>MOLECULE
*****
 51 58 0 0 0
SMALL
GASTEIGER

@<TRIPOS>ATOM
      1 C           3.6095    1.5632   35.2877 C.ar    1  UNL1        0.1063
      2 C           3.7185    2.0851   33.8856 C.ar    1  UNL1        0.0210
      3 C           3.0221    3.3572   33.5027 C.ar    1  UNL1        0.0186
      4 C           2.2168    4.1075   34.5217 C.ar    1  UNL1        0.0784
      5 N           2.1078    3.5856   35.9238 N.ar    1  UNL1       -0.2911
      6 C           1.3025    4.3359   36.9428 C.3     1  UNL1        0.1336
      7 C           2.8042    2.3134   36.3068 C.ar    1  UNL1        0.2744
      8 O           2.6952    1.7915   37.7088 O.2     1  UNL1       -0.2656
      9 C           3.1312    3.8791   32.1006 C.ar    1  UNL1        0.0041
     10 C           4.4664    4.2910   31.5553 C.ar    1  UNL1        0.0206
     11 C           4.5754    4.8129   30.1532 C.ar    1  UNL1        0.1003
     12 N           3.3491    4.9228   29.2965 N.ar    1  UNL1       -0.2290
     13 C           2.0138    4.5110   29.8418 C.ar    1  UNL1        0.1360
     14 C           1.9048    3.9891   31.2439 C.ar    1  UNL1        0.0390
     15 N           0.7875    4.6209   28.9851 N.am    1  UNL1       -0.2373
     16 C          -0.1107    5.8157   29.1107 C.3     1  UNL1        0.1244
     17 C          -1.3370    5.9256   28.2540 C.3     1  UNL1        0.1277
     18 N          -1.6652    4.8408   27.2715 N.ar    1  UNL1       -0.3256
     19 C          -0.7671    3.6459   27.1458 C.ar    1  UNL1        0.1140
     20 C          -1.3432    2.7413   26.0970 C.ar    1  UNL1        0.0187
     21 C          -2.5973    3.3771   25.5746 C.ar    1  UNL1       -0.0089
     22 C          -2.7964    4.6746   26.3005 C.ar    1  UNL1        0.0333
     23 C          -4.0505    5.3104   25.7781 C.3     1  UNL1        0.0438
     24 C          -4.6265    4.4059   24.7293 C.3     1  UNL1        0.0096
     25 C          -5.6916    5.4575   24.6315 C.3     1  UNL1        0.0007
     26 C          -5.4253    3.7212   23.6601 C.3     1  UNL1        0.0007
     27 C          -3.7285    3.2110   24.6035 C.3     1  UNL1        0.0279
     28 C           0.4592    3.5360   28.0026 C.2     1  UNL1        0.2697
     29 O           1.3573    2.3412   27.8768 O.2     1  UNL1       -0.2679
     30 C           0.5696    3.5772   31.7892 C.3     1  UNL1        0.1664
     31 O           0.1610    2.1341   31.7618 O.3     1  UNL1       -0.3771
     32 H           0.0568    1.8450   30.8418 H       1  UNL1        0.2109
     33 N           4.3059    0.2910   35.6706 N.pl3   1  UNL1       -0.2942
     34 H           4.4249    0.0617   36.6206 H       1  UNL1        0.1537
     35 C           5.8509   -2.4773   32.4769 C.ar    1  UNL1        0.0674
     36 C           6.7609   -1.4512   33.0844 C.ar    1  UNL1        0.0190
     37 C           6.2459   -0.5284   34.1490 C.ar    1  UNL1        0.0357
     38 C           4.8209   -0.6318   34.6060 C.ar    1  UNL1        0.1324
     39 N           3.9110   -1.6579   33.9985 N.ar    1  UNL1       -0.2278
     40 C           4.4260   -2.5807   32.9338 C.ar    1  UNL1        0.1147
     41 C           5.7909   -1.6299   29.5996 C.3     1  UNL1        0.0229
     42 C           6.3359   -2.9763   29.9738 C.3     1  UNL1        0.0889
     43 C           6.8510   -3.8991   28.9092 C.3     1  UNL1        0.0921
     44 N           7.3960   -5.2455   29.2832 N.3     1  UNL1       -0.2668
     45 C           7.4261   -5.6693   30.7218 C.3     1  UNL1        0.0939
     46 C           6.9110   -4.7465   31.7864 C.3     1  UNL1        0.1081
     47 N           6.3660   -3.4000   31.4123 N.pl3   1  UNL1       -0.3051
     48 C           7.9111   -6.1683   28.2187 C.3     1  UNL1        0.1173
     49 C           8.1319   -6.0621   26.7389 C.3     1  UNL1        0.1606
     50 O           8.6395   -7.4735   26.7133 O.3     1  UNL1       -0.3507
     51 C           8.4187   -7.5797   28.1931 C.3     1  UNL1        0.1606
@<TRIPOS>BOND
     1    42    41    1
     2    42    43    1
     3    43    44    1
     4    44    48    1
     5    48    49    1
     6    49    50    1
     7    50    51    1
     8    44    45    1
     9    45    46    1
    10    46    47    1
    11    47    35    1
    12    35    36   ar
    13    36    37   ar
    14    37    38   ar
    15    38    33    1
    16    33     1    1
    17     1     2   ar
    18     2     3   ar
    19     3     9    1
    20     9    10   ar
    21    10    11   ar
    22    11    12   ar
    23    12    13   ar
    24    13    15    1
    25    15    16    1
    26    16    17    1
    27    17    18    1
    28    18    19   ar
    29    19    20   ar
    30    20    21   ar
    31    21    22   ar
    32    22    23    1
    33    23    24    1
    34    24    25    1
    35    24    26    1
    36    24    27    1
    37    19    28    1
    38    28    29    2
    39    13    14   ar
    40    14    30    1
    41    30    31    1
    42     3     4   ar
    43     4     5   ar
    44     5     6    1
    45     5     7   ar
    46     7     8    2
    47    38    39   ar
    48    39    40   ar
    49    47    42    1
    50    40    35   ar
    51    51    48    1
    52     7     1   ar
    53    14     9   ar
    54    28    15   am
    55    22    18   ar
    56    27    21    1
    57    33    34    1
    58    31    32    1
@<TRIPOS>MOLECULE
*****
 51 58 0 0 0
SMALL
GASTEIGER

@<TRIPOS>ATOM
      1 C          -3.9436    4.4167   21.9356 C.ar    1  UNL1        0.1063
      2 C          -2.5988    4.4199   21.2710 C.ar    1  UNL1        0.0210
      3 C          -2.4731    4.0200   19.8308 C.ar    1  UNL1        0.0186
      4 C          -3.6920    3.6171   19.0551 C.ar    1  UNL1        0.0784
      5 N          -5.0368    3.6140   19.7196 N.ar    1  UNL1       -0.2911
      6 C          -6.2557    3.2110   18.9439 C.3     1  UNL1        0.1336
      7 C          -5.1626    4.0138   21.1599 C.ar    1  UNL1        0.2744
      8 O          -6.5073    4.0106   21.8244 O.2     1  UNL1       -0.2656
      9 C          -1.1282    4.0232   19.1663 C.ar    1  UNL1        0.0041
     10 C          -0.8431    4.9892   18.0548 C.ar    1  UNL1        0.0206
     11 C           0.5017    4.9924   17.3903 C.ar    1  UNL1        0.1003
     12 N           1.5614    4.0294   17.8374 N.ar    1  UNL1       -0.2290
     13 C           1.2762    3.0634   18.9489 C.ar    1  UNL1        0.1360
     14 C          -0.0686    3.0603   19.6134 C.ar    1  UNL1        0.0390
     15 N           2.3358    2.1004   19.3960 N.am    1  UNL1       -0.2373
     16 C           3.4086    2.5518   20.3422 C.3     1  UNL1        0.1244
     17 C           4.4683    1.5889   20.7892 C.3     1  UNL1        0.1277
     18 N           4.4551    0.1744   20.2901 N.ar    1  UNL1       -0.3256
     19 C           3.3823   -0.2770   19.3439 C.ar    1  UNL1        0.1140
     20 C           3.6254   -1.7220   19.0229 C.ar    1  UNL1        0.0187
     21 C           4.8485   -2.1635   19.7707 C.ar    1  UNL1       -0.0089
     22 C           5.3613   -0.9915   20.5539 C.ar    1  UNL1        0.0333
     23 C           6.5843   -1.4330   21.3017 C.3     1  UNL1        0.0438
     24 C           6.8274   -2.8779   20.9807 C.3     1  UNL1        0.0096
     25 C           8.0023   -2.7217   21.9000 C.3     1  UNL1        0.0007
     26 C           7.3161   -4.2902   20.8519 C.3     1  UNL1        0.0007
     27 C           5.7546   -3.3294   20.0345 C.3     1  UNL1        0.0279
     28 C           2.3227    0.6859   18.8968 C.2     1  UNL1        0.2697
     29 O           1.2499    0.2345   17.9507 O.2     1  UNL1       -0.2679
     30 C          -0.3538    2.0942   20.7249 C.3     1  UNL1        0.1664
     31 O          -0.5893    0.6451   20.4171 O.3     1  UNL1       -0.3771
     32 H          -1.4089    0.5519   19.9069 H       1  UNL1        0.2109
     33 N          -4.0694    4.8165   23.3758 N.pl3   1  UNL1       -0.2942
     34 H          -4.7327    5.4933   23.6427 H       1  UNL1        0.1537
     35 C          -1.4147    2.9224   26.4767 C.ar    1  UNL1        0.0674
     36 C          -2.7580    3.4628   26.8684 C.ar    1  UNL1        0.0190
     37 C          -3.6429    4.0942   25.8348 C.ar    1  UNL1        0.0357
     38 C          -3.1844    4.1851   24.4094 C.ar    1  UNL1        0.1324
     39 N          -1.8411    3.6448   24.0177 N.ar    1  UNL1       -0.2278
     40 C          -0.9562    3.0134   25.0514 C.ar    1  UNL1        0.1147
     41 C           0.5527    4.6025   27.9956 C.3     1  UNL1        0.0229
     42 C           0.4538    3.1311   28.2697 C.3     1  UNL1        0.0889
     43 C           1.3387    2.4996   29.3034 C.3     1  UNL1        0.0921
     44 N           1.2399    1.0283   29.5775 N.3     1  UNL1       -0.2668
     45 C           0.2563    0.1883   28.8181 C.3     1  UNL1        0.0939
     46 C          -0.6286    0.8196   27.7845 C.3     1  UNL1        0.1081
     47 N          -0.5298    2.2910   27.5103 N.pl3   1  UNL1       -0.3051
     48 C           2.1248    0.3969   30.6112 C.3     1  UNL1        0.1173
     49 C           2.6702    0.8209   31.9426 C.3     1  UNL1        0.1606
     50 O           3.3762   -0.4962   32.0728 O.3     1  UNL1       -0.3507
     51 C           2.8308   -0.9202   30.7414 C.3     1  UNL1        0.1606
@<TRIPOS>BOND
     1    42    41    1
     2    42    43    1
     3    43    44    1
     4    44    48    1
     5    48    49    1
     6    49    50    1
     7    50    51    1
     8    44    45    1
     9    45    46    1
    10    46    47    1
    11    47    35    1
    12    35    36   ar
    13    36    37   ar
    14    37    38   ar
    15    38    33    1
    16    33     1    1
    17     1     2   ar
    18     2     3   ar
    19     3     9    1
    20     9    10   ar
    21    10    11   ar
    22    11    12   ar
    23    12    13   ar
    24    13    15    1
    25    15    16    1
    26    16    17    1
    27    17    18    1
    28    18    19   ar
    29    19    20   ar
    30    20    21   ar
    31    21    22   ar
    32    22    23    1
    33    23    24    1
    34    24    25    1
    35    24    26    1
    36    24    27    1
    37    19    28    1
    38    28    29    2
    39    13    14   ar
    40    14    30    1
    41    30    31    1
    42     3     4   ar
    43     4     5   ar
    44     5     6    1
    45     5     7   ar
    46     7     8    2
    47    38    39   ar
    48    39    40   ar
    49    47    42    1
    50    40    35   ar
    51    51    48    1
    52     7     1   ar
    53    14     9   ar
    54    28    15   am
    55    22    18   ar
    56    27    21    1
    57    33    34    1
    58    31    32    1
@<TRIPOS>MOLECULE
*****
 51 58 0 0 0
SMALL
GASTEIGER

@<TRIPOS>ATOM
      1 C           7.9524   -4.7865   27.6106 C.ar    1  UNL1        0.1063
      2 C           7.9818   -4.4443   26.1505 C.ar    1  UNL1        0.0210
      3 C           8.0239   -5.5378   25.1246 C.ar    1  UNL1        0.0186
      4 C           8.0366   -6.9734   25.5588 C.ar    1  UNL1        0.0784
      5 N           8.0072   -7.3157   27.0190 N.ar    1  UNL1       -0.2911
      6 C           8.0200   -8.7514   27.4531 C.3     1  UNL1        0.1336
      7 C           7.9652   -6.2222   28.0449 C.ar    1  UNL1        0.2744
      8 O           7.9358   -6.5644   29.5050 O.2     1  UNL1       -0.2656
      9 C           8.0532   -5.1955   23.6644 C.ar    1  UNL1        0.0041
     10 C           8.9376   -5.9674   22.7307 C.ar    1  UNL1        0.0206
     11 C           8.9669   -5.6251   21.2705 C.ar    1  UNL1        0.1003
     12 N           8.1118   -4.5108   20.7442 N.ar    1  UNL1       -0.2290
     13 C           7.2274   -3.7388   21.6779 C.ar    1  UNL1        0.1360
     14 C           7.1981   -4.0812   23.1380 C.ar    1  UNL1        0.0390
     15 N           6.3723   -2.6245   21.1516 N.am    1  UNL1       -0.2373
     16 C           6.9556   -1.2553   20.9650 C.3     1  UNL1        0.1244
     17 C           6.1005   -0.1410   20.4386 C.3     1  UNL1        0.1277
     18 N           4.6619   -0.3959   20.0988 N.ar    1  UNL1       -0.3256
     19 C           4.0785   -1.7652   20.2854 C.ar    1  UNL1        0.1140
     20 C           2.6387   -1.7165   19.8674 C.ar    1  UNL1        0.0187
     21 C           2.3324   -0.3171   19.4225 C.ar    1  UNL1       -0.0089
     22 C           3.5827    0.4990   19.5655 C.ar    1  UNL1        0.0333
     23 C           3.2764    1.8984   19.1207 C.3     1  UNL1        0.0438
     24 C           1.8366    1.9471   18.7027 C.3     1  UNL1        0.0096
     25 C           2.1320    3.3896   18.4163 C.3     1  UNL1        0.0007
     26 C           0.4586    2.2974   18.2248 C.3     1  UNL1        0.0007
     27 C           1.2532    0.5779   18.8892 C.3     1  UNL1        0.0279
     28 C           4.9337   -2.8795   20.8117 C.2     1  UNL1        0.2697
     29 O           4.3503   -4.2487   20.9983 O.2     1  UNL1       -0.2679
     30 C           6.3137   -3.3092   24.0718 C.3     1  UNL1        0.1664
     31 O           4.8283   -3.5161   24.0407 O.3     1  UNL1       -0.3771
     32 H           4.4764   -3.2070   23.1912 H       1  UNL1        0.2109
     33 N           7.9103   -3.6930   28.6365 N.pl3   1  UNL1       -0.2942
     34 H           8.5713   -3.6766   29.3659 H       1  UNL1        0.1537
     35 C           4.7626   -0.4873   28.3800 C.ar    1  UNL1        0.0674
     36 C           5.9609   -0.2930   29.2613 C.ar    1  UNL1        0.0190
     37 C           7.0101   -1.3616   29.3468 C.ar    1  UNL1        0.0357
     38 C           6.8610   -2.6244   28.5510 C.ar    1  UNL1        0.1324
     39 N           5.6629   -2.8186   27.6698 N.ar    1  UNL1       -0.2278
     40 C           4.6136   -1.7500   27.5843 C.ar    1  UNL1        0.1147
     41 C           2.4044   -0.5488   30.2335 C.3     1  UNL1        0.0229
     42 C           2.5344    0.5505   29.2213 C.3     1  UNL1        0.0889
     43 C           1.4851    1.6191   29.1358 C.3     1  UNL1        0.0921
     44 N           1.6150    2.7184   28.1236 N.3     1  UNL1       -0.2668
     45 C           2.7941    2.7492   27.1969 C.3     1  UNL1        0.0939
     46 C           3.8433    1.6807   27.2824 C.3     1  UNL1        0.1081
     47 N           3.7134    0.5813   28.2946 N.pl3   1  UNL1       -0.3051
     48 C           0.5658    3.7871   28.0381 C.3     1  UNL1        0.1173
     49 C           0.3872    5.1489   28.6410 C.3     1  UNL1        0.1606
     50 O          -0.9180    5.2982   27.9171 O.3     1  UNL1       -0.3507
     51 C          -0.7395    3.9364   27.3141 C.3     1  UNL1        0.1606
@<TRIPOS>BOND
     1    42    41    1
     2    42    43    1
     3    43    44    1
     4    44    48    1
     5    48    49    1
     6    49    50    1
     7    50    51    1
     8    44    45    1
     9    45    46    1
    10    46    47    1
    11    47    35    1
    12    35    36   ar
    13    36    37   ar
    14    37    38   ar
    15    38    33    1
    16    33     1    1
    17     1     2   ar
    18     2     3   ar
    19     3     9    1
    20     9    10   ar
    21    10    11   ar
    22    11    12   ar
    23    12    13   ar
    24    13    15    1
    25    15    16    1
    26    16    17    1
    27    17    18    1
    28    18    19   ar
    29    19    20   ar
    30    20    21   ar
    31    21    22   ar
    32    22    23    1
    33    23    24    1
    34    24    25    1
    35    24    26    1
    36    24    27    1
    37    19    28    1
    38    28    29    2
    39    13    14   ar
    40    14    30    1
    41    30    31    1
    42     3     4   ar
    43     4     5   ar
    44     5     6    1
    45     5     7   ar
    46     7     8    2
    47    38    39   ar
    48    39    40   ar
    49    47    42    1
    50    40    35   ar
    51    51    48    1
    52     7     1   ar
    53    14     9   ar
    54    28    15   am
    55    22    18   ar
    56    27    21    1
    57    33    34    1
    58    31    32    1
@<TRIPOS>MOLECULE
*****
 51 58 0 0 0
SMALL
GASTEIGER

@<TRIPOS>ATOM
      1 C           5.0552   -1.5546   21.7541 C.ar    1  UNL1        0.1063
      2 C           4.4087   -0.2515   21.3881 C.ar    1  UNL1        0.0210
      3 C           3.4763   -0.1802   20.2153 C.ar    1  UNL1        0.0186
      4 C           3.1903   -1.4119   19.4086 C.ar    1  UNL1        0.0784
      5 N           3.8368   -2.7151   19.7745 N.ar    1  UNL1       -0.2911
      6 C           3.5507   -3.9468   18.9677 C.3     1  UNL1        0.1336
      7 C           4.7692   -2.7864   20.9473 C.ar    1  UNL1        0.2744
      8 O           5.4157   -4.0895   21.3133 O.2     1  UNL1       -0.2656
      9 C           2.8298    1.1230   19.8493 C.ar    1  UNL1        0.0041
     10 C           3.5284    2.0723   18.9217 C.ar    1  UNL1        0.0206
     11 C           2.8819    3.3755   18.5558 C.ar    1  UNL1        0.1003
     12 N           1.5368    3.7292   19.1175 N.ar    1  UNL1       -0.2290
     13 C           0.8382    2.7798   20.0451 C.ar    1  UNL1        0.1360
     14 C           1.4847    1.4767   20.4111 C.ar    1  UNL1        0.0390
     15 N          -0.5070    3.1334   20.6069 N.am    1  UNL1       -0.2373
     16 C          -1.7402    2.9478   19.7735 C.3     1  UNL1        0.1244
     17 C          -3.0853    3.3015   20.3353 C.3     1  UNL1        0.1277
     18 N          -3.1972    3.8409   21.7305 N.ar    1  UNL1       -0.3256
     19 C          -1.9639    4.0265   22.5639 C.ar    1  UNL1        0.1140
     20 C          -2.3828    4.5742   23.8960 C.ar    1  UNL1        0.0187
     21 C          -3.8750    4.7271   23.8859 C.ar    1  UNL1       -0.0089
     22 C          -4.3783    4.2738   22.5475 C.ar    1  UNL1        0.0333
     23 C          -5.8705    4.4267   22.5373 C.3     1  UNL1        0.0438
     24 C          -6.2893    4.9744   23.8694 C.3     1  UNL1        0.0096
     25 C          -7.6705    4.9000   23.2891 C.3     1  UNL1        0.0007
     26 C          -6.9970    5.5066   25.0802 C.3     1  UNL1        0.0007
     27 C          -5.0561    5.1601   24.7029 C.3     1  UNL1        0.0279
     28 C          -0.6188    3.6728   22.0021 C.2     1  UNL1        0.2697
     29 O           0.6144    3.8584   22.8355 O.2     1  UNL1       -0.2679
     30 C           0.7860    0.5272   21.3387 C.3     1  UNL1        0.1664
     31 O          -0.1934   -0.4696   20.7936 O.3     1  UNL1       -0.3771
     32 H          -0.9620   -0.0024   20.4305 H       1  UNL1        0.2109
     33 N           5.9876   -1.6259   22.9269 N.pl3   1  UNL1       -0.2942
     34 H           6.9039   -1.9655   22.8073 H       1  UNL1        0.1537
     35 C           4.5963   -0.2875   26.9918 C.ar    1  UNL1        0.0674
     36 C           3.7918   -1.2877   26.2155 C.ar    1  UNL1        0.0190
     37 C           4.2556   -1.7338   24.8605 C.ar    1  UNL1        0.0357
     38 C           5.5239   -1.1798   24.2819 C.ar    1  UNL1        0.1324
     39 N           6.3282   -0.1797   25.0582 N.ar    1  UNL1       -0.2278
     40 C           5.8645    0.2664   26.4132 C.ar    1  UNL1        0.1147
     41 C           5.6477   -1.6366   29.4565 C.3     1  UNL1        0.0229
     42 C           4.6583   -0.5160   29.5790 C.3     1  UNL1        0.0889
     43 C           4.1944   -0.0698   30.9340 C.3     1  UNL1        0.0921
     44 N           3.2050    1.0508   31.0566 N.3     1  UNL1       -0.2668
     45 C           2.6792    1.7253   29.8243 C.3     1  UNL1        0.0939
     46 C           3.1430    1.2792   28.4694 C.3     1  UNL1        0.1081
     47 N           4.1325    0.1586   28.3467 N.pl3   1  UNL1       -0.3051
     48 C           2.7411    1.4970   32.4116 C.3     1  UNL1        0.1173
     49 C           3.2314    1.3067   33.8163 C.3     1  UNL1        0.1606
     50 O           2.0851    2.1280   34.3277 O.3     1  UNL1       -0.3507
     51 C           1.5948    2.3183   32.9230 C.3     1  UNL1        0.1606
@<TRIPOS>BOND
     1    42    41    1
     2    42    43    1
     3    43    44    1
     4    44    48    1
     5    48    49    1
     6    49    50    1
     7    50    51    1
     8    44    45    1
     9    45    46    1
    10    46    47    1
    11    47    35    1
    12    35    36   ar
    13    36    37   ar
    14    37    38   ar
    15    38    33    1
    16    33     1    1
    17     1     2   ar
    18     2     3   ar
    19     3     9    1
    20     9    10   ar
    21    10    11   ar
    22    11    12   ar
    23    12    13   ar
    24    13    15    1
    25    15    16    1
    26    16    17    1
    27    17    18    1
    28    18    19   ar
    29    19    20   ar
    30    20    21   ar
    31    21    22   ar
    32    22    23    1
    33    23    24    1
    34    24    25    1
    35    24    26    1
    36    24    27    1
    37    19    28    1
    38    28    29    2
    39    13    14   ar
    40    14    30    1
    41    30    31    1
    42     3     4   ar
    43     4     5   ar
    44     5     6    1
    45     5     7   ar
    46     7     8    2
    47    38    39   ar
    48    39    40   ar
    49    47    42    1
    50    40    35   ar
    51    51    48    1
    52     7     1   ar
    53    14     9   ar
    54    28    15   am
    55    22    18   ar
    56    27    21    1
    57    33    34    1
    58    31    32    1
@<TRIPOS>MOLECULE
*****
 51 58 0 0 0
SMALL
GASTEIGER

@<TRIPOS>ATOM
      1 C          -2.6675    3.8092   23.0426 C.ar    1  UNL1        0.1063
      2 C          -1.3853    3.7277   22.2686 C.ar    1  UNL1        0.0210
      3 C          -1.4162    3.4735   20.7906 C.ar    1  UNL1        0.0186
      4 C          -2.7294    3.3009   20.0867 C.ar    1  UNL1        0.0784
      5 N          -4.0118    3.3824   20.8606 N.ar    1  UNL1       -0.2911
      6 C          -5.3249    3.2098   20.1566 C.3     1  UNL1        0.1336
      7 C          -3.9808    3.6366   22.3386 C.ar    1  UNL1        0.2744
      8 O          -5.2631    3.7182   23.1126 O.2     1  UNL1       -0.2656
      9 C          -0.1338    3.3919   20.0167 C.ar    1  UNL1        0.0041
     10 C           0.1957    4.4428   18.9984 C.ar    1  UNL1        0.0206
     11 C           1.4781    4.3612   18.2244 C.ar    1  UNL1        0.1003
     12 N           2.4308    3.2287   18.4689 N.ar    1  UNL1       -0.2290
     13 C           2.1012    2.1778   19.4872 C.ar    1  UNL1        0.1360
     14 C           0.8189    2.2594   20.2611 C.ar    1  UNL1        0.0390
     15 N           3.0539    1.0453   19.7316 N.am    1  UNL1       -0.2373
     16 C           2.9721   -0.1974   18.8957 C.3     1  UNL1        0.1244
     17 C           3.9248   -1.3299   19.1401 C.3     1  UNL1        0.1277
     18 N           4.9594   -1.2197   20.2206 N.ar    1  UNL1       -0.3256
     19 C           5.0413    0.0231   21.0566 C.ar    1  UNL1        0.1140
     20 C           6.1579   -0.1542   22.0425 C.ar    1  UNL1        0.0187
     21 C           6.7660   -1.5065   21.8157 C.ar    1  UNL1       -0.0089
     22 C           6.0254   -2.1650   20.6897 C.ar    1  UNL1        0.0333
     23 C           6.6335   -3.5173   20.4630 C.3     1  UNL1        0.0438
     24 C           7.7501   -3.6946   21.4489 C.3     1  UNL1        0.0096
     25 C           7.9085   -5.0328   20.7902 C.3     1  UNL1        0.0007
     26 C           8.8997   -4.1516   22.2970 C.3     1  UNL1        0.0007
     27 C           7.8320   -2.4518   22.2849 C.3     1  UNL1        0.0279
     28 C           4.0886    1.1556   20.8122 C.2     1  UNL1        0.2697
     29 O           4.1704    2.3983   21.6481 O.2     1  UNL1       -0.2679
     30 C           0.4892    1.2085   21.2794 C.3     1  UNL1        0.1664
     31 O          -0.1980   -0.0561   20.8567 O.3     1  UNL1       -0.3771
     32 H          -1.0919    0.1513   20.5423 H       1  UNL1        0.2109
     33 N          -2.6366    4.0634   24.5206 N.pl3   1  UNL1       -0.2942
     34 H          -3.2743    4.6952   24.9249 H       1  UNL1        0.1537
     35 C           0.3713    1.9380   27.1063 C.ar    1  UNL1        0.0674
     36 C           0.0038    1.3747   25.7655 C.ar    1  UNL1        0.0190
     37 C          -0.9988    2.0832   24.9036 C.ar    1  UNL1        0.0357
     38 C          -1.6339    3.3550   25.3825 C.ar    1  UNL1        0.1324
     39 N          -1.2665    3.9182   26.7232 N.ar    1  UNL1       -0.2278
     40 C          -0.2638    3.2098   27.5852 C.ar    1  UNL1        0.1147
     41 C          -0.5335   -0.1810   29.0276 C.3     1  UNL1        0.0229
     42 C           0.9215    0.1701   28.9288 C.3     1  UNL1        0.0889
     43 C           1.9242   -0.5384   29.7907 C.3     1  UNL1        0.0921
     44 N           3.3791   -0.1873   29.6919 N.3     1  UNL1       -0.2668
     45 C           3.8315    0.8721   28.7313 C.3     1  UNL1        0.0939
     46 C           2.8289    1.5806   27.8694 C.3     1  UNL1        0.1081
     47 N           1.3739    1.2296   27.9682 N.pl3   1  UNL1       -0.3051
     48 C           4.3818   -0.8958   30.5538 C.3     1  UNL1        0.1173
     49 C           4.3577   -1.5125   31.9209 C.3     1  UNL1        0.1606
     50 O           5.7999   -1.8977   31.7726 O.3     1  UNL1       -0.3507
     51 C           5.8239   -1.2810   30.4055 C.3     1  UNL1        0.1606
@<TRIPOS>BOND
     1    42    41    1
     2    42    43    1
     3    43    44    1
     4    44    48    1
     5    48    49    1
     6    49    50    1
     7    50    51    1
     8    44    45    1
     9    45    46    1
    10    46    47    1
    11    47    35    1
    12    35    36   ar
    13    36    37   ar
    14    37    38   ar
    15    38    33    1
    16    33     1    1
    17     1     2   ar
    18     2     3   ar
    19     3     9    1
    20     9    10   ar
    21    10    11   ar
    22    11    12   ar
    23    12    13   ar
    24    13    15    1
    25    15    16    1
    26    16    17    1
    27    17    18    1
    28    18    19   ar
    29    19    20   ar
    30    20    21   ar
    31    21    22   ar
    32    22    23    1
    33    23    24    1
    34    24    25    1
    35    24    26    1
    36    24    27    1
    37    19    28    1
    38    28    29    2
    39    13    14   ar
    40    14    30    1
    41    30    31    1
    42     3     4   ar
    43     4     5   ar
    44     5     6    1
    45     5     7   ar
    46     7     8    2
    47    38    39   ar
    48    39    40   ar
    49    47    42    1
    50    40    35   ar
    51    51    48    1
    52     7     1   ar
    53    14     9   ar
    54    28    15   am
    55    22    18   ar
    56    27    21    1
    57    33    34    1
    58    31    32    1
@<TRIPOS>MOLECULE
*****
 51 58 0 0 0
SMALL
GASTEIGER

@<TRIPOS>ATOM
      1 C          -2.6368    4.3505   25.7770 C.ar    1  UNL1        0.1063
      2 C          -2.0345    4.1528   24.4176 C.ar    1  UNL1        0.0210
      3 C          -2.9168    4.1110   23.2053 C.ar    1  UNL1        0.0186
      4 C          -4.4013    4.2671   23.3523 C.ar    1  UNL1        0.0784
      5 N          -5.0037    4.4649   24.7118 N.ar    1  UNL1       -0.2911
      6 C          -6.4882    4.6210   24.8588 C.3     1  UNL1        0.1336
      7 C          -4.1214    4.5066   25.9242 C.ar    1  UNL1        0.2744
      8 O          -4.7237    4.7044   27.2836 O.2     1  UNL1       -0.2656
      9 C          -2.3144    3.9132   21.8458 C.ar    1  UNL1        0.0041
     10 C          -3.0284    4.4202   20.6281 C.ar    1  UNL1        0.0206
     11 C          -2.4261    4.2224   19.2686 C.ar    1  UNL1        0.1003
     12 N          -1.1096    3.5176   19.1270 N.ar    1  UNL1       -0.2290
     13 C          -0.3955    3.0106   20.3448 C.ar    1  UNL1        0.1360
     14 C          -0.9979    3.2084   21.7042 C.ar    1  UNL1        0.0390
     15 N           0.9210    2.3058   20.2033 N.am    1  UNL1       -0.2373
     16 C           2.1689    3.0940   19.9363 C.3     1  UNL1        0.1244
     17 C           3.4854    2.3891   19.7947 C.3     1  UNL1        0.1277
     18 N           3.5540    0.8960   19.9201 N.ar    1  UNL1       -0.3256
     19 C           2.3060    0.1077   20.1871 C.ar    1  UNL1        0.1140
     20 C           2.6810   -1.3429   20.2608 C.ar    1  UNL1        0.0187
     21 C           4.1606   -1.4510   20.0393 C.ar    1  UNL1       -0.0089
     22 C           4.7001   -0.0673   19.8287 C.ar    1  UNL1        0.0333
     23 C           6.1797   -0.1755   19.6073 C.3     1  UNL1        0.0438
     24 C           6.5546   -1.6260   19.6809 C.3     1  UNL1        0.0096
     25 C           7.9415   -1.1188   19.4178 C.3     1  UNL1        0.0007
     26 C           7.2195   -2.9705   19.6996 C.3     1  UNL1        0.0007
     27 C           5.3067   -2.4143   19.9479 C.3     1  UNL1        0.0279
     28 C           0.9895    0.8125   20.3287 C.2     1  UNL1        0.2697
     29 O          -0.2583    0.0242   20.5957 O.2     1  UNL1       -0.2679
     30 C          -0.2838    2.7014   22.9220 C.3     1  UNL1        0.1664
     31 O           1.0221    3.3133   23.3348 O.3     1  UNL1       -0.3771
     32 H           1.6947    3.1244   22.6619 H       1  UNL1        0.2109
     33 N          -1.7545    4.3923   26.9894 N.pl3   1  UNL1       -0.2942
     34 H          -1.9020    5.0759   27.6823 H       1  UNL1        0.1537
     35 C           1.5666    1.3922   27.4592 C.ar    1  UNL1        0.0674
     36 C           0.1414    0.9290   27.3918 C.ar    1  UNL1        0.0190
     37 C          -0.9656    1.9290   27.2352 C.ar    1  UNL1        0.0357
     38 C          -0.6474    3.3922   27.1460 C.ar    1  UNL1        0.1324
     39 N           0.7776    3.8554   27.2134 N.ar    1  UNL1       -0.2278
     40 C           1.8847    2.8553   27.3700 C.ar    1  UNL1        0.1147
     41 C           2.7801    0.1060   25.0358 C.3     1  UNL1        0.0229
     42 C           3.2803   -0.2509   26.4041 C.3     1  UNL1        0.0889
     43 C           4.3873   -1.2510   26.5608 C.3     1  UNL1        0.0921
     44 N           4.8875   -1.6079   27.9290 N.3     1  UNL1       -0.2668
     45 C           4.2808   -0.9648   29.1408 C.3     1  UNL1        0.0939
     46 C           3.1738    0.0352   28.9842 C.3     1  UNL1        0.1081
     47 N           2.6735    0.3922   27.6158 N.pl3   1  UNL1       -0.3051
     48 C           5.9945   -2.6079   28.0857 C.3     1  UNL1        0.1173
     49 C           6.6307   -3.6341   27.1957 C.3     1  UNL1        0.1606
     50 O           7.5600   -4.0221   28.3074 O.3     1  UNL1       -0.3507
     51 C           6.9238   -2.9960   29.1974 C.3     1  UNL1        0.1606
@<TRIPOS>BOND
     1    42    41    1
     2    42    43    1
     3    43    44    1
     4    44    48    1
     5    48    49    1
     6    49    50    1
     7    50    51    1
     8    44    45    1
     9    45    46    1
    10    46    47    1
    11    47    35    1
    12    35    36   ar
    13    36    37   ar
    14    37    38   ar
    15    38    33    1
    16    33     1    1
    17     1     2   ar
    18     2     3   ar
    19     3     9    1
    20     9    10   ar
    21    10    11   ar
    22    11    12   ar
    23    12    13   ar
    24    13    15    1
    25    15    16    1
    26    16    17    1
    27    17    18    1
    28    18    19   ar
    29    19    20   ar
    30    20    21   ar
    31    21    22   ar
    32    22    23    1
    33    23    24    1
    34    24    25    1
    35    24    26    1
    36    24    27    1
    37    19    28    1
    38    28    29    2
    39    13    14   ar
    40    14    30    1
    41    30    31    1
    42     3     4   ar
    43     4     5   ar
    44     5     6    1
    45     5     7   ar
    46     7     8    2
    47    38    39   ar
    48    39    40   ar
    49    47    42    1
    50    40    35   ar
    51    51    48    1
    52     7     1   ar
    53    14     9   ar
    54    28    15   am
    55    22    18   ar
    56    27    21    1
    57    33    34    1
    58    31    32    1
@<TRIPOS>MOLECULE
*****
 51 58 0 0 0
SMALL
GASTEIGER

@<TRIPOS>ATOM
      1 C          -2.4312    4.4799   24.6979 C.ar    1  UNL1        0.1063
      2 C          -1.5762    4.2039   23.4968 C.ar    1  UNL1        0.0210
      3 C          -2.2052    3.7220   22.2232 C.ar    1  UNL1        0.0186
      4 C          -3.6892    3.5161   22.1507 C.ar    1  UNL1        0.0784
      5 N          -4.5443    3.7921   23.3519 N.ar    1  UNL1       -0.2911
      6 C          -6.0282    3.5863   23.2794 C.3     1  UNL1        0.1336
      7 C          -3.9152    4.2741   24.6255 C.ar    1  UNL1        0.2744
      8 O          -4.7702    4.5501   25.8266 O.2     1  UNL1       -0.2656
      9 C          -1.3501    3.4459   21.0220 C.ar    1  UNL1        0.0041
     10 C          -1.7434    3.9895   19.6805 C.ar    1  UNL1        0.0206
     11 C          -0.8883    3.7134   18.4794 C.ar    1  UNL1        0.1003
     12 N           0.3600    2.8937   18.6199 N.ar    1  UNL1       -0.2290
     13 C           0.7533    2.3502   19.9615 C.ar    1  UNL1        0.1360
     14 C          -0.1018    2.6262   21.1626 C.ar    1  UNL1        0.0390
     15 N           2.0016    1.5305   20.1020 N.am    1  UNL1       -0.2373
     16 C           3.3388    2.2064   20.1722 C.3     1  UNL1        0.1244
     17 C           4.5872    1.3867   20.3128 C.3     1  UNL1        0.1277
     18 N           4.4983   -0.1090   20.3831 N.ar    1  UNL1       -0.3256
     19 C           3.1611   -0.7849   20.3129 C.ar    1  UNL1        0.1140
     20 C           3.3846   -2.2653   20.4070 C.ar    1  UNL1        0.0187
     21 C           4.8598   -2.5041   20.5354 C.ar    1  UNL1       -0.0089
     22 C           5.5482   -1.1714   20.5206 C.ar    1  UNL1        0.0333
     23 C           7.0235   -1.4103   20.6489 C.3     1  UNL1        0.0438
     24 C           7.2469   -2.8905   20.7430 C.3     1  UNL1        0.0096
     25 C           8.6940   -2.5072   20.8370 C.3     1  UNL1        0.0007
     26 C           7.7729   -4.2907   20.8568 C.3     1  UNL1        0.0007
     27 C           5.9097   -3.5666   20.6728 C.3     1  UNL1        0.0279
     28 C           1.9127    0.0347   20.1724 C.2     1  UNL1        0.2697
     29 O           0.5756   -0.6413   20.1022 O.2     1  UNL1       -0.2679
     30 C           0.2915    2.0827   22.5042 C.3     1  UNL1        0.1664
     31 O           1.4876    2.6396   23.2178 O.3     1  UNL1       -0.3771
     32 H           2.2905    2.4294   22.7158 H       1  UNL1        0.2109
     33 N          -1.8021    4.9619   25.9715 N.pl3   1  UNL1       -0.2942
     34 H          -1.9713    5.8787   26.2879 H       1  UNL1        0.1537
     35 C           0.8583    2.2168   28.3459 C.ar    1  UNL1        0.0674
     36 C          -0.4702    1.7288   27.8488 C.ar    1  UNL1        0.0190
     37 C          -1.3570    2.6438   27.0574 C.ar    1  UNL1        0.0357
     38 C          -0.9153    4.0469   26.7630 C.ar    1  UNL1        0.1324
     39 N           0.4131    4.5348   27.2600 N.ar    1  UNL1       -0.2278
     40 C           1.3000    3.6198   28.0515 C.ar    1  UNL1        0.1147
     41 C           2.7016    0.3198   26.9303 C.3     1  UNL1        0.0229
     42 C           2.6666    0.3533   28.4295 C.3     1  UNL1        0.0889
     43 C           3.5534   -0.5617   29.2210 C.3     1  UNL1        0.0921
     44 N           3.5185   -0.5282   30.7202 N.3     1  UNL1       -0.2668
     45 C           2.5969    0.4203   31.4280 C.3     1  UNL1        0.0939
     46 C           1.7102    1.3353   30.6365 C.3     1  UNL1        0.1081
     47 N           1.7450    1.3018   29.1373 N.pl3   1  UNL1       -0.3051
     48 C           4.4053   -1.4432   31.5117 C.3     1  UNL1        0.1173
     49 C           5.7444   -2.0801   31.2854 C.3     1  UNL1        0.1606
     50 O           5.6593   -2.7372   32.6312 O.3     1  UNL1       -0.3507
     51 C           4.3202   -2.1003   32.8575 C.3     1  UNL1        0.1606
@<TRIPOS>BOND
     1    42    41    1
     2    42    43    1
     3    43    44    1
     4    44    48    1
     5    48    49    1
     6    49    50    1
     7    50    51    1
     8    44    45    1
     9    45    46    1
    10    46    47    1
    11    47    35    1
    12    35    36   ar
    13    36    37   ar
    14    37    38   ar
    15    38    33    1
    16    33     1    1
    17     1     2   ar
    18     2     3   ar
    19     3     9    1
    20     9    10   ar
    21    10    11   ar
    22    11    12   ar
    23    12    13   ar
    24    13    15    1
    25    15    16    1
    26    16    17    1
    27    17    18    1
    28    18    19   ar
    29    19    20   ar
    30    20    21   ar
    31    21    22   ar
    32    22    23    1
    33    23    24    1
    34    24    25    1
    35    24    26    1
    36    24    27    1
    37    19    28    1
    38    28    29    2
    39    13    14   ar
    40    14    30    1
    41    30    31    1
    42     3     4   ar
    43     4     5   ar
    44     5     6    1
    45     5     7   ar
    46     7     8    2
    47    38    39   ar
    48    39    40   ar
    49    47    42    1
    50    40    35   ar
    51    51    48    1
    52     7     1   ar
    53    14     9   ar
    54    28    15   am
    55    22    18   ar
    56    27    21    1
    57    33    34    1
    58    31    32    1
