@<TRIPOS>MOLECULE
*****
 22 24 0 0 0
SMALL
GASTEIGER

@<TRIPOS>ATOM
      1 C          -9.8867  -16.8153   23.6312 C.ar    1  UNL1        0.1724
      2 C          -9.4702  -16.4630   25.0284 C.ar    1  UNL1        0.0402
      3 C          -8.0715  -15.9928   25.2981 C.ar    1  UNL1        0.0093
      4 C          -7.6550  -15.6405   26.6954 C.ar    1  UNL1        0.0210
      5 C          -6.2564  -15.1704   26.9650 C.ar    1  UNL1        0.1021
      6 N          -5.2742  -15.0526   25.8374 N.ar    1  UNL1       -0.2098
      7 C          -5.6907  -15.4050   24.4402 C.ar    1  UNL1        0.2296
      8 C          -7.0893  -15.8751   24.1705 C.ar    1  UNL1        0.0568
      9 C          -7.5059  -16.2275   22.7732 C.ar    1  UNL1        0.0447
     10 C          -8.9045  -16.6976   22.5036 C.ar    1  UNL1        0.1725
     11 C         -11.7700  -18.5760   23.9528 C.3     1  UNL1        0.2526
     12 O         -11.2854  -17.2855   23.3615 O.3     1  UNL1       -0.4684
     13 O          -9.3210  -17.0500   21.1063 O.3     1  UNL1       -0.4684
     14 C          -9.5921  -18.4797   20.7425 C.3     1  UNL1        0.2526
     15 O          -4.7085  -15.2872   23.3126 O.3     1  UNL1       -0.4361
     16 C          -3.9667  -16.5001   22.8344 C.ar    1  UNL1        0.1473
     17 C          -2.6858  -16.3427   22.0697 C.ar    1  UNL1        0.0399
     18 C          -1.9440  -17.5555   21.5915 C.ar    1  UNL1        0.0328
     19 C          -2.4830  -18.9257   21.8779 C.ar    1  UNL1        0.1403
     20 F          -1.7411  -20.1386   21.3997 F       1  UNL1       -0.2042
     21 C          -3.7638  -19.0831   22.6425 C.ar    1  UNL1        0.0328
     22 C          -4.5057  -17.8703   23.1208 C.ar    1  UNL1        0.0399
@<TRIPOS>BOND
     1    11    12    1
     2    12     1    1
     3     1     2   ar
     4     2     3   ar
     5     3     4   ar
     6     4     5   ar
     7     5     6   ar
     8     6     7   ar
     9     7    15    1
    10    15    16    1
    11    16    17   ar
    12    17    18   ar
    13    18    19   ar
    14    19    20    1
    15    19    21   ar
    16    21    22   ar
    17     7     8   ar
    18     8     9   ar
    19     9    10   ar
    20    10    13    1
    21    13    14    1
    22    10     1   ar
    23     8     3   ar
    24    22    16   ar
@<TRIPOS>MOLECULE
*****
 22 24 0 0 0
SMALL
GASTEIGER

@<TRIPOS>ATOM
      1 C          -3.5427  -18.2099   22.5192 C.ar    1  UNL1        0.1724
      2 C          -3.9569  -17.0189   23.3315 C.ar    1  UNL1        0.0402
      3 C          -5.4108  -16.6799   23.4780 C.ar    1  UNL1        0.0093
      4 C          -5.8250  -15.4889   24.2903 C.ar    1  UNL1        0.0210
      5 C          -7.2788  -15.1499   24.4368 C.ar    1  UNL1        0.1021
      6 N          -8.3184  -16.0019   23.7710 N.ar    1  UNL1       -0.2098
      7 C          -7.9042  -17.1929   22.9587 C.ar    1  UNL1        0.2296
      8 C          -6.4504  -17.5319   22.8122 C.ar    1  UNL1        0.0568
      9 C          -6.0361  -18.7230   21.9998 C.ar    1  UNL1        0.0447
     10 C          -4.5823  -19.0619   21.8534 C.ar    1  UNL1        0.1725
     11 C          -1.3453  -18.1439   21.1345 C.3     1  UNL1        0.2526
     12 O          -2.0888  -18.5490   22.3727 O.3     1  UNL1       -0.4684
     13 O          -4.1680  -20.2530   21.0410 O.3     1  UNL1       -0.4684
     14 C          -3.9619  -20.1168   19.5615 C.3     1  UNL1        0.2526
     15 O          -8.9438  -18.0449   22.2929 O.3     1  UNL1       -0.4361
     16 C         -10.3526  -18.0486   22.8076 C.ar    1  UNL1        0.1473
     17 C         -11.4230  -17.3009   22.0689 C.ar    1  UNL1        0.0399
     18 C         -12.8318  -17.3046   22.5837 C.ar    1  UNL1        0.0328
     19 C         -13.1705  -18.0558   23.8371 C.ar    1  UNL1        0.1403
     20 F         -14.5794  -18.0593   24.3518 F       1  UNL1       -0.2042
     21 C         -12.1002  -18.8033   24.5757 C.ar    1  UNL1        0.0328
     22 C         -10.6913  -18.7998   24.0610 C.ar    1  UNL1        0.0399
@<TRIPOS>BOND
     1    11    12    1
     2    12     1    1
     3     1     2   ar
     4     2     3   ar
     5     3     4   ar
     6     4     5   ar
     7     5     6   ar
     8     6     7   ar
     9     7    15    1
    10    15    16    1
    11    16    17   ar
    12    17    18   ar
    13    18    19   ar
    14    19    20    1
    15    19    21   ar
    16    21    22   ar
    17     7     8   ar
    18     8     9   ar
    19     9    10   ar
    20    10    13    1
    21    13    14    1
    22    10     1   ar
    23     8     3   ar
    24    22    16   ar
@<TRIPOS>MOLECULE
*****
 22 24 0 0 0
SMALL
GASTEIGER

@<TRIPOS>ATOM
      1 C          -4.4320  -19.7515   21.2138 C.ar    1  UNL1        0.1724
      2 C          -5.3729  -20.1391   20.1119 C.ar    1  UNL1        0.0402
      3 C          -6.8003  -19.6792   20.1479 C.ar    1  UNL1        0.0093
      4 C          -7.7412  -20.0669   19.0459 C.ar    1  UNL1        0.0210
      5 C          -9.1685  -19.6070   19.0820 C.ar    1  UNL1        0.1021
      6 N          -9.6548  -18.7595   20.2200 N.ar    1  UNL1       -0.2098
      7 C          -8.7139  -18.3718   21.3220 C.ar    1  UNL1        0.2296
      8 C          -7.2866  -18.8317   21.2859 C.ar    1  UNL1        0.0568
      9 C          -6.3457  -18.4440   22.3879 C.ar    1  UNL1        0.0447
     10 C          -4.9184  -18.9039   22.3518 C.ar    1  UNL1        0.1725
     11 C          -1.9596  -19.3622   20.5170 C.3     1  UNL1        0.2526
     12 O          -3.0047  -20.2113   21.1778 O.3     1  UNL1       -0.4684
     13 O          -3.9774  -18.5162   23.4538 O.3     1  UNL1       -0.4684
     14 C          -3.0677  -17.3359   23.2827 C.3     1  UNL1        0.2526
     15 O          -9.2003  -17.5242   22.4600 O.3     1  UNL1       -0.4361
     16 C         -10.5934  -17.7030   22.9863 C.ar    1  UNL1        0.1473
     17 C         -11.7233  -16.9065   22.4039 C.ar    1  UNL1        0.0399
     18 C         -13.1164  -17.0853   22.9302 C.ar    1  UNL1        0.0328
     19 C         -13.3798  -18.0607   24.0390 C.ar    1  UNL1        0.1403
     20 F         -14.7731  -18.2395   24.5654 F       1  UNL1       -0.2042
     21 C         -12.2501  -18.8571   24.6214 C.ar    1  UNL1        0.0328
     22 C         -10.8569  -18.6783   24.0951 C.ar    1  UNL1        0.0399
@<TRIPOS>BOND
     1    11    12    1
     2    12     1    1
     3     1     2   ar
     4     2     3   ar
     5     3     4   ar
     6     4     5   ar
     7     5     6   ar
     8     6     7   ar
     9     7    15    1
    10    15    16    1
    11    16    17   ar
    12    17    18   ar
    13    18    19   ar
    14    19    20    1
    15    19    21   ar
    16    21    22   ar
    17     7     8   ar
    18     8     9   ar
    19     9    10   ar
    20    10    13    1
    21    13    14    1
    22    10     1   ar
    23     8     3   ar
    24    22    16   ar
@<TRIPOS>MOLECULE
*****
 22 24 0 0 0
SMALL
GASTEIGER

@<TRIPOS>ATOM
      1 C         -10.3397  -17.4182   21.2469 C.ar    1  UNL1        0.1724
      2 C          -9.7335  -16.3569   22.1165 C.ar    1  UNL1        0.0402
      3 C          -8.3122  -16.4869   22.5781 C.ar    1  UNL1        0.0093
      4 C          -7.7061  -15.4255   23.4477 C.ar    1  UNL1        0.0210
      5 C          -6.2849  -15.5555   23.9093 C.ar    1  UNL1        0.1021
      6 N          -5.4698  -16.7469   23.5014 N.ar    1  UNL1       -0.2098
      7 C          -6.0759  -17.8082   22.6319 C.ar    1  UNL1        0.2296
      8 C          -7.4972  -17.6782   22.1703 C.ar    1  UNL1        0.0568
      9 C          -8.1034  -18.7396   21.3007 C.ar    1  UNL1        0.0447
     10 C          -9.5246  -18.6096   20.8391 C.ar    1  UNL1        0.1725
     11 C         -12.8755  -17.8393   21.6244 C.3     1  UNL1        0.2526
     12 O         -11.7610  -17.2882   20.7853 O.3     1  UNL1       -0.4684
     13 O         -10.1309  -19.6709   19.9695 O.3     1  UNL1       -0.4684
     14 C          -9.3936  -20.1594   18.7580 C.3     1  UNL1        0.2526
     15 O          -5.2609  -18.9995   22.2240 O.3     1  UNL1       -0.4361
     16 C          -3.9782  -18.8083   21.4703 C.ar    1  UNL1        0.1473
     17 C          -2.7131  -18.4908   22.2111 C.ar    1  UNL1        0.0399
     18 C          -1.4305  -18.2995   21.4574 C.ar    1  UNL1        0.0328
     19 C          -1.4128  -18.4257   19.9628 C.ar    1  UNL1        0.1403
     20 F          -0.1301  -18.2344   19.2090 F       1  UNL1       -0.2042
     21 C          -2.6778  -18.7431   19.2219 C.ar    1  UNL1        0.0328
     22 C          -3.9606  -18.9344   19.9757 C.ar    1  UNL1        0.0399
@<TRIPOS>BOND
     1    11    12    1
     2    12     1    1
     3     1     2   ar
     4     2     3   ar
     5     3     4   ar
     6     4     5   ar
     7     5     6   ar
     8     6     7   ar
     9     7    15    1
    10    15    16    1
    11    16    17   ar
    12    17    18   ar
    13    18    19   ar
    14    19    20    1
    15    19    21   ar
    16    21    22   ar
    17     7     8   ar
    18     8     9   ar
    19     9    10   ar
    20    10    13    1
    21    13    14    1
    22    10     1   ar
    23     8     3   ar
    24    22    16   ar
@<TRIPOS>MOLECULE
*****
 22 24 0 0 0
SMALL
GASTEIGER

@<TRIPOS>ATOM
      1 C         -10.7938  -17.7051   22.5895 C.ar    1  UNL1        0.1724
      2 C         -10.8053  -18.2799   21.2041 C.ar    1  UNL1        0.0402
      3 C          -9.5958  -18.9950   20.6787 C.ar    1  UNL1        0.0093
      4 C          -9.6072  -19.5698   19.2933 C.ar    1  UNL1        0.0210
      5 C          -8.3977  -20.2848   18.7681 C.ar    1  UNL1        0.1021
      6 N          -7.1769  -20.4250   19.6282 N.ar    1  UNL1       -0.2098
      7 C          -7.1655  -19.8502   21.0136 C.ar    1  UNL1        0.2296
      8 C          -8.3749  -19.1352   21.5389 C.ar    1  UNL1        0.0568
      9 C          -8.3635  -18.5603   22.9244 C.ar    1  UNL1        0.0447
     10 C          -9.5730  -17.8453   23.4496 C.ar    1  UNL1        0.1725
     11 C         -13.2403  -17.7641   23.4620 C.3     1  UNL1        0.2526
     12 O         -12.0033  -16.9900   23.1148 O.3     1  UNL1       -0.4684
     13 O          -9.5616  -17.2704   24.8351 O.3     1  UNL1       -0.4684
     14 C          -8.7743  -16.0269   25.1247 C.3     1  UNL1        0.2526
     15 O          -5.9446  -19.9904   21.8738 O.3     1  UNL1       -0.4361
     16 C          -4.7288  -19.1585   21.5916 C.ar    1  UNL1        0.1473
     17 C          -4.1249  -19.1545   20.2185 C.ar    1  UNL1        0.0399
     18 C          -2.9091  -18.3226   19.9363 C.ar    1  UNL1        0.0328
     19 C          -2.2971  -17.4947   21.0272 C.ar    1  UNL1        0.1403
     20 F          -1.0812  -16.6628   20.7450 F       1  UNL1       -0.2042
     21 C          -2.9009  -17.4987   22.4003 C.ar    1  UNL1        0.0328
     22 C          -4.1168  -18.3306   22.6825 C.ar    1  UNL1        0.0399
@<TRIPOS>BOND
     1    11    12    1
     2    12     1    1
     3     1     2   ar
     4     2     3   ar
     5     3     4   ar
     6     4     5   ar
     7     5     6   ar
     8     6     7   ar
     9     7    15    1
    10    15    16    1
    11    16    17   ar
    12    17    18   ar
    13    18    19   ar
    14    19    20    1
    15    19    21   ar
    16    21    22   ar
    17     7     8   ar
    18     8     9   ar
    19     9    10   ar
    20    10    13    1
    21    13    14    1
    22    10     1   ar
    23     8     3   ar
    24    22    16   ar
@<TRIPOS>MOLECULE
*****
 22 24 0 0 0
SMALL
GASTEIGER

@<TRIPOS>ATOM
      1 C          -5.8670  -19.6042   20.3949 C.ar    1  UNL1        0.1724
      2 C          -7.0747  -19.4472   19.5193 C.ar    1  UNL1        0.0402
      3 C          -8.4343  -19.3011   20.1360 C.ar    1  UNL1        0.0093
      4 C          -9.6421  -19.1442   19.2604 C.ar    1  UNL1        0.0210
      5 C         -11.0016  -18.9981   19.8771 C.ar    1  UNL1        0.1021
      6 N         -11.1533  -19.0090   21.3694 N.ar    1  UNL1       -0.2098
      7 C          -9.9456  -19.1660   22.2450 C.ar    1  UNL1        0.2296
      8 C          -8.5861  -19.3120   21.6283 C.ar    1  UNL1        0.0568
      9 C          -7.3782  -19.4690   22.5038 C.ar    1  UNL1        0.0447
     10 C          -6.0187  -19.6151   21.8871 C.ar    1  UNL1        0.1725
     11 C          -3.7257  -18.5308   19.3884 C.3     1  UNL1        0.2526
     12 O          -4.5074  -19.7502   19.7782 O.3     1  UNL1       -0.4684
     13 O          -4.8109  -19.7720   22.7627 O.3     1  UNL1       -0.4684
     14 C          -3.9463  -18.5849   23.0677 C.3     1  UNL1        0.2526
     15 O         -10.0973  -19.1769   23.7372 O.3     1  UNL1       -0.4361
     16 C          -9.5618  -18.0384   24.5539 C.ar    1  UNL1        0.1473
     17 C          -9.3186  -18.2185   26.0231 C.ar    1  UNL1        0.0399
     18 C          -8.7831  -17.0800   26.8398 C.ar    1  UNL1        0.0328
     19 C          -8.4908  -15.7613   26.1873 C.ar    1  UNL1        0.1403
     20 F          -7.9552  -14.6228   27.0041 F       1  UNL1       -0.2042
     21 C          -8.7339  -15.5812   24.7182 C.ar    1  UNL1        0.0328
     22 C          -9.2695  -16.7197   23.9014 C.ar    1  UNL1        0.0399
@<TRIPOS>BOND
     1    11    12    1
     2    12     1    1
     3     1     2   ar
     4     2     3   ar
     5     3     4   ar
     6     4     5   ar
     7     5     6   ar
     8     6     7   ar
     9     7    15    1
    10    15    16    1
    11    16    17   ar
    12    17    18   ar
    13    18    19   ar
    14    19    20    1
    15    19    21   ar
    16    21    22   ar
    17     7     8   ar
    18     8     9   ar
    19     9    10   ar
    20    10    13    1
    21    13    14    1
    22    10     1   ar
    23     8     3   ar
    24    22    16   ar
@<TRIPOS>MOLECULE
*****
 22 24 0 0 0
SMALL
GASTEIGER

@<TRIPOS>ATOM
      1 C          -5.2062  -19.3064   22.0300 C.ar    1  UNL1        0.1724
      2 C          -5.4522  -20.4169   21.0522 C.ar    1  UNL1        0.0402
      3 C          -6.7065  -20.4278   20.2296 C.ar    1  UNL1        0.0093
      4 C          -6.9525  -21.5383   19.2517 C.ar    1  UNL1        0.0210
      5 C          -8.2067  -21.5491   18.4292 C.ar    1  UNL1        0.1021
      6 N          -9.2150  -20.4494   18.5844 N.ar    1  UNL1       -0.2098
      7 C          -8.9690  -19.3389   19.5622 C.ar    1  UNL1        0.2296
      8 C          -7.7147  -19.3281   20.3848 C.ar    1  UNL1        0.0568
      9 C          -7.4687  -18.2175   21.3627 C.ar    1  UNL1        0.0447
     10 C          -6.2144  -18.2067   22.1853 C.ar    1  UNL1        0.1725
     11 C          -2.6740  -18.7745   22.2649 C.3     1  UNL1        0.2526
     12 O          -3.9519  -19.2955   22.8527 O.3     1  UNL1       -0.4684
     13 O          -5.9684  -17.0961   23.1632 O.3     1  UNL1       -0.4684
     14 C          -7.1184  -16.2837   23.6803 C.3     1  UNL1        0.2526
     15 O          -9.9773  -18.2392   19.7175 O.3     1  UNL1       -0.4361
     16 C         -10.8552  -18.1927   20.9328 C.ar    1  UNL1        0.1473
     17 C         -10.8229  -19.3174   21.9249 C.ar    1  UNL1        0.0399
     18 C         -11.7008  -19.2709   23.1402 C.ar    1  UNL1        0.0328
     19 C         -12.6111  -18.0998   23.3635 C.ar    1  UNL1        0.1403
     20 F         -13.4890  -18.0533   24.5789 F       1  UNL1       -0.2042
     21 C         -12.6434  -16.9751   22.3716 C.ar    1  UNL1        0.0328
     22 C         -11.7654  -17.0216   21.1562 C.ar    1  UNL1        0.0399
@<TRIPOS>BOND
     1    11    12    1
     2    12     1    1
     3     1     2   ar
     4     2     3   ar
     5     3     4   ar
     6     4     5   ar
     7     5     6   ar
     8     6     7   ar
     9     7    15    1
    10    15    16    1
    11    16    17   ar
    12    17    18   ar
    13    18    19   ar
    14    19    20    1
    15    19    21   ar
    16    21    22   ar
    17     7     8   ar
    18     8     9   ar
    19     9    10   ar
    20    10    13    1
    21    13    14    1
    22    10     1   ar
    23     8     3   ar
    24    22    16   ar
@<TRIPOS>MOLECULE
*****
 22 24 0 0 0
SMALL
GASTEIGER

@<TRIPOS>ATOM
      1 C          -3.1289  -17.3611   22.0899 C.ar    1  UNL1        0.1724
      2 C          -3.1909  -18.5178   21.1370 C.ar    1  UNL1        0.0402
      3 C          -4.4239  -19.3696   21.0705 C.ar    1  UNL1        0.0093
      4 C          -4.4858  -20.5263   20.1176 C.ar    1  UNL1        0.0210
      5 C          -5.7188  -21.3780   20.0512 C.ar    1  UNL1        0.1021
      6 N          -6.8898  -21.0729   20.9376 N.ar    1  UNL1       -0.2098
      7 C          -6.8278  -19.9162   21.8905 C.ar    1  UNL1        0.2296
      8 C          -5.5948  -19.0645   21.9569 C.ar    1  UNL1        0.0568
      9 C          -5.5328  -17.9077   22.9099 C.ar    1  UNL1        0.0447
     10 C          -4.2999  -17.0560   22.9763 C.ar    1  UNL1        0.1725
     11 C          -0.9910  -16.4054   20.9646 C.3     1  UNL1        0.2526
     12 O          -1.8959  -16.5093   22.1564 O.3     1  UNL1       -0.4684
     13 O          -4.2379  -15.8992   23.9292 O.3     1  UNL1       -0.4684
     14 C          -5.4498  -15.5189   24.7271 C.3     1  UNL1        0.2526
     15 O          -7.9988  -19.6111   22.7769 O.3     1  UNL1       -0.4361
     16 C          -9.1686  -18.8435   22.2365 C.ar    1  UNL1        0.1473
     17 C         -10.3243  -19.5739   21.6191 C.ar    1  UNL1        0.0399
     18 C         -11.4942  -18.8063   21.0787 C.ar    1  UNL1        0.0328
     19 C         -11.5085  -17.3083   21.1555 C.ar    1  UNL1        0.1403
     20 F         -12.6785  -16.5407   20.6151 F       1  UNL1       -0.2042
     21 C         -10.3529  -16.5779   21.7729 C.ar    1  UNL1        0.0328
     22 C          -9.1829  -17.3455   22.3133 C.ar    1  UNL1        0.0399
@<TRIPOS>BOND
     1    11    12    1
     2    12     1    1
     3     1     2   ar
     4     2     3   ar
     5     3     4   ar
     6     4     5   ar
     7     5     6   ar
     8     6     7   ar
     9     7    15    1
    10    15    16    1
    11    16    17   ar
    12    17    18   ar
    13    18    19   ar
    14    19    20    1
    15    19    21   ar
    16    21    22   ar
    17     7     8   ar
    18     8     9   ar
    19     9    10   ar
    20    10    13    1
    21    13    14    1
    22    10     1   ar
    23     8     3   ar
    24    22    16   ar
@<TRIPOS>MOLECULE
*****
 22 24 0 0 0
SMALL
GASTEIGER

@<TRIPOS>ATOM
      1 C           1.6011    0.5780   18.6926 C.ar    1  UNL1        0.1724
      2 C           2.8086    0.1445   17.9153 C.ar    1  UNL1        0.0402
      3 C           3.6822   -0.9566   18.4392 C.ar    1  UNL1        0.0093
      4 C           4.8896   -1.3901   17.6619 C.ar    1  UNL1        0.0210
      5 C           5.7632   -2.4912   18.1858 C.ar    1  UNL1        0.1021
      6 N           5.4293   -3.1588   19.4869 N.ar    1  UNL1       -0.2098
      7 C           4.2219   -2.7253   20.2641 C.ar    1  UNL1        0.2296
      8 C           3.3483   -1.6242   19.7403 C.ar    1  UNL1        0.0568
      9 C           2.1408   -1.1907   20.5175 C.ar    1  UNL1        0.0447
     10 C           1.2673   -0.0896   19.9937 C.ar    1  UNL1        0.1725
     11 C           1.0687    3.1103   18.4605 C.3     1  UNL1        0.2526
     12 O           0.7275    1.6791   18.1687 O.3     1  UNL1       -0.4684
     13 O           0.0597    0.3439   20.7709 O.3     1  UNL1       -0.4684
     14 C           0.1525    1.5069   21.7138 C.3     1  UNL1        0.2526
     15 O           3.8880   -3.3929   21.5652 O.3     1  UNL1       -0.4361
     16 C           4.6120   -2.9982   22.8182 C.ar    1  UNL1        0.1473
     17 C           5.8157   -3.7738   23.2650 C.ar    1  UNL1        0.0399
     18 C           6.5396   -3.3791   24.5179 C.ar    1  UNL1        0.0328
     19 C           6.0600   -2.2087   25.3242 C.ar    1  UNL1        0.1403
     20 F           6.7840   -1.8139   26.5773 F       1  UNL1       -0.2042
     21 C           4.8563   -1.4330   24.8775 C.ar    1  UNL1        0.0328
     22 C           4.1323   -1.8277   23.6245 C.ar    1  UNL1        0.0399
@<TRIPOS>BOND
     1    11    12    1
     2    12     1    1
     3     1     2   ar
     4     2     3   ar
     5     3     4   ar
     6     4     5   ar
     7     5     6   ar
     8     6     7   ar
     9     7    15    1
    10    15    16    1
    11    16    17   ar
    12    17    18   ar
    13    18    19   ar
    14    19    20    1
    15    19    21   ar
    16    21    22   ar
    17     7     8   ar
    18     8     9   ar
    19     9    10   ar
    20    10    13    1
    21    13    14    1
    22    10     1   ar
    23     8     3   ar
    24    22    16   ar
