@<TRIPOS>MOLECULE
*****
 23 25 0 0 0
SMALL
GASTEIGER

@<TRIPOS>ATOM
      1 C          -9.0990  -19.5827   20.4135 C.3     1  UNL1        0.0042
      2 C          -7.6384  -19.5423   20.7525 C.3     1  UNL1        0.0462
      3 C          -6.6914  -20.5098   20.1066 C.3     1  UNL1        0.0255
      4 C          -5.2308  -20.4694   20.4457 C.3     1  UNL1        0.0937
      5 N          -4.7172  -19.4615   21.4307 N.am    1  UNL1       -0.2746
      6 C          -3.2566  -19.4210   21.7698 C.2     1  UNL1        0.2412
      7 O          -2.3096  -20.3885   21.1239 O.2     1  UNL1       -0.2737
      8 C          -5.6642  -18.4940   22.0766 C.3     1  UNL1        0.1398
      9 C          -7.1247  -18.5344   21.7376 C.3     1  UNL1        0.1795
     10 N          -8.0717  -17.5669   22.3835 N.pl3   1  UNL1       -0.1917
     11 C          -7.8155  -16.0918   22.2914 C.3     1  UNL1        0.2532
     12 C          -9.2749  -18.0745   23.1216 C.2     1  UNL1        0.3205
     13 N          -9.1275  -19.1771   24.1278 N.2     1  UNL1        0.0097
     14 C         -10.3307  -19.6847   24.8659 C.2     1  UNL1        0.4717
     15 N         -11.6812  -19.0898   24.5977 N.2     1  UNL1        0.0158
     16 C         -11.8286  -17.9871   23.5913 C.2     1  UNL1        0.3714
     17 N         -13.0229  -17.2119   23.1196 N.2     1  UNL1       -0.0339
     18 C         -12.5580  -16.2251   22.0900 C.2     1  UNL1        0.2323
     19 C         -11.0761  -16.3906   21.9255 C.2     1  UNL1        0.0486
     20 C         -10.6255  -17.4796   22.8534 C.3     1  UNL1        0.2428
     21 C          -2.7429  -18.4131   22.7549 C.3     1  UNL1        0.1901
     22 C          -2.5698  -16.9815   22.3417 C.1     1  UNL1        0.0830
     23 N          -2.3965  -15.5500   21.9286 N.1     1  UNL1       -0.1954
@<TRIPOS>BOND
     1     2     1    1
     2     2     3    1
     3     3     4    1
     4     4     5    1
     5     5     6   am
     6     6     7    2
     7     6    21    1
     8    21    22    1
     9    22    23    3
    10     5     8    1
    11     8     9    1
    12     9    10    1
    13    10    11    1
    14    10    12    1
    15    12    13    2
    16    13    14    1
    17    14    15    2
    18    15    16    1
    19    16    17    2
    20    17    18    1
    21    18    19    2
    22    19    20    1
    23     9     2    1
    24    20    12    1
    25    20    16    1
@<TRIPOS>MOLECULE
*****
 23 25 0 0 0
SMALL
GASTEIGER

@<TRIPOS>ATOM
      1 C          -9.1365  -15.1374   25.2967 C.3     1  UNL1        0.0042
      2 C          -7.9199  -15.7337   24.6533 C.3     1  UNL1        0.0462
      3 C          -6.6021  -15.0219   24.7368 C.3     1  UNL1        0.0255
      4 C          -5.3854  -15.6183   24.0933 C.3     1  UNL1        0.0937
      5 N          -5.4865  -16.9265   23.3665 N.am    1  UNL1       -0.2746
      6 C          -4.2698  -17.5229   22.7230 C.2     1  UNL1        0.2412
      7 O          -2.9521  -16.8111   22.8065 O.2     1  UNL1       -0.2737
      8 C          -6.8042  -17.6383   23.2831 C.3     1  UNL1        0.1398
      9 C          -8.0208  -17.0419   23.9264 C.3     1  UNL1        0.1795
     10 N          -9.3385  -17.7538   23.8430 N.pl3   1  UNL1       -0.1917
     11 C          -9.7432  -18.7119   24.9239 C.3     1  UNL1        0.2532
     12 C         -10.2516  -17.5075   22.6787 C.2     1  UNL1        0.3205
     13 N         -11.3417  -16.4825   22.7841 N.2     1  UNL1        0.0097
     14 C         -12.2548  -16.2362   21.6198 C.2     1  UNL1        0.4717
     15 N         -12.0778  -17.0149   20.3500 N.2     1  UNL1        0.0158
     16 C         -10.9876  -18.0399   20.2447 C.2     1  UNL1        0.3714
     17 N         -10.5740  -18.9542   19.1298 N.2     1  UNL1       -0.0339
     18 C          -9.4054  -19.7656   19.6050 C.2     1  UNL1        0.2323
     19 C          -9.0967  -19.3527   21.0137 C.2     1  UNL1        0.0486
     20 C         -10.0746  -18.2862   21.4089 C.3     1  UNL1        0.2428
     21 C          -4.3708  -18.8311   21.9962 C.3     1  UNL1        0.1901
     22 C          -3.1270  -19.5953   21.6511 C.1     1  UNL1        0.0830
     23 N          -1.8832  -20.3595   21.3061 N.1     1  UNL1       -0.1954
@<TRIPOS>BOND
     1     2     1    1
     2     2     3    1
     3     3     4    1
     4     4     5    1
     5     5     6   am
     6     6     7    2
     7     6    21    1
     8    21    22    1
     9    22    23    3
    10     5     8    1
    11     8     9    1
    12     9    10    1
    13    10    11    1
    14    10    12    1
    15    12    13    2
    16    13    14    1
    17    14    15    2
    18    15    16    1
    19    16    17    2
    20    17    18    1
    21    18    19    2
    22    19    20    1
    23     9     2    1
    24    20    12    1
    25    20    16    1
@<TRIPOS>MOLECULE
*****
 23 25 0 0 0
SMALL
GASTEIGER

@<TRIPOS>ATOM
      1 C          -8.8784  -16.0026   24.6043 C.3     1  UNL1        0.0042
      2 C          -7.5443  -16.4168   24.0581 C.3     1  UNL1        0.0462
      3 C          -6.3165  -15.6242   24.3964 C.3     1  UNL1        0.0255
      4 C          -4.9823  -16.0385   23.8502 C.3     1  UNL1        0.0937
      5 N          -4.8758  -17.2452   22.9657 N.am    1  UNL1       -0.2746
      6 C          -3.5417  -17.6595   22.4195 C.2     1  UNL1        0.2412
      7 O          -2.3139  -16.8669   22.7578 O.2     1  UNL1       -0.2737
      8 C          -6.1036  -18.0378   22.6274 C.3     1  UNL1        0.1398
      9 C          -7.4377  -17.6236   23.1736 C.3     1  UNL1        0.1795
     10 N          -8.6656  -18.4162   22.8353 N.pl3   1  UNL1       -0.1917
     11 C          -8.6656  -19.9069   23.0022 C.3     1  UNL1        0.2532
     12 C          -9.8933  -17.7180   22.3301 C.2     1  UNL1        0.3205
     13 N          -9.8097  -16.8344   21.1209 N.2     1  UNL1        0.0097
     14 C         -11.0374  -16.1363   20.6158 C.2     1  UNL1        0.4717
     15 N         -12.3489  -16.3217   21.3198 N.2     1  UNL1        0.0158
     16 C         -12.4325  -17.2054   22.5290 C.2     1  UNL1        0.3714
     17 N         -13.5779  -17.5768   23.4235 N.2     1  UNL1       -0.0339
     18 C         -13.0582  -18.5043   24.4815 C.2     1  UNL1        0.2323
     19 C         -11.5914  -18.7063   24.2408 C.2     1  UNL1        0.0486
     20 C         -11.2048  -17.9035   23.0342 C.3     1  UNL1        0.2428
     21 C          -3.4352  -18.8663   21.5350 C.3     1  UNL1        0.1901
     22 C          -2.7374  -18.7664   20.2109 C.1     1  UNL1        0.0830
     23 N          -2.0394  -18.6665   18.8869 N.1     1  UNL1       -0.1954
@<TRIPOS>BOND
     1     2     1    1
     2     2     3    1
     3     3     4    1
     4     4     5    1
     5     5     6   am
     6     6     7    2
     7     6    21    1
     8    21    22    1
     9    22    23    3
    10     5     8    1
    11     8     9    1
    12     9    10    1
    13    10    11    1
    14    10    12    1
    15    12    13    2
    16    13    14    1
    17    14    15    2
    18    15    16    1
    19    16    17    2
    20    17    18    1
    21    18    19    2
    22    19    20    1
    23     9     2    1
    24    20    12    1
    25    20    16    1
@<TRIPOS>MOLECULE
*****
 23 25 0 0 0
SMALL
GASTEIGER

@<TRIPOS>ATOM
      1 C          -9.6007  -19.3149   20.6565 C.3     1  UNL1        0.0042
      2 C          -8.1279  -19.3057   20.9403 C.3     1  UNL1        0.0462
      3 C          -7.2278  -20.2982   20.2656 C.3     1  UNL1        0.0255
      4 C          -5.7549  -20.2890   20.5494 C.3     1  UNL1        0.0937
      5 N          -5.1820  -19.2873   21.5077 N.am    1  UNL1       -0.2746
      6 C          -3.7092  -19.2780   21.7915 C.2     1  UNL1        0.2412
      7 O          -2.8092  -20.2705   21.1169 O.2     1  UNL1       -0.2737
      8 C          -6.0820  -18.2948   22.1823 C.3     1  UNL1        0.1398
      9 C          -7.5548  -18.3041   21.8986 C.3     1  UNL1        0.1795
     10 N          -8.4549  -17.3116   22.5732 N.pl3   1  UNL1       -0.1917
     11 C          -7.9816  -16.5778   23.7928 C.3     1  UNL1        0.2532
     12 C          -9.8282  -17.0528   22.0280 C.2     1  UNL1        0.3205
     13 N          -9.9947  -16.3033   20.7394 N.2     1  UNL1        0.0097
     14 C         -11.3680  -16.0446   20.1943 C.2     1  UNL1        0.4717
     15 N         -12.5747  -16.5354   20.9378 N.2     1  UNL1        0.0158
     16 C         -12.4082  -17.2849   22.2264 C.2     1  UNL1        0.3714
     17 N         -13.4038  -17.8860   23.1738 N.2     1  UNL1       -0.0339
     18 C         -12.6459  -18.5162   24.3044 C.2     1  UNL1        0.2323
     19 C         -11.1818  -18.3046   24.0558 C.2     1  UNL1        0.0486
     20 C         -11.0350  -17.5436   22.7715 C.3     1  UNL1        0.2428
     21 C          -3.1363  -18.2763   22.7498 C.3     1  UNL1        0.1901
     22 C          -2.5240  -17.0085   22.2324 C.1     1  UNL1        0.0830
     23 N          -1.9118  -15.7406   21.7150 N.1     1  UNL1       -0.1954
@<TRIPOS>BOND
     1     2     1    1
     2     2     3    1
     3     3     4    1
     4     4     5    1
     5     5     6   am
     6     6     7    2
     7     6    21    1
     8    21    22    1
     9    22    23    3
    10     5     8    1
    11     8     9    1
    12     9    10    1
    13    10    11    1
    14    10    12    1
    15    12    13    2
    16    13    14    1
    17    14    15    2
    18    15    16    1
    19    16    17    2
    20    17    18    1
    21    18    19    2
    22    19    20    1
    23     9     2    1
    24    20    12    1
    25    20    16    1
@<TRIPOS>MOLECULE
*****
 23 25 0 0 0
SMALL
GASTEIGER

@<TRIPOS>ATOM
      1 C          -9.4729  -19.7755   22.8025 C.3     1  UNL1        0.0042
      2 C          -8.0033  -19.5385   22.6189 C.3     1  UNL1        0.0462
      3 C          -7.0943  -20.6849   22.2876 C.3     1  UNL1        0.0255
      4 C          -5.6246  -20.4479   22.1040 C.3     1  UNL1        0.0937
      5 N          -5.0638  -19.0645   22.2517 N.am    1  UNL1       -0.2746
      6 C          -3.5940  -18.8275   22.0681 C.2     1  UNL1        0.2412
      7 O          -2.6851  -19.9738   21.7368 O.2     1  UNL1       -0.2737
      8 C          -5.9727  -17.9182   22.5831 C.3     1  UNL1        0.1398
      9 C          -7.4423  -18.1552   22.7666 C.3     1  UNL1        0.1795
     10 N          -8.3513  -17.0088   23.0980 N.pl3   1  UNL1       -0.1917
     11 C          -8.6833  -16.7041   24.5287 C.3     1  UNL1        0.2532
     12 C          -8.9282  -16.1671   21.9986 C.2     1  UNL1        0.3205
     13 N          -8.1208  -15.0500   21.4068 N.2     1  UNL1        0.0097
     14 C          -8.6977  -14.2083   20.3073 C.2     1  UNL1        0.4717
     15 N         -10.0820  -14.4837   19.7997 N.2     1  UNL1        0.0158
     16 C         -10.8895  -15.6008   20.3916 C.2     1  UNL1        0.3714
     17 N         -12.2713  -16.1052   20.0981 N.2     1  UNL1       -0.0339
     18 C         -12.5484  -17.2586   21.0161 C.2     1  UNL1        0.2323
     19 C         -11.3378  -17.4671   21.8769 C.2     1  UNL1        0.0486
     20 C         -10.3126  -16.4424   21.4909 C.3     1  UNL1        0.2428
     21 C          -3.0332  -17.4442   22.2159 C.3     1  UNL1        0.1901
     22 C          -1.9279  -16.9826   21.3128 C.1     1  UNL1        0.0830
     23 N          -0.8227  -16.5210   20.4098 N.1     1  UNL1       -0.1954
@<TRIPOS>BOND
     1     2     1    1
     2     2     3    1
     3     3     4    1
     4     4     5    1
     5     5     6   am
     6     6     7    2
     7     6    21    1
     8    21    22    1
     9    22    23    3
    10     5     8    1
    11     8     9    1
    12     9    10    1
    13    10    11    1
    14    10    12    1
    15    12    13    2
    16    13    14    1
    17    14    15    2
    18    15    16    1
    19    16    17    2
    20    17    18    1
    21    18    19    2
    22    19    20    1
    23     9     2    1
    24    20    12    1
    25    20    16    1
@<TRIPOS>MOLECULE
*****
 23 25 0 0 0
SMALL
GASTEIGER

@<TRIPOS>ATOM
      1 C          -9.4585  -18.8884   20.6843 C.3     1  UNL1        0.0042
      2 C          -7.9882  -18.9986   20.9593 C.3     1  UNL1        0.0462
      3 C          -7.1804  -20.0767   20.2994 C.3     1  UNL1        0.0255
      4 C          -5.7100  -20.1869   20.5744 C.3     1  UNL1        0.0937
      5 N          -5.0472  -19.2190   21.5093 N.am    1  UNL1       -0.2746
      6 C          -3.5767  -19.3291   21.7843 C.2     1  UNL1        0.2412
      7 O          -2.7690  -20.4072   21.1244 O.2     1  UNL1       -0.2737
      8 C          -5.8549  -18.1409   22.1691 C.3     1  UNL1        0.1398
      9 C          -7.3253  -18.0307   21.8941 C.3     1  UNL1        0.1795
     10 N          -8.1330  -16.9526   22.5540 N.pl3   1  UNL1       -0.1917
     11 C          -8.7665  -15.8757   21.7240 C.3     1  UNL1        0.2532
     12 C          -8.3072  -16.9515   24.0438 C.2     1  UNL1        0.3205
     13 N          -9.4451  -17.7049   24.6665 N.2     1  UNL1        0.0097
     14 C          -9.6193  -17.7038   26.1563 C.2     1  UNL1        0.4717
     15 N          -8.6557  -16.9493   27.0235 N.2     1  UNL1        0.0158
     16 C          -7.5178  -16.1958   26.4008 C.2     1  UNL1        0.3714
     17 N          -6.4178  -15.3674   26.9955 N.2     1  UNL1       -0.0339
     18 C          -5.5637  -14.8566   25.8733 C.2     1  UNL1        0.2323
     19 C          -6.1359  -15.3693   24.5850 C.2     1  UNL1        0.0486
     20 C          -7.3436  -16.1969   24.9111 C.3     1  UNL1        0.2428
     21 C          -2.9140  -18.3612   22.7191 C.3     1  UNL1        0.1901
     22 C          -2.3933  -17.0539   22.1997 C.1     1  UNL1        0.0830
     23 N          -1.8727  -15.7465   21.6802 N.1     1  UNL1       -0.1954
@<TRIPOS>BOND
     1     2     1    1
     2     2     3    1
     3     3     4    1
     4     4     5    1
     5     5     6   am
     6     6     7    2
     7     6    21    1
     8    21    22    1
     9    22    23    3
    10     5     8    1
    11     8     9    1
    12     9    10    1
    13    10    11    1
    14    10    12    1
    15    12    13    2
    16    13    14    1
    17    14    15    2
    18    15    16    1
    19    16    17    2
    20    17    18    1
    21    18    19    2
    22    19    20    1
    23     9     2    1
    24    20    12    1
    25    20    16    1
@<TRIPOS>MOLECULE
*****
 23 25 0 0 0
SMALL
GASTEIGER

@<TRIPOS>ATOM
      1 C          -5.2336  -20.3099   20.4981 C.3     1  UNL1        0.0042
      2 C          -5.3992  -19.1933   21.4858 C.3     1  UNL1        0.0462
      3 C          -4.2193  -18.7094   22.2756 C.3     1  UNL1        0.0255
      4 C          -4.3850  -17.5927   23.2634 C.3     1  UNL1        0.0937
      5 N          -5.7305  -16.9601   23.4614 N.am    1  UNL1       -0.2746
      6 C          -5.8962  -15.8435   24.4492 C.2     1  UNL1        0.2412
      7 O          -4.7163  -15.3595   25.2390 O.2     1  UNL1       -0.2737
      8 C          -6.9104  -17.4440   22.6717 C.3     1  UNL1        0.1398
      9 C          -6.7447  -18.5606   21.6839 C.3     1  UNL1        0.1795
     10 N          -7.9247  -19.0445   20.8942 N.pl3   1  UNL1       -0.1917
     11 C          -7.7139  -19.8857   19.6703 C.3     1  UNL1        0.2532
     12 C          -9.3153  -18.6873   21.3283 C.2     1  UNL1        0.3205
     13 N         -10.1727  -17.8175   20.4575 N.2     1  UNL1        0.0097
     14 C         -11.5634  -17.4602   20.8917 C.2     1  UNL1        0.4717
     15 N         -12.0966  -17.9727   22.1967 N.2     1  UNL1        0.0158
     16 C         -11.2390  -18.8425   23.0675 C.2     1  UNL1        0.3714
     17 N         -11.4907  -19.4911   24.3964 N.2     1  UNL1       -0.0339
     18 C         -10.2557  -20.2493   24.7836 C.2     1  UNL1        0.2323
     19 C          -9.2407  -20.0692   23.6939 C.2     1  UNL1        0.0486
     20 C          -9.8485  -19.1998   22.6333 C.3     1  UNL1        0.2428
     21 C          -7.2417  -15.2108   24.6473 C.3     1  UNL1        0.1901
     22 C          -7.8798  -15.2146   26.0048 C.1     1  UNL1        0.0830
     23 N          -8.5177  -15.2186   27.3624 N.1     1  UNL1       -0.1954
@<TRIPOS>BOND
     1     2     1    1
     2     2     3    1
     3     3     4    1
     4     4     5    1
     5     5     6   am
     6     6     7    2
     7     6    21    1
     8    21    22    1
     9    22    23    3
    10     5     8    1
    11     8     9    1
    12     9    10    1
    13    10    11    1
    14    10    12    1
    15    12    13    2
    16    13    14    1
    17    14    15    2
    18    15    16    1
    19    16    17    2
    20    17    18    1
    21    18    19    2
    22    19    20    1
    23     9     2    1
    24    20    12    1
    25    20    16    1
@<TRIPOS>MOLECULE
*****
 23 25 0 0 0
SMALL
GASTEIGER

@<TRIPOS>ATOM
      1 C          -7.0885  -19.7731   19.2868 C.3     1  UNL1        0.0042
      2 C          -8.3486  -19.3405   19.9758 C.3     1  UNL1        0.0462
      3 C          -9.5929  -19.0905   19.1761 C.3     1  UNL1        0.0255
      4 C         -10.8530  -18.6579   19.8652 C.3     1  UNL1        0.0937
      5 N         -10.8690  -18.4752   21.3539 N.am    1  UNL1       -0.2746
      6 C         -12.1291  -18.0425   22.0430 C.2     1  UNL1        0.2412
      7 O         -13.3734  -17.7926   21.2434 O.2     1  UNL1       -0.2737
      8 C          -9.6248  -18.7251   22.1536 C.3     1  UNL1        0.1398
      9 C          -8.3647  -19.1578   21.4645 C.3     1  UNL1        0.1795
     10 N          -7.1204  -19.4077   22.2642 N.pl3   1  UNL1       -0.1917
     11 C          -6.7627  -20.8045   22.6779 C.3     1  UNL1        0.2532
     12 C          -6.2339  -18.2609   22.6503 C.2     1  UNL1        0.3205
     13 N          -6.8316  -17.0128   23.2290 N.2     1  UNL1        0.0097
     14 C          -5.9451  -15.8660   23.6150 C.2     1  UNL1        0.4717
     15 N          -4.4610  -15.9673   23.4223 N.2     1  UNL1        0.0158
     16 C          -3.8634  -17.2156   22.8435 C.2     1  UNL1        0.3714
     17 N          -2.4464  -17.6022   22.5392 N.2     1  UNL1       -0.0339
     18 C          -2.4570  -18.9879   21.9651 C.2     1  UNL1        0.2323
     19 C          -3.8808  -19.4577   21.9147 C.2     1  UNL1        0.0486
     20 C          -4.7498  -18.3623   22.4575 C.3     1  UNL1        0.2428
     21 C         -12.1451  -17.8599   23.5318 C.3     1  UNL1        0.1901
     22 C         -13.3715  -18.2173   24.3181 C.1     1  UNL1        0.0830
     23 N         -14.5978  -18.5746   25.1045 N.1     1  UNL1       -0.1954
@<TRIPOS>BOND
     1     2     1    1
     2     2     3    1
     3     3     4    1
     4     4     5    1
     5     5     6   am
     6     6     7    2
     7     6    21    1
     8    21    22    1
     9    22    23    3
    10     5     8    1
    11     8     9    1
    12     9    10    1
    13    10    11    1
    14    10    12    1
    15    12    13    2
    16    13    14    1
    17    14    15    2
    18    15    16    1
    19    16    17    2
    20    17    18    1
    21    18    19    2
    22    19    20    1
    23     9     2    1
    24    20    12    1
    25    20    16    1
@<TRIPOS>MOLECULE
*****
 23 25 0 0 0
SMALL
GASTEIGER

@<TRIPOS>ATOM
      1 C          -5.6167  -20.3639   20.4520 C.3     1  UNL1        0.0042
      2 C          -5.7066  -19.2352   21.4358 C.3     1  UNL1        0.0462
      3 C          -4.4758  -18.7664   22.1539 C.3     1  UNL1        0.0255
      4 C          -4.5657  -17.6376   23.1377 C.3     1  UNL1        0.0937
      5 N          -5.8863  -16.9777   23.4034 N.am    1  UNL1       -0.2746
      6 C          -5.9762  -15.8489   24.3872 C.2     1  UNL1        0.2412
      7 O          -4.7456  -15.3801   25.1053 O.2     1  UNL1       -0.2737
      8 C          -7.1169  -17.4465   22.6853 C.3     1  UNL1        0.1398
      9 C          -7.0271  -18.5752   21.7015 C.3     1  UNL1        0.1795
     10 N          -8.2578  -19.0441   20.9834 N.pl3   1  UNL1       -0.1917
     11 C          -8.1443  -19.6413   19.6121 C.3     1  UNL1        0.2532
     12 C          -9.6020  -18.9156   21.6366 C.2     1  UNL1        0.3205
     13 N          -9.9327  -19.7455   22.8415 N.2     1  UNL1        0.0097
     14 C         -11.2769  -19.6171   23.4947 C.2     1  UNL1        0.4717
     15 N         -12.2904  -18.6588   22.9430 N.2     1  UNL1        0.0158
     16 C         -11.9596  -17.8289   21.7380 C.2     1  UNL1        0.3714
     17 N         -12.7499  -16.8073   20.9753 N.2     1  UNL1       -0.0339
     18 C         -11.8942  -16.3043   19.8507 C.2     1  UNL1        0.2323
     19 C         -10.5750  -17.0151   19.9184 C.2     1  UNL1        0.0486
     20 C         -10.6155  -17.9573   21.0849 C.3     1  UNL1        0.2428
     21 C          -7.2968  -15.1890   24.6528 C.3     1  UNL1        0.1901
     22 C          -7.8963  -15.2373   26.0270 C.1     1  UNL1        0.0830
     23 N          -8.4957  -15.2857   27.4012 N.1     1  UNL1       -0.1954
@<TRIPOS>BOND
     1     2     1    1
     2     2     3    1
     3     3     4    1
     4     4     5    1
     5     5     6   am
     6     6     7    2
     7     6    21    1
     8    21    22    1
     9    22    23    3
    10     5     8    1
    11     8     9    1
    12     9    10    1
    13    10    11    1
    14    10    12    1
    15    12    13    2
    16    13    14    1
    17    14    15    2
    18    15    16    1
    19    16    17    2
    20    17    18    1
    21    18    19    2
    22    19    20    1
    23     9     2    1
    24    20    12    1
    25    20    16    1
