@<TRIPOS>MOLECULE
*****
 27 30 0 0 0
SMALL
GASTEIGER

@<TRIPOS>ATOM
      1 C           7.4796   -5.6750   26.7774 C.2     1  UNL1        0.0919
      2 C           8.1890   -6.7245   25.9741 C.2     1  UNL1        0.0183
      3 C           8.2565   -6.6073   24.4802 C.2     1  UNL1        0.0511
      4 C           7.6146   -5.4408   23.7896 C.2     1  UNL1        0.2322
      5 N           7.5184   -5.0601   22.3419 N.2     1  UNL1       -0.0308
      6 C           6.7495   -3.7754   22.2505 C.2     1  UNL1        0.3752
      7 N           6.3705   -3.3620   23.6417 N.2     1  UNL1       -0.0347
      8 C           6.9052   -4.3913   24.5929 C.2     1  UNL1        0.2191
      9 C           6.8377   -4.5085   26.0868 C.3     1  UNL1        0.1226
     10 C           6.4179   -3.0342   20.9892 C.ar    1  UNL1        0.0884
     11 C           7.3951   -3.0153   19.8514 C.ar    1  UNL1        0.0077
     12 C           7.0635   -2.2742   18.5902 C.ar    1  UNL1        0.0003
     13 C           5.7547   -1.5520   18.4668 C.ar    1  UNL1        0.0000
     14 C           4.7774   -1.5709   19.6046 C.ar    1  UNL1        0.0002
     15 C           5.1090   -2.3120   20.8658 C.ar    1  UNL1        0.0077
     16 C           3.4685   -0.8487   19.4811 C.ar    1  UNL1        0.0000
     17 C           2.3144   -1.2324   20.3590 C.ar    1  UNL1        0.0000
     18 C           1.0056   -0.5101   20.2355 C.ar    1  UNL1        0.0000
     19 C           0.8508    0.5958   19.2341 C.ar    1  UNL1        0.0000
     20 C           2.0049    0.9795   18.3561 C.ar    1  UNL1        0.0000
     21 C           3.3137    0.2573   18.4796 C.ar    1  UNL1        0.0000
     22 S           7.4121   -5.7922   28.2713 S.O2    1  UNL1        0.0054
     23 O           6.1400   -4.9974   28.2761 O.2     1  UNL1       -0.1689
     24 O           8.6842   -6.5870   28.2665 O.2     1  UNL1       -0.1689
     25 C           7.3446   -5.9093   29.7652 C.3     1  UNL1        0.1556
     26 C           7.6671   -4.0509   31.5518 C.3     1  UNL1        0.0019
     27 C           6.7868   -4.7813   30.5815 C.3     1  UNL1        0.0257
@<TRIPOS>BOND
     1    26    27    1
     2    27    25    1
     3    25    22    1
     4    22    23    2
     5    22    24    2
     6    22     1    1
     7     1     2    2
     8     2     3    1
     9     3     4    2
    10     4     5    1
    11     5     6    2
    12     6    10    1
    13    10    11   ar
    14    11    12   ar
    15    12    13   ar
    16    13    14   ar
    17    14    16    1
    18    16    17   ar
    19    17    18   ar
    20    18    19   ar
    21    19    20   ar
    22    20    21   ar
    23    14    15   ar
    24     6     7    1
    25     7     8    2
    26     8     9    1
    27     9     1    1
    28     8     4    1
    29    15    10   ar
    30    21    16   ar
@<TRIPOS>MOLECULE
*****
 27 30 0 0 0
SMALL
GASTEIGER

@<TRIPOS>ATOM
      1 C           3.1736   -0.7922   19.3169 C.2     1  UNL1        0.0919
      2 C           3.5605    0.3107   18.3768 C.2     1  UNL1        0.0183
      3 C           2.7127    1.5442   18.2783 C.2     1  UNL1        0.0511
      4 C           1.4780    1.6748   19.1199 C.2     1  UNL1        0.2322
      5 N           0.4541    2.7647   19.2374 N.2     1  UNL1       -0.0308
      6 C          -0.5657    2.3353   20.2502 C.2     1  UNL1        0.3752
      7 N          -0.1721    0.9801   20.7586 N.2     1  UNL1       -0.0347
      8 C           1.0911    0.5719   20.0600 C.2     1  UNL1        0.2191
      9 C           1.9388   -0.6616   20.1585 C.3     1  UNL1        0.1226
     10 C          -1.7681    3.1229   20.6792 C.ar    1  UNL1        0.0884
     11 C          -2.6175    3.8134   19.6536 C.ar    1  UNL1        0.0077
     12 C          -3.8198    4.6010   20.0825 C.ar    1  UNL1        0.0003
     13 C          -4.1728    4.6981   21.5371 C.ar    1  UNL1        0.0000
     14 C          -3.3234    4.0077   22.5628 C.ar    1  UNL1        0.0002
     15 C          -2.1211    3.2201   22.1338 C.ar    1  UNL1        0.0077
     16 C          -3.6765    4.1050   24.0174 C.ar    1  UNL1        0.0000
     17 C          -5.0030    4.6700   24.4311 C.ar    1  UNL1        0.0000
     18 C          -5.3559    4.7672   25.8857 C.ar    1  UNL1        0.0000
     19 C          -4.3824    4.2994   26.9266 C.ar    1  UNL1        0.0000
     20 C          -3.0560    3.7344   26.5129 C.ar    1  UNL1        0.0000
     21 C          -2.7030    3.6372   25.0583 C.ar    1  UNL1        0.0000
     22 S           4.0213   -2.0257   19.4154 S.O2    1  UNL1        0.0054
     23 O           4.2691   -1.9735   17.9370 O.2     1  UNL1       -0.1689
     24 O           3.7736   -2.0779   20.8939 O.2     1  UNL1       -0.1689
     25 C           4.8691   -3.2592   19.5139 C.3     1  UNL1        0.1556
     26 C           3.3514   -5.3596   19.7010 C.3     1  UNL1        0.0019
     27 C           4.3726   -4.5575   18.9501 C.3     1  UNL1        0.0257
@<TRIPOS>BOND
     1    26    27    1
     2    27    25    1
     3    25    22    1
     4    22    23    2
     5    22    24    2
     6    22     1    1
     7     1     2    2
     8     2     3    1
     9     3     4    2
    10     4     5    1
    11     5     6    2
    12     6    10    1
    13    10    11   ar
    14    11    12   ar
    15    12    13   ar
    16    13    14   ar
    17    14    16    1
    18    16    17   ar
    19    17    18   ar
    20    18    19   ar
    21    19    20   ar
    22    20    21   ar
    23    14    15   ar
    24     6     7    1
    25     7     8    2
    26     8     9    1
    27     9     1    1
    28     8     4    1
    29    15    10   ar
    30    21    16   ar
@<TRIPOS>MOLECULE
*****
 27 30 0 0 0
SMALL
GASTEIGER

@<TRIPOS>ATOM
      1 C          -1.7115  -18.1663   20.7346 C.2     1  UNL1        0.0919
      2 C          -1.8687  -18.5857   22.1661 C.2     1  UNL1        0.0183
      3 C          -3.2195  -18.9744   22.6898 C.2     1  UNL1        0.0511
      4 C          -4.4131  -18.9437   21.7819 C.2     1  UNL1        0.2322
      5 N          -5.8588  -19.2698   22.0133 N.2     1  UNL1       -0.0308
      6 C          -6.5951  -19.0521   20.7247 C.2     1  UNL1        0.3752
      7 N          -5.6045  -18.5913   19.6969 N.2     1  UNL1       -0.0347
      8 C          -4.2559  -18.5243   20.3504 C.2     1  UNL1        0.2191
      9 C          -2.9051  -18.1357   19.8267 C.3     1  UNL1        0.1226
     10 C          -8.0642  -19.2588   20.5028 C.ar    1  UNL1        0.0884
     11 C          -8.5571  -19.7878   19.1886 C.ar    1  UNL1        0.0077
     12 C         -10.0261  -19.9946   18.9668 C.ar    1  UNL1        0.0003
     13 C         -11.0022  -19.6722   20.0591 C.ar    1  UNL1        0.0000
     14 C         -10.5093  -19.1432   21.3733 C.ar    1  UNL1        0.0002
     15 C          -9.0403  -18.9365   21.5952 C.ar    1  UNL1        0.0077
     16 C         -11.4855  -18.8208   22.4657 C.ar    1  UNL1        0.0000
     17 C         -11.2079  -19.2594   23.8730 C.ar    1  UNL1        0.0000
     18 C         -12.1841  -18.9370   24.9653 C.ar    1  UNL1        0.0000
     19 C         -13.4378  -18.1762   24.6503 C.ar    1  UNL1        0.0000
     20 C         -13.7154  -17.7377   23.2430 C.ar    1  UNL1        0.0000
     21 C         -12.7392  -18.0600   22.1507 C.ar    1  UNL1        0.0000
     22 S          -0.3607  -17.7776   20.2109 S.O2    1  UNL1        0.0054
     23 O          -0.1142  -19.1970   19.7931 O.2     1  UNL1       -0.1689
     24 O          -0.6071  -16.3582   20.6287 O.2     1  UNL1       -0.1689
     25 C           0.9902  -17.3890   19.6872 C.3     1  UNL1        0.1556
     26 C           3.0143  -18.0074   21.1940 C.3     1  UNL1        0.0019
     27 C           2.0741  -16.9786   20.6394 C.3     1  UNL1        0.0257
@<TRIPOS>BOND
     1    26    27    1
     2    27    25    1
     3    25    22    1
     4    22    23    2
     5    22    24    2
     6    22     1    1
     7     1     2    2
     8     2     3    1
     9     3     4    2
    10     4     5    1
    11     5     6    2
    12     6    10    1
    13    10    11   ar
    14    11    12   ar
    15    12    13   ar
    16    13    14   ar
    17    14    16    1
    18    16    17   ar
    19    17    18   ar
    20    18    19   ar
    21    19    20   ar
    22    20    21   ar
    23    14    15   ar
    24     6     7    1
    25     7     8    2
    26     8     9    1
    27     9     1    1
    28     8     4    1
    29    15    10   ar
    30    21    16   ar
@<TRIPOS>MOLECULE
*****
 27 30 0 0 0
SMALL
GASTEIGER

@<TRIPOS>ATOM
      1 C           3.4418   -0.5788   18.9695 C.2     1  UNL1        0.0919
      2 C           3.7249    0.6786   18.2021 C.2     1  UNL1        0.0183
      3 C           2.8574    1.8868   18.3958 C.2     1  UNL1        0.0511
      4 C           1.7068    1.8378   19.3569 C.2     1  UNL1        0.2322
      5 N           0.6862    2.8628   19.7539 N.2     1  UNL1       -0.0308
      6 C          -0.2277    2.2389   20.7667 C.2     1  UNL1        0.3752
      7 N           0.2282    0.8283   20.9957 N.2     1  UNL1       -0.0347
      8 C           1.4238    0.5804   20.1243 C.2     1  UNL1        0.2191
      9 C           2.2913   -0.6278   19.9306 C.3     1  UNL1        0.1226
     10 C          -1.3929    2.9082   21.4335 C.ar    1  UNL1        0.0884
     11 C          -1.3146    3.2796   22.8846 C.ar    1  UNL1        0.0077
     12 C          -2.4797    3.9489   23.5514 C.ar    1  UNL1        0.0003
     13 C          -3.7231    4.2467   22.7670 C.ar    1  UNL1        0.0000
     14 C          -3.8013    3.8753   21.3158 C.ar    1  UNL1        0.0002
     15 C          -2.6362    3.2060   20.6491 C.ar    1  UNL1        0.0077
     16 C          -5.0448    4.1731   20.5314 C.ar    1  UNL1        0.0000
     17 C          -5.4568    3.2695   19.4073 C.ar    1  UNL1        0.0000
     18 C          -6.7002    3.5674   18.6230 C.ar    1  UNL1        0.0000
     19 C          -7.5315    4.7688   18.9627 C.ar    1  UNL1        0.0000
     20 C          -7.1194    5.6724   20.0869 C.ar    1  UNL1        0.0000
     21 C          -5.8761    5.3745   20.8712 C.ar    1  UNL1        0.0000
     22 S           4.3094   -1.7870   18.7758 S.O2    1  UNL1        0.0054
     23 O           4.4797   -1.9029   20.2616 O.2     1  UNL1       -0.1689
     24 O           4.1391   -1.6711   17.2900 O.2     1  UNL1       -0.1689
     25 C           5.1769   -2.9953   18.5821 C.3     1  UNL1        0.1556
     26 C           3.1513   -4.5346   19.1090 C.3     1  UNL1        0.0019
     27 C           4.6019   -4.3685   18.7649 C.3     1  UNL1        0.0257
@<TRIPOS>BOND
     1    26    27    1
     2    27    25    1
     3    25    22    1
     4    22    23    2
     5    22    24    2
     6    22     1    1
     7     1     2    2
     8     2     3    1
     9     3     4    2
    10     4     5    1
    11     5     6    2
    12     6    10    1
    13    10    11   ar
    14    11    12   ar
    15    12    13   ar
    16    13    14   ar
    17    14    16    1
    18    16    17   ar
    19    17    18   ar
    20    18    19   ar
    21    19    20   ar
    22    20    21   ar
    23    14    15   ar
    24     6     7    1
    25     7     8    2
    26     8     9    1
    27     9     1    1
    28     8     4    1
    29    15    10   ar
    30    21    16   ar
@<TRIPOS>MOLECULE
*****
 27 30 0 0 0
SMALL
GASTEIGER

@<TRIPOS>ATOM
      1 C           5.9952   -2.8618   31.7918 C.2     1  UNL1        0.0919
      2 C           6.4000   -4.1636   32.4174 C.2     1  UNL1        0.0183
      3 C           6.9103   -5.2821   31.5580 C.2     1  UNL1        0.0511
      4 C           7.0158   -5.0988   30.0730 C.2     1  UNL1        0.2322
      5 N           7.4790   -6.0146   28.9790 N.2     1  UNL1       -0.0308
      6 C           7.3605   -5.2787   27.6772 C.2     1  UNL1        0.3752
      7 N           6.8241   -3.9082   27.9667 N.2     1  UNL1       -0.0347
      8 C           6.6110   -3.7970   29.4474 C.2     1  UNL1        0.2191
      9 C           6.1007   -2.6785   30.3068 C.3     1  UNL1        0.1226
     10 C           7.7160   -5.8187   26.3237 C.ar    1  UNL1        0.0884
     11 C           8.1913   -7.2343   26.1821 C.ar    1  UNL1        0.0077
     12 C           8.5469   -7.7743   24.8286 C.ar    1  UNL1        0.0003
     13 C           8.4271   -6.8986   23.6167 C.ar    1  UNL1        0.0000
     14 C           7.9518   -5.4830   23.7582 C.ar    1  UNL1        0.0002
     15 C           7.5963   -4.9430   25.1117 C.ar    1  UNL1        0.0077
     16 C           7.8320   -4.6073   22.5462 C.ar    1  UNL1        0.0000
     17 C           8.9843   -4.4828   21.5941 C.ar    1  UNL1        0.0000
     18 C           8.8645   -3.6072   20.3821 C.ar    1  UNL1        0.0000
     19 C           7.5924   -2.8560   20.1223 C.ar    1  UNL1        0.0000
     20 C           6.4401   -2.9805   21.0745 C.ar    1  UNL1        0.0000
     21 C           6.5599   -3.8561   22.2864 C.ar    1  UNL1        0.0000
     22 S           5.4850   -1.7433   32.6512 S.O2    1  UNL1        0.0054
     23 O           6.8874   -1.2435   32.8334 O.2     1  UNL1       -0.1689
     24 O           4.0825   -2.2431   32.4689 O.2     1  UNL1       -0.1689
     25 C           4.9747   -0.6248   33.5106 C.3     1  UNL1        0.1556
     26 C           5.5958   -0.2902   36.0110 C.3     1  UNL1        0.0019
     27 C           4.6894   -0.8654   34.9634 C.3     1  UNL1        0.0257
@<TRIPOS>BOND
     1    26    27    1
     2    27    25    1
     3    25    22    1
     4    22    23    2
     5    22    24    2
     6    22     1    1
     7     1     2    2
     8     2     3    1
     9     3     4    2
    10     4     5    1
    11     5     6    2
    12     6    10    1
    13    10    11   ar
    14    11    12   ar
    15    12    13   ar
    16    13    14   ar
    17    14    16    1
    18    16    17   ar
    19    17    18   ar
    20    18    19   ar
    21    19    20   ar
    22    20    21   ar
    23    14    15   ar
    24     6     7    1
    25     7     8    2
    26     8     9    1
    27     9     1    1
    28     8     4    1
    29    15    10   ar
    30    21    16   ar
@<TRIPOS>MOLECULE
*****
 27 30 0 0 0
SMALL
GASTEIGER

@<TRIPOS>ATOM
      1 C          -4.1652    4.3467   19.8222 C.2     1  UNL1        0.0919
      2 C          -4.2382    4.5490   18.3377 C.2     1  UNL1        0.0183
      3 C          -3.0407    4.2604   17.4817 C.2     1  UNL1        0.0511
      4 C          -1.7703    3.7695   18.1101 C.2     1  UNL1        0.2322
      5 N          -0.4377    3.4040   17.5264 N.2     1  UNL1       -0.0308
      6 C           0.4589    2.9758   18.6502 C.2     1  UNL1        0.3752
      7 N          -0.3196    3.0766   19.9284 N.2     1  UNL1       -0.0347
      8 C          -1.6973    3.5672   19.5946 C.2     1  UNL1        0.2191
      9 C          -2.8947    3.8558   20.4506 C.3     1  UNL1        0.1226
     10 C           1.8838    2.5257   18.5187 C.ar    1  UNL1        0.0884
     11 C           2.9663    3.5302   18.2559 C.ar    1  UNL1        0.0077
     12 C           4.3911    3.0802   18.1245 C.ar    1  UNL1        0.0003
     13 C           4.7334    1.6257   18.2558 C.ar    1  UNL1        0.0000
     14 C           3.6509    0.6213   18.5186 C.ar    1  UNL1        0.0002
     15 C           2.2260    1.0712   18.6500 C.ar    1  UNL1        0.0077
     16 C           3.9932   -0.8333   18.6499 C.ar    1  UNL1        0.0000
     17 C           5.1968   -1.3870   17.9466 C.ar    1  UNL1        0.0000
     18 C           5.5391   -2.8414   18.0780 C.ar    1  UNL1        0.0000
     19 C           4.6777   -3.7422   18.9126 C.ar    1  UNL1        0.0000
     20 C           3.4741   -3.1886   19.6159 C.ar    1  UNL1        0.0000
     21 C           3.1318   -1.7341   19.4845 C.ar    1  UNL1        0.0000
     22 S          -5.3626    4.6352   20.6783 S.O2    1  UNL1        0.0054
     23 O          -5.5486    5.9475   19.9758 O.2     1  UNL1       -0.1689
     24 O          -5.1767    3.3230   21.3807 O.2     1  UNL1       -0.1689
     25 C          -6.5601    4.9238   21.5343 C.3     1  UNL1        0.1556
     26 C          -7.9355    4.4967   23.6967 C.3     1  UNL1        0.0019
     27 C          -6.7486    4.1937   22.8310 C.3     1  UNL1        0.0257
@<TRIPOS>BOND
     1    26    27    1
     2    27    25    1
     3    25    22    1
     4    22    23    2
     5    22    24    2
     6    22     1    1
     7     1     2    2
     8     2     3    1
     9     3     4    2
    10     4     5    1
    11     5     6    2
    12     6    10    1
    13    10    11   ar
    14    11    12   ar
    15    12    13   ar
    16    13    14   ar
    17    14    16    1
    18    16    17   ar
    19    17    18   ar
    20    18    19   ar
    21    19    20   ar
    22    20    21   ar
    23    14    15   ar
    24     6     7    1
    25     7     8    2
    26     8     9    1
    27     9     1    1
    28     8     4    1
    29    15    10   ar
    30    21    16   ar
@<TRIPOS>MOLECULE
*****
 27 30 0 0 0
SMALL
GASTEIGER

@<TRIPOS>ATOM
      1 C           3.3941    0.2119   29.9215 C.2     1  UNL1        0.0919
      2 C           4.6229   -0.5979   30.2118 C.2     1  UNL1        0.0183
      3 C           5.2913   -1.3673   29.1112 C.2     1  UNL1        0.0511
      4 C           4.7309   -1.3270   27.7205 C.2     1  UNL1        0.2322
      5 N           5.1699   -1.9776   26.4422 N.2     1  UNL1       -0.0308
      6 C           4.2123   -1.5700   25.3619 C.2     1  UNL1        0.3752
      7 N           3.1816   -0.6674   25.9725 N.2     1  UNL1       -0.0347
      8 C           3.5021   -0.5173   27.4302 C.2     1  UNL1        0.2191
      9 C           2.8337    0.2522   28.5308 C.3     1  UNL1        0.1226
     10 C           4.2747   -1.9910   23.9235 C.ar    1  UNL1        0.0884
     11 C           5.0878   -3.1874   23.5268 C.ar    1  UNL1        0.0077
     12 C           5.1502   -3.6085   22.0885 C.ar    1  UNL1        0.0003
     13 C           4.3995   -2.8330   21.0469 C.ar    1  UNL1        0.0000
     14 C           3.5864   -1.6366   21.4435 C.ar    1  UNL1        0.0002
     15 C           3.5240   -1.2155   22.8818 C.ar    1  UNL1        0.0077
     16 C           2.8356   -0.8611   20.4018 C.ar    1  UNL1        0.0000
     17 C           3.4785   -0.5643   19.0795 C.ar    1  UNL1        0.0000
     18 C           2.7278    0.2111   18.0379 C.ar    1  UNL1        0.0000
     19 C           1.3341    0.6897   18.3185 C.ar    1  UNL1        0.0000
     20 C           0.6912    0.3928   19.6408 C.ar    1  UNL1        0.0000
     21 C           1.4420   -0.3826   20.6824 C.ar    1  UNL1        0.0000
     22 S           2.7257    0.9813   31.0221 S.O2    1  UNL1        0.0054
     23 O           4.0446    1.5885   31.3986 O.2     1  UNL1       -0.1689
     24 O           1.4068    0.3741   30.6456 O.2     1  UNL1       -0.1689
     25 C           2.0573    1.7508   32.1226 C.3     1  UNL1        0.1556
     26 C           0.8458    3.9572   31.4792 C.3     1  UNL1        0.0019
     27 C           0.7897    2.5044   31.8481 C.3     1  UNL1        0.0257
@<TRIPOS>BOND
     1    26    27    1
     2    27    25    1
     3    25    22    1
     4    22    23    2
     5    22    24    2
     6    22     1    1
     7     1     2    2
     8     2     3    1
     9     3     4    2
    10     4     5    1
    11     5     6    2
    12     6    10    1
    13    10    11   ar
    14    11    12   ar
    15    12    13   ar
    16    13    14   ar
    17    14    16    1
    18    16    17   ar
    19    17    18   ar
    20    18    19   ar
    21    19    20   ar
    22    20    21   ar
    23    14    15   ar
    24     6     7    1
    25     7     8    2
    26     8     9    1
    27     9     1    1
    28     8     4    1
    29    15    10   ar
    30    21    16   ar
@<TRIPOS>MOLECULE
*****
 27 30 0 0 0
SMALL
GASTEIGER

@<TRIPOS>ATOM
      1 C           3.7618   -1.5024   21.4910 C.2     1  UNL1        0.0919
      2 C           4.5217   -1.8221   22.7441 C.2     1  UNL1        0.0183
      3 C           4.1230   -1.1902   24.0448 C.2     1  UNL1        0.0511
      4 C           2.9645   -0.2386   24.0924 C.2     1  UNL1        0.2322
      5 N           2.3443    0.5320   25.2199 N.2     1  UNL1       -0.0308
      6 C           1.2011    1.3281   24.6637 C.2     1  UNL1        0.3752
      7 N           1.1148    1.0494   23.1924 N.2     1  UNL1       -0.0347
      8 C           2.2047    0.0811   22.8393 C.2     1  UNL1        0.2191
      9 C           2.6033   -0.5508   21.5386 C.3     1  UNL1        0.1226
     10 C           0.3021    2.2423   25.4422 C.ar    1  UNL1        0.0884
     11 C           0.7854    2.8589   26.7213 C.ar    1  UNL1        0.0077
     12 C          -0.1136    3.7731   27.4998 C.ar    1  UNL1        0.0003
     13 C          -1.4958    4.0707   26.9991 C.ar    1  UNL1        0.0000
     14 C          -1.9792    3.4541   25.7200 C.ar    1  UNL1        0.0002
     15 C          -1.0802    2.5399   24.9415 C.ar    1  UNL1        0.0077
     16 C          -3.3615    3.7518   25.2193 C.ar    1  UNL1        0.0000
     17 C          -3.7407    3.4016   23.8110 C.ar    1  UNL1        0.0000
     18 C          -5.1230    3.6992   23.3104 C.ar    1  UNL1        0.0000
     19 C          -6.1261    4.3471   24.2182 C.ar    1  UNL1        0.0000
     20 C          -5.7469    4.6973   25.6265 C.ar    1  UNL1        0.0000
     21 C          -4.3646    4.3996   26.1271 C.ar    1  UNL1        0.0000
     22 S           4.1604   -2.1343   20.1903 S.O2    1  UNL1        0.0054
     23 O           2.8643   -1.6920   19.5782 O.2     1  UNL1       -0.1689
     24 O           5.4565   -2.5765   20.8023 O.2     1  UNL1       -0.1689
     25 C           4.5590   -2.7661   18.8896 C.3     1  UNL1        0.1556
     26 C           3.5615   -5.0954   19.4635 C.3     1  UNL1        0.0019
     27 C           4.5898   -4.2602   18.7599 C.3     1  UNL1        0.0257
@<TRIPOS>BOND
     1    26    27    1
     2    27    25    1
     3    25    22    1
     4    22    23    2
     5    22    24    2
     6    22     1    1
     7     1     2    2
     8     2     3    1
     9     3     4    2
    10     4     5    1
    11     5     6    2
    12     6    10    1
    13    10    11   ar
    14    11    12   ar
    15    12    13   ar
    16    13    14   ar
    17    14    16    1
    18    16    17   ar
    19    17    18   ar
    20    18    19   ar
    21    19    20   ar
    22    20    21   ar
    23    14    15   ar
    24     6     7    1
    25     7     8    2
    26     8     9    1
    27     9     1    1
    28     8     4    1
    29    15    10   ar
    30    21    16   ar
@<TRIPOS>MOLECULE
*****
 27 30 0 0 0
SMALL
GASTEIGER

@<TRIPOS>ATOM
      1 C           0.7151    1.6604   27.8937 C.2     1  UNL1        0.0919
      2 C          -0.5729    2.3440   27.5421 C.2     1  UNL1        0.0183
      3 C          -0.9879    2.4691   26.1061 C.2     1  UNL1        0.0511
      4 C          -0.1150    1.9107   25.0217 C.2     1  UNL1        0.2322
      5 N          -0.2615    1.8840   23.5291 N.2     1  UNL1       -0.0308
      6 C           0.9360    1.1838   22.9583 C.2     1  UNL1        0.3752
      7 N           1.8226    0.7778   24.0980 N.2     1  UNL1       -0.0347
      8 C           1.1730    1.2271   25.3733 C.2     1  UNL1        0.2191
      9 C           1.5881    1.1019   26.8093 C.3     1  UNL1        0.1226
     10 C           1.2004    0.9337   21.5030 C.ar    1  UNL1        0.0884
     11 C           0.4857    1.7421   20.4611 C.ar    1  UNL1        0.0077
     12 C           0.7501    1.4920   19.0060 C.ar    1  UNL1        0.0003
     13 C           1.7291    0.4334   18.5927 C.ar    1  UNL1        0.0000
     14 C           2.4438   -0.3751   19.6347 C.ar    1  UNL1        0.0002
     15 C           2.1794   -0.1249   21.0898 C.ar    1  UNL1        0.0077
     16 C           3.4229   -1.4337   19.2214 C.ar    1  UNL1        0.0000
     17 C           3.1697   -2.8690   19.5759 C.ar    1  UNL1        0.0000
     18 C           4.1487   -3.9276   19.1626 C.ar    1  UNL1        0.0000
     19 C           5.3810   -3.5508   18.3948 C.ar    1  UNL1        0.0000
     20 C           5.6342   -2.1155   18.0403 C.ar    1  UNL1        0.0000
     21 C           4.6552   -1.0570   18.4536 C.ar    1  UNL1        0.0000
     22 S           1.1301    1.5352   29.3297 S.O2    1  UNL1        0.0054
     23 O           2.4092    2.2562   29.0229 O.2     1  UNL1       -0.1689
     24 O          -0.1490    0.8143   29.6366 O.2     1  UNL1       -0.1689
     25 C           1.5451    1.4101   30.7657 C.3     1  UNL1        0.1556
     26 C           0.5661    3.6509   31.6434 C.3     1  UNL1        0.0019
     27 C           0.8195    2.1838   31.8263 C.3     1  UNL1        0.0257
@<TRIPOS>BOND
     1    26    27    1
     2    27    25    1
     3    25    22    1
     4    22    23    2
     5    22    24    2
     6    22     1    1
     7     1     2    2
     8     2     3    1
     9     3     4    2
    10     4     5    1
    11     5     6    2
    12     6    10    1
    13    10    11   ar
    14    11    12   ar
    15    12    13   ar
    16    13    14   ar
    17    14    16    1
    18    16    17   ar
    19    17    18   ar
    20    18    19   ar
    21    19    20   ar
    22    20    21   ar
    23    14    15   ar
    24     6     7    1
    25     7     8    2
    26     8     9    1
    27     9     1    1
    28     8     4    1
    29    15    10   ar
    30    21    16   ar
