@<TRIPOS>MOLECULE
*****
 36 40 0 0 0
SMALL
GASTEIGER

@<TRIPOS>ATOM
      1 N          -7.4049  -19.4923   21.5887 N.3     1  UNL1       -0.2679
      2 C          -8.3090  -19.1419   22.7331 C.3     1  UNL1        0.0978
      3 C          -9.2760  -20.1586   23.2635 C.3     1  UNL1        0.0224
      4 C         -10.1802  -19.8082   24.4079 C.3     1  UNL1        0.0065
      5 C         -10.1174  -18.4411   25.0220 C.3     1  UNL1        0.0277
      6 C          -9.1504  -17.4244   24.4916 C.ar    1  UNL1       -0.0073
      7 C          -9.0876  -16.0573   25.1057 C.ar    1  UNL1       -0.0015
      8 C          -8.1206  -15.0406   24.5753 C.ar    1  UNL1        0.0203
      9 C          -7.2165  -15.3910   23.4310 C.ar    1  UNL1        0.0985
     10 N          -7.2793  -16.7581   22.8169 N.ar    1  UNL1       -0.2471
     11 C          -8.2463  -17.7748   23.3472 C.ar    1  UNL1        0.0695
     12 C          -6.0668  -20.1162   21.8539 C.3     1  UNL1        0.0886
     13 C          -0.2738  -16.8801   20.0597 C.ar    1  UNL1       -0.0003
     14 C          -0.7263  -17.7446   18.9205 C.ar    1  UNL1       -0.0003
     15 C          -1.9754  -18.5647   19.0515 C.ar    1  UNL1       -0.0045
     16 C          -2.7720  -18.5203   20.3217 C.ar    1  UNL1       -0.0234
     17 C          -2.3195  -17.6558   21.4609 C.ar    1  UNL1       -0.0103
     18 C          -1.0704  -16.8357   21.3299 C.ar    1  UNL1       -0.0032
     19 C          -3.1160  -17.6114   22.7312 C.3     1  UNL1        0.0953
     20 N          -4.3651  -18.4316   22.8622 N.3     1  UNL1       -0.2934
     21 C          -4.8177  -19.2961   21.7229 C.3     1  UNL1        0.0748
     22 C          -4.0211  -19.3405   20.4527 C.3     1  UNL1        0.0432
     23 H          -5.1256  -17.7806   23.0580 H       1  UNL1        0.1236
     24 C          -7.8387  -19.2187   20.1792 C.3     1  UNL1        0.0725
     25 C          -8.1876  -20.3576   19.2674 C.3     1  UNL1        0.0188
     26 C          -9.5739  -20.4713   18.7060 C.3     1  UNL1        0.0185
     27 C         -10.6007  -19.4256   19.0259 C.3     1  UNL1        0.0686
     28 N         -11.3046  -19.4462   20.3503 N.3     1  UNL1       -0.2985
     29 H         -10.7793  -20.0794   20.9532 H       1  UNL1        0.1232
     30 C         -11.4926  -18.1723   21.1196 C.3     1  UNL1        0.0568
     31 C         -12.5441  -18.0884   22.1859 C.3     1  UNL1        0.0328
     32 C         -12.7321  -16.8144   22.9553 C.3     1  UNL1        0.0699
     33 N         -11.8685  -15.6245   22.6582 N.3     1  UNL1       -0.2974
     34 C         -10.8170  -15.7085   21.5918 C.3     1  UNL1        0.0699
     35 C         -10.6290  -16.9824   20.8225 C.3     1  UNL1        0.0328
     36 H         -11.3893  -15.3844   23.5261 H       1  UNL1        0.1232
@<TRIPOS>BOND
     1    13    14   ar
     2    14    15   ar
     3    15    16   ar
     4    16    17   ar
     5    17    18   ar
     6    17    19    1
     7    19    20    1
     8    20    21    1
     9    21    12    1
    10    12     1    1
    11     1    24    1
    12    24    25    1
    13    25    26    1
    14    26    27    1
    15    27    28    1
    16    28    30    1
    17    30    31    1
    18    31    32    1
    19    32    33    1
    20    33    34    1
    21    34    35    1
    22     2     1    1
    23     2     3    1
    24     3     4    1
    25     4     5    1
    26     5     6    1
    27     6     7   ar
    28     7     8   ar
    29     8     9   ar
    30     9    10   ar
    31    10    11   ar
    32    21    22    1
    33    18    13   ar
    34    35    30    1
    35    11     2    1
    36    22    16    1
    37    11     6   ar
    38    20    23    1
    39    28    29    1
    40    33    36    1
@<TRIPOS>MOLECULE
*****
 36 40 0 0 0
SMALL
GASTEIGER

@<TRIPOS>ATOM
      1 N          -8.1933  -18.4630   21.3538 N.3     1  UNL1       -0.2679
      2 C          -9.1471  -18.9661   22.3964 C.3     1  UNL1        0.0978
      3 C          -8.7491  -20.1021   23.2914 C.3     1  UNL1        0.0224
      4 C          -9.7030  -20.6052   24.3341 C.3     1  UNL1        0.0065
      5 C         -11.0548  -19.9722   24.4817 C.3     1  UNL1        0.0277
      6 C         -11.4528  -18.8361   23.5868 C.ar    1  UNL1       -0.0073
      7 C         -12.8046  -18.2031   23.7344 C.ar    1  UNL1       -0.0015
      8 C         -13.2026  -17.0671   22.8395 C.ar    1  UNL1        0.0203
      9 C         -12.2488  -16.5640   21.7968 C.ar    1  UNL1        0.0985
     10 N         -10.8970  -17.1970   21.6492 N.ar    1  UNL1       -0.2471
     11 C         -10.4990  -18.3331   22.5441 C.ar    1  UNL1        0.0695
     12 C          -7.5863  -17.0979   21.4887 C.3     1  UNL1        0.0886
     13 C          -6.9092  -14.8073   27.9342 C.ar    1  UNL1       -0.0003
     14 C          -8.3641  -15.0236   27.6403 C.ar    1  UNL1       -0.0003
     15 C          -8.7905  -15.5250   26.2924 C.ar    1  UNL1       -0.0045
     16 C          -7.7620  -15.8101   25.2384 C.ar    1  UNL1       -0.0234
     17 C          -6.3071  -15.5938   25.5323 C.ar    1  UNL1       -0.0103
     18 C          -5.8807  -15.0924   26.8802 C.ar    1  UNL1       -0.0032
     19 C          -5.2785  -15.8789   24.4784 C.3     1  UNL1        0.0953
     20 N          -5.7049  -16.3802   23.1305 N.3     1  UNL1       -0.2934
     21 C          -7.1599  -16.5965   22.8366 C.3     1  UNL1        0.0748
     22 C          -8.1884  -16.3114   23.8905 C.3     1  UNL1        0.0432
     23 H          -5.2395  -17.2768   22.9890 H       1  UNL1        0.1236
     24 C          -7.8463  -19.3250   20.1763 C.3     1  UNL1        0.0725
     25 C          -6.4102  -19.5336   19.7967 C.3     1  UNL1        0.0188
     26 C          -5.5117  -20.3476   20.6798 C.3     1  UNL1        0.0185
     27 C          -4.6963  -19.6749   21.7442 C.3     1  UNL1        0.0686
     28 N          -4.1187  -18.3127   21.4977 N.3     1  UNL1       -0.2985
     29 H          -3.8455  -17.9398   22.4069 H       1  UNL1        0.1232
     30 C          -2.9347  -18.1530   20.5907 C.3     1  UNL1        0.0568
     31 C          -3.1400  -17.9308   19.1216 C.3     1  UNL1        0.0328
     32 C          -1.9560  -17.7710   18.2145 C.3     1  UNL1        0.0699
     33 N          -0.5667  -17.8335   18.7767 N.3     1  UNL1       -0.2974
     34 C          -0.3615  -18.0557   20.2459 C.3     1  UNL1        0.0699
     35 C          -1.5454  -18.2154   21.1529 C.3     1  UNL1        0.0328
     36 H          -0.1161  -16.9477   18.5471 H       1  UNL1        0.1232
@<TRIPOS>BOND
     1    13    14   ar
     2    14    15   ar
     3    15    16   ar
     4    16    17   ar
     5    17    18   ar
     6    17    19    1
     7    19    20    1
     8    20    21    1
     9    21    12    1
    10    12     1    1
    11     1    24    1
    12    24    25    1
    13    25    26    1
    14    26    27    1
    15    27    28    1
    16    28    30    1
    17    30    31    1
    18    31    32    1
    19    32    33    1
    20    33    34    1
    21    34    35    1
    22     2     1    1
    23     2     3    1
    24     3     4    1
    25     4     5    1
    26     5     6    1
    27     6     7   ar
    28     7     8   ar
    29     8     9   ar
    30     9    10   ar
    31    10    11   ar
    32    21    22    1
    33    18    13   ar
    34    35    30    1
    35    11     2    1
    36    22    16    1
    37    11     6   ar
    38    20    23    1
    39    28    29    1
    40    33    36    1
@<TRIPOS>MOLECULE
*****
 36 40 0 0 0
SMALL
GASTEIGER

@<TRIPOS>ATOM
      1 N          -9.4043  -18.6602   23.8558 N.3     1  UNL1       -0.2679
      2 C         -10.8173  -18.2856   23.5195 C.3     1  UNL1        0.0978
      3 C         -11.9379  -18.6928   24.4297 C.3     1  UNL1        0.0224
      4 C         -13.3510  -18.3183   24.0934 C.3     1  UNL1        0.0065
      5 C         -13.6434  -17.5366   22.8470 C.3     1  UNL1        0.0277
      6 C         -12.5227  -17.1294   21.9369 C.ar    1  UNL1       -0.0073
      7 C         -12.8151  -16.3477   20.6905 C.ar    1  UNL1       -0.0015
      8 C         -11.6944  -15.9406   19.7804 C.ar    1  UNL1        0.0203
      9 C         -10.2814  -16.3151   20.1166 C.ar    1  UNL1        0.0985
     10 N          -9.9890  -17.0968   21.3630 N.ar    1  UNL1       -0.2471
     11 C         -11.1097  -17.5039   22.2731 C.ar    1  UNL1        0.0695
     12 C          -8.7578  -19.8325   23.1791 C.3     1  UNL1        0.0886
     13 C          -2.8003  -19.0036   19.8518 C.ar    1  UNL1       -0.0003
     14 C          -2.5205  -19.2652   21.3020 C.ar    1  UNL1       -0.0003
     15 C          -3.6560  -19.4832   22.2575 C.ar    1  UNL1       -0.0045
     16 C          -5.0714  -19.4398   21.7628 C.ar    1  UNL1       -0.0234
     17 C          -5.3512  -19.1782   20.3125 C.ar    1  UNL1       -0.0103
     18 C          -4.2157  -18.9601   19.3570 C.ar    1  UNL1       -0.0032
     19 C          -6.7666  -19.1347   19.8178 C.3     1  UNL1        0.0953
     20 N          -7.9022  -19.3528   20.7733 N.3     1  UNL1       -0.2934
     21 C          -7.6223  -19.6144   22.2236 C.3     1  UNL1        0.0748
     22 C          -6.2069  -19.6579   22.7183 C.3     1  UNL1        0.0432
     23 H          -8.4295  -20.1539   20.4260 H       1  UNL1        0.1236
     24 C          -8.6377  -17.8624   24.8686 C.3     1  UNL1        0.0725
     25 C          -9.3049  -17.4228   26.1381 C.3     1  UNL1        0.0188
     26 C          -8.4772  -16.9392   27.2918 C.3     1  UNL1        0.0185
     27 C          -8.3104  -15.4676   27.5303 C.3     1  UNL1        0.0686
     28 N          -7.0908  -14.7587   27.0204 N.3     1  UNL1       -0.2985
     29 H          -6.3841  -14.8244   27.7529 H       1  UNL1        0.1232
     30 C          -6.4383  -15.2101   25.7475 C.3     1  UNL1        0.0568
     31 C          -5.1583  -15.9906   25.7967 C.3     1  UNL1        0.0328
     32 C          -4.5056  -16.4421   24.5238 C.3     1  UNL1        0.0699
     33 N          -5.1330  -16.1130   23.2016 N.3     1  UNL1       -0.2974
     34 C          -6.4131  -15.3325   23.1524 C.3     1  UNL1        0.0699
     35 C          -7.0657  -14.8811   24.4253 C.3     1  UNL1        0.0328
     36 H          -5.3110  -17.0004   22.7311 H       1  UNL1        0.1232
@<TRIPOS>BOND
     1    13    14   ar
     2    14    15   ar
     3    15    16   ar
     4    16    17   ar
     5    17    18   ar
     6    17    19    1
     7    19    20    1
     8    20    21    1
     9    21    12    1
    10    12     1    1
    11     1    24    1
    12    24    25    1
    13    25    26    1
    14    26    27    1
    15    27    28    1
    16    28    30    1
    17    30    31    1
    18    31    32    1
    19    32    33    1
    20    33    34    1
    21    34    35    1
    22     2     1    1
    23     2     3    1
    24     3     4    1
    25     4     5    1
    26     5     6    1
    27     6     7   ar
    28     7     8   ar
    29     8     9   ar
    30     9    10   ar
    31    10    11   ar
    32    21    22    1
    33    18    13   ar
    34    35    30    1
    35    11     2    1
    36    22    16    1
    37    11     6   ar
    38    20    23    1
    39    28    29    1
    40    33    36    1
@<TRIPOS>MOLECULE
*****
 36 40 0 0 0
SMALL
GASTEIGER

@<TRIPOS>ATOM
      1 N          -8.3228  -16.7114   23.8158 N.3     1  UNL1       -0.2679
      2 C          -9.6398  -17.4287   23.8409 C.3     1  UNL1        0.0978
      3 C          -9.9239  -18.4381   24.9135 C.3     1  UNL1        0.0224
      4 C         -11.2410  -19.1554   24.9385 C.3     1  UNL1        0.0065
      5 C         -12.2741  -18.8635   23.8909 C.3     1  UNL1        0.0277
      6 C         -11.9900  -17.8542   22.8182 C.ar    1  UNL1       -0.0073
      7 C         -13.0230  -17.5622   21.7706 C.ar    1  UNL1       -0.0015
      8 C         -12.7390  -16.5529   20.6980 C.ar    1  UNL1        0.0203
      9 C         -11.4219  -15.8355   20.6729 C.ar    1  UNL1        0.0985
     10 N         -10.3889  -16.1275   21.7205 N.ar    1  UNL1       -0.2471
     11 C         -10.6729  -17.1368   22.7932 C.ar    1  UNL1        0.0695
     12 C          -7.4846  -16.7253   22.5718 C.3     1  UNL1        0.0886
     13 C          -7.7077  -22.1448   18.3494 C.ar    1  UNL1       -0.0003
     14 C          -8.8088  -21.1934   17.9857 C.ar    1  UNL1       -0.0003
     15 C          -8.9844  -19.9192   18.7574 C.ar    1  UNL1       -0.0045
     16 C          -8.0589  -19.5965   19.8929 C.ar    1  UNL1       -0.0234
     17 C          -6.9578  -20.5479   20.2566 C.ar    1  UNL1       -0.0103
     18 C          -6.7822  -21.8221   19.4848 C.ar    1  UNL1       -0.0032
     19 C          -6.0322  -20.2252   21.3920 C.3     1  UNL1        0.0953
     20 N          -6.2079  -18.9510   22.1638 N.3     1  UNL1       -0.2934
     21 C          -7.3090  -17.9995   21.8001 C.3     1  UNL1        0.0748
     22 C          -8.2345  -18.3223   20.6646 C.3     1  UNL1        0.0432
     23 H          -5.3326  -18.4338   22.0813 H       1  UNL1        0.1236
     24 C          -7.8437  -15.9801   25.0347 C.3     1  UNL1        0.0725
     25 C          -6.6015  -15.1422   24.9667 C.3     1  UNL1        0.0188
     26 C          -5.2534  -15.7879   25.0926 C.3     1  UNL1        0.0185
     27 C          -4.4157  -16.0195   23.8701 C.3     1  UNL1        0.0686
     28 N          -3.8833  -17.3904   23.5745 N.3     1  UNL1       -0.2985
     29 H          -4.6907  -17.9875   23.3953 H       1  UNL1        0.1232
     30 C          -2.9315  -17.5953   22.4334 C.3     1  UNL1        0.0568
     31 C          -2.2093  -16.4226   21.8394 C.3     1  UNL1        0.0328
     32 C          -1.2573  -16.6275   20.6983 C.3     1  UNL1        0.0699
     33 N          -1.0277  -18.0052   20.1514 N.3     1  UNL1       -0.2974
     34 C          -1.7500  -19.1780   20.7455 C.3     1  UNL1        0.0699
     35 C          -2.7019  -18.9731   21.8865 C.3     1  UNL1        0.0328
     36 H          -0.0301  -18.1962   20.2438 H       1  UNL1        0.1232
@<TRIPOS>BOND
     1    13    14   ar
     2    14    15   ar
     3    15    16   ar
     4    16    17   ar
     5    17    18   ar
     6    17    19    1
     7    19    20    1
     8    20    21    1
     9    21    12    1
    10    12     1    1
    11     1    24    1
    12    24    25    1
    13    25    26    1
    14    26    27    1
    15    27    28    1
    16    28    30    1
    17    30    31    1
    18    31    32    1
    19    32    33    1
    20    33    34    1
    21    34    35    1
    22     2     1    1
    23     2     3    1
    24     3     4    1
    25     4     5    1
    26     5     6    1
    27     6     7   ar
    28     7     8   ar
    29     8     9   ar
    30     9    10   ar
    31    10    11   ar
    32    21    22    1
    33    18    13   ar
    34    35    30    1
    35    11     2    1
    36    22    16    1
    37    11     6   ar
    38    20    23    1
    39    28    29    1
    40    33    36    1
@<TRIPOS>MOLECULE
*****
 36 40 0 0 0
SMALL
GASTEIGER

@<TRIPOS>ATOM
      1 N          -8.9241  -17.9655   22.9907 N.3     1  UNL1       -0.2679
      2 C         -10.2480  -17.5211   22.4430 C.3     1  UNL1        0.0978
      3 C         -10.3088  -16.7677   21.1474 C.3     1  UNL1        0.0224
      4 C         -11.6327  -16.3234   20.5997 C.3     1  UNL1        0.0065
      5 C         -12.8957  -16.6325   21.3476 C.3     1  UNL1        0.0277
      6 C         -12.8348  -17.3859   22.6432 C.ar    1  UNL1       -0.0073
      7 C         -14.0977  -17.6950   23.3911 C.ar    1  UNL1       -0.0015
      8 C         -14.0368  -18.4484   24.6867 C.ar    1  UNL1        0.0203
      9 C         -12.7130  -18.8928   25.2345 C.ar    1  UNL1        0.0985
     10 N         -11.4501  -18.5837   24.4866 N.ar    1  UNL1       -0.2471
     11 C         -11.5110  -17.8302   23.1909 C.ar    1  UNL1        0.0695
     12 C          -8.3054  -19.2451   22.5112 C.3     1  UNL1        0.0886
     13 C          -1.9583  -19.2679   19.8723 C.ar    1  UNL1       -0.0003
     14 C          -1.8737  -19.4682   21.3565 C.ar    1  UNL1       -0.0003
     15 C          -3.1262  -19.5037   22.1811 C.ar    1  UNL1       -0.0045
     16 C          -4.4633  -19.3389   21.5215 C.ar    1  UNL1       -0.0234
     17 C          -4.5479  -19.1386   20.0374 C.ar    1  UNL1       -0.0103
     18 C          -3.2954  -19.1031   19.2128 C.ar    1  UNL1       -0.0032
     19 C          -5.8850  -18.9738   19.3778 C.3     1  UNL1        0.0953
     20 N          -7.1375  -19.0093   20.2024 N.3     1  UNL1       -0.2934
     21 C          -7.0529  -19.2096   21.6866 C.3     1  UNL1        0.0748
     22 C          -5.7158  -19.3744   22.3461 C.3     1  UNL1        0.0432
     23 H          -7.7105  -19.7689   19.8349 H       1  UNL1        0.1236
     24 C          -8.2190  -17.1303   24.0180 C.3     1  UNL1        0.0725
     25 C          -9.0011  -16.4761   25.1181 C.3     1  UNL1        0.0188
     26 C          -8.5197  -16.5653   26.5360 C.3     1  UNL1        0.0185
     27 C          -7.9491  -15.3538   27.2119 C.3     1  UNL1        0.0686
     28 N          -6.4821  -15.0586   27.1088 N.3     1  UNL1       -0.2985
     29 H          -6.0356  -15.5006   27.9123 H       1  UNL1        0.1232
     30 C          -5.7137  -15.4899   25.8949 C.3     1  UNL1        0.0568
     31 C          -4.8050  -16.6811   25.9667 C.3     1  UNL1        0.0328
     32 C          -4.0365  -17.1125   24.7528 C.3     1  UNL1        0.0699
     33 N          -4.1770  -16.3526   23.4671 N.3     1  UNL1       -0.2974
     34 C          -5.0858  -15.1614   23.3954 C.3     1  UNL1        0.0699
     35 C          -5.8542  -14.7301   24.6093 C.3     1  UNL1        0.0328
     36 H          -4.5066  -17.0170   22.7669 H       1  UNL1        0.1232
@<TRIPOS>BOND
     1    13    14   ar
     2    14    15   ar
     3    15    16   ar
     4    16    17   ar
     5    17    18   ar
     6    17    19    1
     7    19    20    1
     8    20    21    1
     9    21    12    1
    10    12     1    1
    11     1    24    1
    12    24    25    1
    13    25    26    1
    14    26    27    1
    15    27    28    1
    16    28    30    1
    17    30    31    1
    18    31    32    1
    19    32    33    1
    20    33    34    1
    21    34    35    1
    22     2     1    1
    23     2     3    1
    24     3     4    1
    25     4     5    1
    26     5     6    1
    27     6     7   ar
    28     7     8   ar
    29     8     9   ar
    30     9    10   ar
    31    10    11   ar
    32    21    22    1
    33    18    13   ar
    34    35    30    1
    35    11     2    1
    36    22    16    1
    37    11     6   ar
    38    20    23    1
    39    28    29    1
    40    33    36    1
@<TRIPOS>MOLECULE
*****
 36 40 0 0 0
SMALL
GASTEIGER

@<TRIPOS>ATOM
      1 N           6.5761   -2.9359   24.0487 N.3     1  UNL1       -0.2679
      2 C           7.3532   -4.1412   23.6092 C.3     1  UNL1        0.0978
      3 C           8.0561   -4.1382   22.2841 C.3     1  UNL1        0.0224
      4 C           8.8332   -5.3436   21.8446 C.3     1  UNL1        0.0065
      5 C           8.9075   -6.5520   22.7302 C.3     1  UNL1        0.0277
      6 C           8.2046   -6.5550   24.0553 C.ar    1  UNL1       -0.0073
      7 C           8.2788   -7.7633   24.9409 C.ar    1  UNL1       -0.0015
      8 C           7.5759   -7.7664   26.2660 C.ar    1  UNL1        0.0203
      9 C           6.7988   -6.5610   26.7055 C.ar    1  UNL1        0.0985
     10 N           6.7246   -5.3527   25.8199 N.ar    1  UNL1       -0.2471
     11 C           7.4275   -5.3497   24.4948 C.ar    1  UNL1        0.0695
     12 C           5.1368   -2.7864   23.6536 C.3     1  UNL1        0.0886
     13 C           2.2538    0.5594   18.3863 C.ar    1  UNL1       -0.0003
     14 C           1.1791    0.1188   19.3354 C.ar    1  UNL1       -0.0003
     15 C           1.5408   -0.6385   20.5787 C.ar    1  UNL1       -0.0045
     16 C           2.9771   -0.9551   20.8729 C.ar    1  UNL1       -0.0234
     17 C           4.0518   -0.5145   19.9238 C.ar    1  UNL1       -0.0103
     18 C           3.6902    0.2428   18.6805 C.ar    1  UNL1       -0.0032
     19 C           5.4883   -0.8312   20.2179 C.3     1  UNL1        0.0953
     20 N           5.8499   -1.5885   21.4612 N.3     1  UNL1       -0.2934
     21 C           4.7751   -2.0291   22.4103 C.3     1  UNL1        0.0748
     22 C           3.3388   -1.7124   22.1161 C.3     1  UNL1        0.0432
     23 H           6.4869   -0.9950   21.9926 H       1  UNL1        0.1236
     24 C           7.2383   -1.8800   24.8834 C.3     1  UNL1        0.0725
     25 C           8.5977   -2.1282   25.4668 C.3     1  UNL1        0.0188
     26 C           8.7322   -2.5670   26.8948 C.3     1  UNL1        0.0185
     27 C           7.6659   -2.2180   27.8904 C.3     1  UNL1        0.0686
     28 N           6.6427   -3.2420   28.2835 N.3     1  UNL1       -0.2985
     29 H           6.7566   -4.0312   27.6475 H       1  UNL1        0.1232
     30 C           6.6396   -3.8035   29.6743 C.3     1  UNL1        0.0568
     31 C           7.0048   -5.2401   29.9039 C.3     1  UNL1        0.0328
     32 C           7.0017   -5.8018   31.2948 C.3     1  UNL1        0.0699
     33 N           6.6334   -4.9268   32.4561 N.3     1  UNL1       -0.2974
     34 C           6.2681   -3.4901   32.2265 C.3     1  UNL1        0.0699
     35 C           6.2712   -2.9285   30.8357 C.3     1  UNL1        0.0328
     36 H           7.4311   -4.9298   33.0918 H       1  UNL1        0.1232
@<TRIPOS>BOND
     1    13    14   ar
     2    14    15   ar
     3    15    16   ar
     4    16    17   ar
     5    17    18   ar
     6    17    19    1
     7    19    20    1
     8    20    21    1
     9    21    12    1
    10    12     1    1
    11     1    24    1
    12    24    25    1
    13    25    26    1
    14    26    27    1
    15    27    28    1
    16    28    30    1
    17    30    31    1
    18    31    32    1
    19    32    33    1
    20    33    34    1
    21    34    35    1
    22     2     1    1
    23     2     3    1
    24     3     4    1
    25     4     5    1
    26     5     6    1
    27     6     7   ar
    28     7     8   ar
    29     8     9   ar
    30     9    10   ar
    31    10    11   ar
    32    21    22    1
    33    18    13   ar
    34    35    30    1
    35    11     2    1
    36    22    16    1
    37    11     6   ar
    38    20    23    1
    39    28    29    1
    40    33    36    1
@<TRIPOS>MOLECULE
*****
 36 40 0 0 0
SMALL
GASTEIGER

@<TRIPOS>ATOM
      1 N           7.1697   -3.9147   23.1336 N.3     1  UNL1       -0.2679
      2 C           7.7554   -5.1760   23.6956 C.3     1  UNL1        0.0978
      3 C           8.5039   -6.1190   22.8009 C.3     1  UNL1        0.0224
      4 C           9.0896   -7.3804   23.3630 C.3     1  UNL1        0.0065
      5 C           8.9268   -7.6988   24.8197 C.3     1  UNL1        0.0277
      6 C           8.1783   -6.7558   25.7144 C.ar    1  UNL1       -0.0073
      7 C           8.0155   -7.0742   27.1712 C.ar    1  UNL1       -0.0015
      8 C           7.2671   -6.1312   28.0659 C.ar    1  UNL1        0.0203
      9 C           6.6814   -4.8698   27.5039 C.ar    1  UNL1        0.0985
     10 N           6.8442   -4.5514   26.0472 N.ar    1  UNL1       -0.2471
     11 C           7.5926   -5.4944   25.1524 C.ar    1  UNL1        0.0695
     12 C           5.7077   -3.8481   22.8049 C.3     1  UNL1        0.0886
     13 C           1.4397    1.3602   24.1860 C.ar    1  UNL1       -0.0003
     14 C           1.4111    1.0794   22.7128 C.ar    1  UNL1       -0.0003
     15 C           2.2589   -0.0184   22.1419 C.ar    1  UNL1       -0.0045
     16 C           3.1354   -0.8354   23.0443 C.ar    1  UNL1       -0.0234
     17 C           3.1640   -0.5546   24.5174 C.ar    1  UNL1       -0.0103
     18 C           2.3161    0.5432   25.0883 C.ar    1  UNL1       -0.0032
     19 C           4.0405   -1.3717   25.4198 C.3     1  UNL1        0.0953
     20 N           4.8884   -2.4695   24.8490 N.3     1  UNL1       -0.2934
     21 C           4.8598   -2.7503   23.3757 C.3     1  UNL1        0.0748
     22 C           3.9833   -1.9333   22.4734 C.3     1  UNL1        0.0432
     23 H           4.6098   -3.3311   25.3184 H       1  UNL1        0.1236
     24 C           8.0460   -2.7198   22.9004 C.3     1  UNL1        0.0725
     25 C           8.0130   -2.0121   21.5783 C.3     1  UNL1        0.0188
     26 C           8.3389   -2.7596   20.3192 C.3     1  UNL1        0.0185
     27 C           8.3421   -2.0432   19.0013 C.3     1  UNL1        0.0686
     28 N           7.2758   -2.3337   17.9871 N.3     1  UNL1       -0.2985
     29 H           7.4700   -3.2627   17.6135 H       1  UNL1        0.1232
     30 C           5.8319   -2.3234   18.3931 C.3     1  UNL1        0.0568
     31 C           5.0854   -1.0250   18.4759 C.3     1  UNL1        0.0328
     32 C           3.6414   -1.0146   18.8820 C.3     1  UNL1        0.0699
     33 N           2.9439   -2.3026   19.2051 N.3     1  UNL1       -0.2974
     34 C           3.6904   -3.6011   19.1223 C.3     1  UNL1        0.0699
     35 C           5.1344   -3.6114   18.7163 C.3     1  UNL1        0.0328
     36 H           2.1520   -2.3770   18.5665 H       1  UNL1        0.1232
@<TRIPOS>BOND
     1    13    14   ar
     2    14    15   ar
     3    15    16   ar
     4    16    17   ar
     5    17    18   ar
     6    17    19    1
     7    19    20    1
     8    20    21    1
     9    21    12    1
    10    12     1    1
    11     1    24    1
    12    24    25    1
    13    25    26    1
    14    26    27    1
    15    27    28    1
    16    28    30    1
    17    30    31    1
    18    31    32    1
    19    32    33    1
    20    33    34    1
    21    34    35    1
    22     2     1    1
    23     2     3    1
    24     3     4    1
    25     4     5    1
    26     5     6    1
    27     6     7   ar
    28     7     8   ar
    29     8     9   ar
    30     9    10   ar
    31    10    11   ar
    32    21    22    1
    33    18    13   ar
    34    35    30    1
    35    11     2    1
    36    22    16    1
    37    11     6   ar
    38    20    23    1
    39    28    29    1
    40    33    36    1
