@<TRIPOS>MOLECULE
*****
 41 44 0 0 0
SMALL
GASTEIGER

@<TRIPOS>ATOM
      1 C           2.7389    3.3242   34.1689 C.3     1  UNL1        0.1146
      2 F           6.6244   -0.0349   34.9555 F       1  UNL1       -0.2041
      3 C           5.3715    0.6372   35.4335 C.ar    1  UNL1        0.1429
      4 C           4.8084    0.3019   36.7827 C.ar    1  UNL1        0.0667
      5 C           3.5555    0.9740   37.2607 C.ar    1  UNL1        0.1461
      6 C           2.8656    1.9814   36.3895 C.ar    1  UNL1        0.0349
      7 C           3.4287    2.3167   35.0402 C.ar    1  UNL1        0.0045
      8 C           4.6816    1.6446   34.5623 C.ar    1  UNL1        0.0275
      9 O           2.9924    0.6386   38.6100 O.3     1  UNL1       -0.4263
     10 C           1.8435    1.4300   39.1611 C.3     1  UNL1        0.4723
     11 F           2.7588    2.5949   39.3962 F       1  UNL1       -0.1579
     12 F           0.9283    0.2651   38.9260 F       1  UNL1       -0.1579
     13 C           0.6947    2.2215   39.7121 C.3     1  UNL1        0.4202
     14 F          -0.1783    3.0186   38.7888 F       1  UNL1       -0.1876
     15 F           0.4188    2.2158   41.1866 F       1  UNL1       -0.1876
     16 C           3.8005    4.3326   34.4944 C.ar    1  UNL1        0.0792
     17 C           4.5829    4.9808   33.3909 C.ar    1  UNL1        0.0175
     18 C           5.6446    5.9892   33.7164 C.ar    1  UNL1        0.0142
     19 C           5.9239    6.3494   35.1455 C.ar    1  UNL1        0.0768
     20 CL          6.9856    7.3579   35.4711 Cl      1  UNL1       -0.0806
     21 C           5.1415    5.7013   36.2490 C.ar    1  UNL1        0.1098
     22 N           4.0799    4.6929   35.9235 N.ar    1  UNL1       -0.2454
     23 N           1.6772    2.3159   33.8434 N.pl3   1  UNL1       -0.3077
     24 H           1.0736    1.9910   34.5501 H       1  UNL1        0.1492
     25 C           1.5351    1.8024   32.4412 C.ar    1  UNL1        0.1607
     26 N           0.3525    2.0095   31.5420 N.ar    1  UNL1       -0.2198
     27 C           0.6371    1.3269   30.2372 C.ar    1  UNL1        0.1667
     28 C           1.9958    0.6979   30.3298 C.ar    1  UNL1        0.0880
     29 BR          2.6794   -0.0872   29.2497 Br      1  UNL1       -0.0403
     30 S           2.5508    0.9918   31.6919 S.2     1  UNL1       -0.0450
     31 C          -0.2763    1.2812   29.0482 C.3     1  UNL1        0.4359
     32 F          -1.1897    1.2356   27.8593 F       1  UNL1       -0.1644
     33 F          -0.7917   -0.0546   29.4955 F       1  UNL1       -0.1644
     34 F           0.2391    2.6170   28.6009 F       1  UNL1       -0.1644
     35 C           2.0491    4.3317   33.2976 C.3     1  UNL1        0.0543
     36 C           0.8695    5.0950   33.8229 C.ar    1  UNL1       -0.0199
     37 C           0.9195    5.7033   35.1931 C.ar    1  UNL1       -0.0042
     38 C          -0.2601    6.4665   35.7184 C.ar    1  UNL1       -0.0003
     39 C          -1.4898    6.6215   34.8735 C.ar    1  UNL1       -0.0000
     40 C          -1.5398    6.0132   33.5032 C.ar    1  UNL1       -0.0003
     41 C          -0.3602    5.2500   32.9779 C.ar    1  UNL1       -0.0042
@<TRIPOS>BOND
     1     2     3    1
     2     3     4   ar
     3     4     5   ar
     4     5     9    1
     5     9    10    1
     6    10    11    1
     7    10    12    1
     8    10    13    1
     9    13    14    1
    10    13    15    1
    11     5     6   ar
    12     6     7   ar
    13     7     1    1
    14     1    35    1
    15    35    36    1
    16    36    37   ar
    17    37    38   ar
    18    38    39   ar
    19    39    40   ar
    20    40    41   ar
    21     1    23    1
    22    23    25    1
    23    25    26   ar
    24    26    27   ar
    25    27    31    1
    26    31    32    1
    27    31    33    1
    28    31    34    1
    29    27    28   ar
    30    28    29    1
    31    28    30   ar
    32     1    16    1
    33    16    17   ar
    34    17    18   ar
    35    18    19   ar
    36    19    20    1
    37    19    21   ar
    38    21    22   ar
    39     7     8   ar
    40     8     3   ar
    41    41    36   ar
    42    30    25   ar
    43    22    16   ar
    44    23    24    1
@<TRIPOS>MOLECULE
*****
 41 44 0 0 0
SMALL
GASTEIGER

@<TRIPOS>ATOM
      1 C           0.3136    2.9086   20.3776 C.3     1  UNL1        0.1146
      2 F           2.2716    5.6429   24.3387 F       1  UNL1       -0.2041
      3 C           1.5962    4.4075   23.8212 C.ar    1  UNL1        0.1429
      4 C           1.2243    3.3041   24.7667 C.ar    1  UNL1        0.0667
      5 C           0.5489    2.0687   24.2492 C.ar    1  UNL1        0.1461
      6 C           0.2454    1.9369   22.7862 C.ar    1  UNL1        0.0349
      7 C           0.6172    3.0404   21.8407 C.ar    1  UNL1        0.0045
      8 C           1.2926    4.2757   22.3582 C.ar    1  UNL1        0.0275
      9 O           0.1771    0.9652   25.1948 O.3     1  UNL1       -0.4263
     10 C          -0.2501    1.2900   26.5955 C.3     1  UNL1        0.4723
     11 F           0.9759    0.6086   27.1273 F       1  UNL1       -0.1579
     12 F          -1.4760    1.9713   26.0637 F       1  UNL1       -0.1579
     13 C          -0.6772    1.6147   27.9963 C.3     1  UNL1        0.4202
     14 F          -1.7664    0.8186   28.6519 F       1  UNL1       -0.1876
     15 F          -0.0151    2.7357   28.7414 F       1  UNL1       -0.1876
     16 C           1.1632    1.6741   20.3126 C.ar    1  UNL1        0.0792
     17 C           0.5208    0.3299   20.1386 C.ar    1  UNL1        0.0175
     18 C           1.3704   -0.9047   20.0736 C.ar    1  UNL1        0.0142
     19 C           2.8624   -0.7949   20.1826 C.ar    1  UNL1        0.0768
     20 CL          3.7120   -2.0294   20.1176 Cl      1  UNL1       -0.0806
     21 C           3.5048    0.5493   20.3566 C.ar    1  UNL1        0.1098
     22 N           2.6553    1.7838   20.4216 N.ar    1  UNL1       -0.2454
     23 N          -0.5359    4.1431   20.4426 N.pl3   1  UNL1       -0.3077
     24 H          -0.1307    5.0279   20.2937 H       1  UNL1        0.1492
     25 C          -2.0028    4.0295   20.7345 C.ar    1  UNL1        0.1607
     26 N          -2.6395    4.0936   22.0911 N.ar    1  UNL1       -0.2198
     27 C          -4.1207    3.9356   21.9160 C.ar    1  UNL1        0.1667
     28 C          -4.3996    3.7738   20.4511 C.ar    1  UNL1        0.0880
     29 BR         -5.7504    3.5868   19.8261 Br      1  UNL1       -0.0403
     30 S          -3.0908    3.8318   19.7208 S.2     1  UNL1       -0.0450
     31 C          -5.1436    3.9388   23.0131 C.3     1  UNL1        0.4359
     32 F          -6.1666    3.9422   24.1102 F       1  UNL1       -0.1644
     33 F          -5.0031    2.4516   23.1486 F       1  UNL1       -0.1644
     34 F          -5.2842    5.4261   22.8777 F       1  UNL1       -0.1644
     35 C           0.0101    2.7768   18.9146 C.3     1  UNL1        0.0543
     36 C           0.4618    3.8386   17.9563 C.ar    1  UNL1       -0.0199
     37 C          -0.4957    4.3895   16.9415 C.ar    1  UNL1       -0.0042
     38 C          -0.0440    5.4514   15.9832 C.ar    1  UNL1       -0.0003
     39 C           1.3651    5.9624   16.0396 C.ar    1  UNL1       -0.0000
     40 C           2.3226    5.4115   17.0543 C.ar    1  UNL1       -0.0003
     41 C           1.8710    4.3496   18.0127 C.ar    1  UNL1       -0.0042
@<TRIPOS>BOND
     1     2     3    1
     2     3     4   ar
     3     4     5   ar
     4     5     9    1
     5     9    10    1
     6    10    11    1
     7    10    12    1
     8    10    13    1
     9    13    14    1
    10    13    15    1
    11     5     6   ar
    12     6     7   ar
    13     7     1    1
    14     1    35    1
    15    35    36    1
    16    36    37   ar
    17    37    38   ar
    18    38    39   ar
    19    39    40   ar
    20    40    41   ar
    21     1    23    1
    22    23    25    1
    23    25    26   ar
    24    26    27   ar
    25    27    31    1
    26    31    32    1
    27    31    33    1
    28    31    34    1
    29    27    28   ar
    30    28    29    1
    31    28    30   ar
    32     1    16    1
    33    16    17   ar
    34    17    18   ar
    35    18    19   ar
    36    19    20    1
    37    19    21   ar
    38    21    22   ar
    39     7     8   ar
    40     8     3   ar
    41    41    36   ar
    42    30    25   ar
    43    22    16   ar
    44    23    24    1
@<TRIPOS>MOLECULE
*****
 41 44 0 0 0
SMALL
GASTEIGER

@<TRIPOS>ATOM
      1 C           3.7438   -0.1071   20.6130 C.3     1  UNL1        0.1146
      2 F           2.4161   -4.7113   18.6034 F       1  UNL1       -0.2041
      3 C           3.3810   -3.8600   19.3742 C.ar    1  UNL1        0.1429
      4 C           4.6470   -4.4593   19.9109 C.ar    1  UNL1        0.0667
      5 C           5.6119   -3.6079   20.6817 C.ar    1  UNL1        0.1461
      6 C           5.3108   -2.1572   20.9157 C.ar    1  UNL1        0.0349
      7 C           4.0449   -1.5579   20.3790 C.ar    1  UNL1        0.0045
      8 C           3.0800   -2.4093   19.6082 C.ar    1  UNL1        0.0275
      9 O           6.8779   -4.2072   21.2184 O.3     1  UNL1       -0.4263
     10 C           7.2473   -4.0136   22.6593 C.3     1  UNL1        0.4723
     11 F           5.8507   -4.3795   23.0665 F       1  UNL1       -0.1579
     12 F           8.6438   -3.6478   22.2521 F       1  UNL1       -0.1579
     13 C           7.6167   -3.8200   24.1001 C.3     1  UNL1        0.4202
     14 F           6.5433   -3.7307   25.1441 F       1  UNL1       -0.1876
     15 F           9.0595   -3.7157   24.4970 F       1  UNL1       -0.1876
     16 C           4.8174    0.2731   19.6369 C.ar    1  UNL1        0.0792
     17 C           4.6771   -0.0903   18.1884 C.ar    1  UNL1        0.0175
     18 C           5.7508    0.2900   17.2123 C.ar    1  UNL1        0.0142
     19 C           6.9648    1.0336   17.6848 C.ar    1  UNL1        0.0768
     20 CL          8.0385    1.4138   16.7088 Cl      1  UNL1       -0.0806
     21 C           7.1051    1.3969   19.1334 C.ar    1  UNL1        0.1098
     22 N           6.0315    1.0167   20.1094 N.ar    1  UNL1       -0.2454
     23 N           2.6701   -0.4873   21.5890 N.pl3   1  UNL1       -0.3077
     24 H           1.8023   -0.8178   21.2621 H       1  UNL1        0.1492
     25 C           2.9187   -0.3640   23.0631 C.ar    1  UNL1        0.1607
     26 N           3.8998   -1.1695   23.8622 N.ar    1  UNL1       -0.2198
     27 C           3.8173   -0.7168   25.2898 C.ar    1  UNL1        0.1667
     28 C           2.7852    0.3684   25.3731 C.ar    1  UNL1        0.0880
     29 BR          2.3797    1.1062   26.6147 Br      1  UNL1       -0.0403
     30 S           2.2298    0.5866   23.9969 S.2     1  UNL1       -0.0450
     31 C           4.6250   -1.2549   26.4336 C.3     1  UNL1        0.4359
     32 F           5.4326   -1.7931   27.5773 F       1  UNL1       -0.1644
     33 F           5.8549   -0.6073   25.8698 F       1  UNL1       -0.1644
     34 F           3.3950   -1.9026   26.9974 F       1  UNL1       -0.1644
     35 C           3.4427    1.3436   20.8469 C.3     1  UNL1        0.0543
     36 C           2.1878    1.9484   20.2907 C.ar    1  UNL1       -0.0199
     37 C           1.3680    2.8812   21.1320 C.ar    1  UNL1       -0.0042
     38 C           0.1131    3.4859   20.5758 C.ar    1  UNL1       -0.0003
     39 C          -0.3222    3.1579   19.1784 C.ar    1  UNL1       -0.0000
     40 C           0.4976    2.2250   18.3370 C.ar    1  UNL1       -0.0003
     41 C           1.7526    1.6202   18.8932 C.ar    1  UNL1       -0.0042
@<TRIPOS>BOND
     1     2     3    1
     2     3     4   ar
     3     4     5   ar
     4     5     9    1
     5     9    10    1
     6    10    11    1
     7    10    12    1
     8    10    13    1
     9    13    14    1
    10    13    15    1
    11     5     6   ar
    12     6     7   ar
    13     7     1    1
    14     1    35    1
    15    35    36    1
    16    36    37   ar
    17    37    38   ar
    18    38    39   ar
    19    39    40   ar
    20    40    41   ar
    21     1    23    1
    22    23    25    1
    23    25    26   ar
    24    26    27   ar
    25    27    31    1
    26    31    32    1
    27    31    33    1
    28    31    34    1
    29    27    28   ar
    30    28    29    1
    31    28    30   ar
    32     1    16    1
    33    16    17   ar
    34    17    18   ar
    35    18    19   ar
    36    19    20    1
    37    19    21   ar
    38    21    22   ar
    39     7     8   ar
    40     8     3   ar
    41    41    36   ar
    42    30    25   ar
    43    22    16   ar
    44    23    24    1
@<TRIPOS>MOLECULE
*****
 41 44 0 0 0
SMALL
GASTEIGER

@<TRIPOS>ATOM
      1 C           4.3296   -0.2534   29.9226 C.3     1  UNL1        0.1146
      2 F           7.7437    3.1214   27.9337 F       1  UNL1       -0.2041
      3 C           6.7031    2.0588   27.7384 C.ar    1  UNL1        0.1429
      4 C           6.3289    1.6211   26.3533 C.ar    1  UNL1        0.0667
      5 C           5.2883    0.5585   26.1580 C.ar    1  UNL1        0.1461
      6 C           4.6219   -0.0663   27.3477 C.ar    1  UNL1        0.0349
      7 C           4.9961    0.3715   28.7328 C.ar    1  UNL1        0.0045
      8 C           6.0367    1.4340   28.9281 C.ar    1  UNL1        0.0275
      9 O           4.9141    0.1208   24.7729 O.3     1  UNL1       -0.4263
     10 C           4.9954   -1.3290   24.3970 C.3     1  UNL1        0.4723
     11 F           6.4745   -1.3106   24.6456 F       1  UNL1       -0.1579
     12 F           3.5163   -1.3474   24.1483 F       1  UNL1       -0.1579
     13 C           5.0766   -2.7789   24.0210 C.3     1  UNL1        0.4202
     14 F           6.0045   -3.6951   24.7623 F       1  UNL1       -0.1876
     15 F           4.2299   -3.3125   22.9036 F       1  UNL1       -0.1876
     16 C           2.9989    0.2378   29.4350 C.ar    1  UNL1        0.0792
     17 C           2.7375    1.7107   29.3246 C.ar    1  UNL1        0.0175
     18 C           1.4067    2.2019   28.8371 C.ar    1  UNL1        0.0142
     19 C           0.3372    1.2201   28.4599 C.ar    1  UNL1        0.0768
     20 CL         -0.9937    1.7112   27.9724 Cl      1  UNL1       -0.0806
     21 C           0.5985   -0.2529   28.5703 C.ar    1  UNL1        0.1098
     22 N           1.9293   -0.7440   29.0579 N.ar    1  UNL1       -0.2454
     23 N           5.6604   -0.7445   30.4101 N.pl3   1  UNL1       -0.3077
     24 H           6.2527   -0.1417   30.9152 H       1  UNL1        0.1492
     25 C           6.0889   -2.1540   30.1280 C.ar    1  UNL1        0.1607
     26 N           6.1875   -2.7913   28.7737 N.ar    1  UNL1       -0.2198
     27 C           6.6536   -4.2048   28.9593 C.ar    1  UNL1        0.1667
     28 C           6.8431   -4.4412   30.4284 C.ar    1  UNL1        0.0880
     29 BR          7.3011   -5.7206   31.0637 Br      1  UNL1       -0.0403
     30 S           6.4941   -3.1738   31.1507 S.2     1  UNL1       -0.0450
     31 C           6.8889   -5.2063   27.8676 C.3     1  UNL1        0.4359
     32 F           7.1243   -6.2077   26.7760 F       1  UNL1       -0.1644
     33 F           5.4750   -5.6880   28.0047 F       1  UNL1       -0.1644
     34 F           8.3028   -4.7245   27.7306 F       1  UNL1       -0.1644
     35 C           3.6632   -0.8781   31.1123 C.3     1  UNL1        0.0543
     36 C           3.9340   -0.3467   32.4886 C.ar    1  UNL1       -0.0199
     37 C           4.3403   -1.2831   33.5876 C.ar    1  UNL1       -0.0042
     38 C           4.6111   -0.7517   34.9640 C.ar    1  UNL1       -0.0003
     39 C           4.4754    0.7162   35.2413 C.ar    1  UNL1       -0.0000
     40 C           4.0690    1.6527   34.1422 C.ar    1  UNL1       -0.0003
     41 C           3.7983    1.1213   32.7659 C.ar    1  UNL1       -0.0042
@<TRIPOS>BOND
     1     2     3    1
     2     3     4   ar
     3     4     5   ar
     4     5     9    1
     5     9    10    1
     6    10    11    1
     7    10    12    1
     8    10    13    1
     9    13    14    1
    10    13    15    1
    11     5     6   ar
    12     6     7   ar
    13     7     1    1
    14     1    35    1
    15    35    36    1
    16    36    37   ar
    17    37    38   ar
    18    38    39   ar
    19    39    40   ar
    20    40    41   ar
    21     1    23    1
    22    23    25    1
    23    25    26   ar
    24    26    27   ar
    25    27    31    1
    26    31    32    1
    27    31    33    1
    28    31    34    1
    29    27    28   ar
    30    28    29    1
    31    28    30   ar
    32     1    16    1
    33    16    17   ar
    34    17    18   ar
    35    18    19   ar
    36    19    20    1
    37    19    21   ar
    38    21    22   ar
    39     7     8   ar
    40     8     3   ar
    41    41    36   ar
    42    30    25   ar
    43    22    16   ar
    44    23    24    1
@<TRIPOS>MOLECULE
*****
 41 44 0 0 0
SMALL
GASTEIGER

@<TRIPOS>ATOM
      1 C           0.6785    2.4148   22.6169 C.3     1  UNL1        0.1146
      2 F           3.7021    6.5289   21.6518 F       1  UNL1       -0.2041
      3 C           2.6485    5.5582   21.2071 C.ar    1  UNL1        0.1429
      4 C           2.0532    5.6739   19.8352 C.ar    1  UNL1        0.0667
      5 C           0.9997    4.7032   19.3905 C.ar    1  UNL1        0.1461
      6 C           0.5414    3.6168   20.3177 C.ar    1  UNL1        0.0349
      7 C           1.1367    3.5012   21.6896 C.ar    1  UNL1        0.0045
      8 C           2.1903    4.4719   22.1343 C.ar    1  UNL1        0.0275
      9 O           0.4044    4.8189   18.0185 O.3     1  UNL1       -0.4263
     10 C          -1.0168    4.4023   17.7800 C.3     1  UNL1        0.4723
     11 F          -1.4951    5.6932   18.3757 F       1  UNL1       -0.1579
     12 F          -0.5384    3.1115   17.1843 F       1  UNL1       -0.1579
     13 C          -2.4379    3.9858   17.5415 C.3     1  UNL1        0.4202
     14 F          -2.9069    3.6820   16.1495 F       1  UNL1       -0.1876
     15 F          -3.3900    3.8730   18.6952 F       1  UNL1       -0.1876
     16 C           1.3619    1.3929   21.7574 C.ar    1  UNL1        0.0792
     17 C           0.5507    0.3663   21.0240 C.ar    1  UNL1        0.0175
     18 C           1.2342   -0.6555   20.1644 C.ar    1  UNL1        0.0142
     19 C           2.7288   -0.6507   20.0384 C.ar    1  UNL1        0.0768
     20 CL          3.4123   -1.6726   19.1788 Cl      1  UNL1       -0.0806
     21 C           3.5401    0.3759   20.7718 C.ar    1  UNL1        0.1098
     22 N           2.8567    1.3977   21.6313 N.ar    1  UNL1       -0.2454
     23 N          -0.0049    3.4366   23.4764 N.pl3   1  UNL1       -0.3077
     24 H           0.5269    4.0205   24.0642 H       1  UNL1        0.1492
     25 C          -1.4986    3.5688   23.4404 C.ar    1  UNL1        0.1607
     26 N          -2.3479    3.6404   22.2061 N.ar    1  UNL1       -0.2198
     27 C          -3.7794    3.7685   22.6352 C.ar    1  UNL1        0.1667
     28 C          -3.8149    3.7761   24.1348 C.ar    1  UNL1        0.0880
     29 BR         -5.0443    3.8875   24.9871 Br      1  UNL1       -0.0403
     30 S          -2.4054    3.6526   24.6325 S.2     1  UNL1       -0.0450
     31 C          -4.9671    3.8711   21.7247 C.3     1  UNL1        0.4359
     32 F          -6.1548    3.9735   20.8142 F       1  UNL1       -0.1644
     33 F          -5.0195    5.3515   21.9598 F       1  UNL1       -0.1644
     34 F          -4.9147    2.3905   21.4897 F       1  UNL1       -0.1644
     35 C           0.2203    1.3284   23.5441 C.3     1  UNL1        0.0543
     36 C           0.7886    1.2353   24.9292 C.ar    1  UNL1       -0.0199
     37 C          -0.1292    1.1755   26.1140 C.ar    1  UNL1       -0.0042
     38 C           0.4391    1.0824   27.4991 C.ar    1  UNL1       -0.0003
     39 C           1.9252    1.0490   27.6993 C.ar    1  UNL1       -0.0000
     40 C           2.8432    1.1088   26.5144 C.ar    1  UNL1       -0.0003
     41 C           2.2749    1.2019   25.1293 C.ar    1  UNL1       -0.0042
@<TRIPOS>BOND
     1     2     3    1
     2     3     4   ar
     3     4     5   ar
     4     5     9    1
     5     9    10    1
     6    10    11    1
     7    10    12    1
     8    10    13    1
     9    13    14    1
    10    13    15    1
    11     5     6   ar
    12     6     7   ar
    13     7     1    1
    14     1    35    1
    15    35    36    1
    16    36    37   ar
    17    37    38   ar
    18    38    39   ar
    19    39    40   ar
    20    40    41   ar
    21     1    23    1
    22    23    25    1
    23    25    26   ar
    24    26    27   ar
    25    27    31    1
    26    31    32    1
    27    31    33    1
    28    31    34    1
    29    27    28   ar
    30    28    29    1
    31    28    30   ar
    32     1    16    1
    33    16    17   ar
    34    17    18   ar
    35    18    19   ar
    36    19    20    1
    37    19    21   ar
    38    21    22   ar
    39     7     8   ar
    40     8     3   ar
    41    41    36   ar
    42    30    25   ar
    43    22    16   ar
    44    23    24    1
@<TRIPOS>MOLECULE
*****
 41 44 0 0 0
SMALL
GASTEIGER

@<TRIPOS>ATOM
      1 C          -1.4478    3.8729   20.5647 C.3     1  UNL1        0.1146
      2 F           1.0184   -0.6878   20.2201 F       1  UNL1       -0.2041
      3 C           0.6268    0.5203   21.0185 C.ar    1  UNL1        0.1429
      4 C           1.0768    0.6560   22.4429 C.ar    1  UNL1        0.0667
      5 C           0.6853    1.8640   23.2413 C.ar    1  UNL1        0.1461
      6 C          -0.1562    2.9363   22.6152 C.ar    1  UNL1        0.0349
      7 C          -0.6062    2.8006   21.1908 C.ar    1  UNL1        0.0045
      8 C          -0.2147    1.5926   20.3924 C.ar    1  UNL1        0.0275
      9 O           1.1353    1.9997   24.6658 O.3     1  UNL1       -0.4263
     10 C           0.1212    2.0929   25.7671 C.3     1  UNL1        0.4723
     11 F           0.5548    3.5012   26.0473 F       1  UNL1       -0.1579
     12 F          -0.3125    0.6846   25.4868 F       1  UNL1       -0.1579
     13 C          -0.8930    2.1861   26.8683 C.3     1  UNL1        0.4202
     14 F          -1.5905    3.4864   27.1376 F       1  UNL1       -0.1876
     15 F          -1.2097    0.9788   27.7004 F       1  UNL1       -0.1876
     16 C          -0.2177    4.6962   20.3216 C.ar    1  UNL1        0.0792
     17 C           0.8109    4.2339   19.3326 C.ar    1  UNL1        0.0175
     18 C           2.0410    5.0573   19.0896 C.ar    1  UNL1        0.0142
     19 C           2.2424    6.3430   19.8355 C.ar    1  UNL1        0.0768
     20 CL          3.4724    7.1664   19.5925 Cl      1  UNL1       -0.0806
     21 C           1.2137    6.8053   20.8245 C.ar    1  UNL1        0.1098
     22 N          -0.0164    5.9820   21.0675 N.ar    1  UNL1       -0.2454
     23 N          -2.6778    3.0496   20.8077 N.pl3   1  UNL1       -0.3077
     24 H          -2.8150    2.2110   20.3105 H       1  UNL1        0.1492
     25 C          -3.6987    3.5038   21.8084 C.ar    1  UNL1        0.1607
     26 N          -3.4179    3.9610   23.2091 N.ar    1  UNL1       -0.2198
     27 C          -4.7253    4.3204   23.8504 C.ar    1  UNL1        0.1667
     28 C          -5.8143    4.0854   22.8460 C.ar    1  UNL1        0.0880
     29 BR         -7.2804    4.3148   23.0652 Br      1  UNL1       -0.0403
     30 S          -5.1799    3.5807   21.5839 S.2     1  UNL1       -0.0450
     31 C          -4.9113    4.8260   25.2503 C.3     1  UNL1        0.4359
     32 F          -5.0972    5.3318   26.6501 F       1  UNL1       -0.1644
     33 F          -4.8569    3.4186   25.7659 F       1  UNL1       -0.1644
     34 F          -4.9656    6.2336   24.7346 F       1  UNL1       -0.1644
     35 C          -2.2892    4.9452   19.9385 C.3     1  UNL1        0.0543
     36 C          -2.9645    4.6960   18.6225 C.ar    1  UNL1       -0.0199
     37 C          -2.2350    3.9711   17.5306 C.ar    1  UNL1       -0.0042
     38 C          -2.9102    3.7219   16.2146 C.ar    1  UNL1       -0.0003
     39 C          -4.3150    4.1977   15.9904 C.ar    1  UNL1       -0.0000
     40 C          -5.0445    4.9226   17.0823 C.ar    1  UNL1       -0.0003
     41 C          -4.3693    5.1718   18.3984 C.ar    1  UNL1       -0.0042
@<TRIPOS>BOND
     1     2     3    1
     2     3     4   ar
     3     4     5   ar
     4     5     9    1
     5     9    10    1
     6    10    11    1
     7    10    12    1
     8    10    13    1
     9    13    14    1
    10    13    15    1
    11     5     6   ar
    12     6     7   ar
    13     7     1    1
    14     1    35    1
    15    35    36    1
    16    36    37   ar
    17    37    38   ar
    18    38    39   ar
    19    39    40   ar
    20    40    41   ar
    21     1    23    1
    22    23    25    1
    23    25    26   ar
    24    26    27   ar
    25    27    31    1
    26    31    32    1
    27    31    33    1
    28    31    34    1
    29    27    28   ar
    30    28    29    1
    31    28    30   ar
    32     1    16    1
    33    16    17   ar
    34    17    18   ar
    35    18    19   ar
    36    19    20    1
    37    19    21   ar
    38    21    22   ar
    39     7     8   ar
    40     8     3   ar
    41    41    36   ar
    42    30    25   ar
    43    22    16   ar
    44    23    24    1
@<TRIPOS>MOLECULE
*****
 41 44 0 0 0
SMALL
GASTEIGER

@<TRIPOS>ATOM
      1 C           2.7433    1.0499   30.0898 C.3     1  UNL1        0.1146
      2 F          -1.6593   -1.2715   28.5969 F       1  UNL1       -0.2041
      3 C          -0.7192   -0.1045   28.5313 C.ar    1  UNL1        0.1429
      4 C          -1.0403    1.0688   27.6537 C.ar    1  UNL1        0.0667
      5 C          -0.1002    2.2358   27.5881 C.ar    1  UNL1        0.1461
      6 C           1.1610    2.2295   28.4001 C.ar    1  UNL1        0.0349
      7 C           1.4821    1.0562   29.2777 C.ar    1  UNL1        0.0045
      8 C           0.5420   -0.1108   29.3433 C.ar    1  UNL1        0.0275
      9 O          -0.4213    3.4092   26.7104 O.3     1  UNL1       -0.4263
     10 C          -1.7799    3.5291   26.0861 C.3     1  UNL1        0.4723
     11 F          -1.3426    2.6361   24.9630 F       1  UNL1       -0.1579
     12 F          -2.2172    4.4221   27.2092 F       1  UNL1       -0.1579
     13 C          -3.1385    3.6490   25.4617 C.3     1  UNL1        0.4202
     14 F          -4.3536    3.7869   26.3303 F       1  UNL1       -0.1876
     15 F          -3.2820    3.6311   23.9687 F       1  UNL1       -0.1876
     16 C           3.5534    1.1608   28.8323 C.ar    1  UNL1        0.0792
     17 C           3.5554    0.0362   27.8397 C.ar    1  UNL1        0.0175
     18 C           4.3656    0.1472   26.5822 C.ar    1  UNL1        0.0142
     19 C           5.1738    1.3827   26.3173 C.ar    1  UNL1        0.0768
     20 CL          5.9840    1.4937   25.0598 Cl      1  UNL1       -0.0806
     21 C           5.1718    2.5074   27.3099 C.ar    1  UNL1        0.1098
     22 N           4.3616    2.3964   28.5673 N.ar    1  UNL1       -0.2454
     23 N           1.9331    0.9390   31.3473 N.pl3   1  UNL1       -0.3077
     24 H           1.6335    0.0561   31.6635 H       1  UNL1        0.1492
     25 C           1.5794    2.1732   32.1229 C.ar    1  UNL1        0.1607
     26 N           0.7091    3.2968   31.6433 N.ar    1  UNL1       -0.2198
     27 C           0.6257    4.3185   32.7382 C.ar    1  UNL1        0.1667
     28 C           1.4446    3.8264   33.8947 C.ar    1  UNL1        0.0880
     29 BR          1.6397    4.5357   35.2020 Br      1  UNL1       -0.0403
     30 S           2.0340    2.5005   33.5145 S.2     1  UNL1       -0.0450
     31 C          -0.1417    5.6063   32.6861 C.3     1  UNL1        0.4359
     32 F          -0.9090    6.8941   32.6339 F       1  UNL1       -0.1644
     33 F          -1.3634    4.8988   33.1928 F       1  UNL1       -0.1644
     34 F           1.0802    6.3138   32.1794 F       1  UNL1       -0.1644
     35 C           4.0044    1.0436   30.9018 C.3     1  UNL1        0.0543
     36 C           4.5913   -0.2566   31.3657 C.ar    1  UNL1       -0.0199
     37 C           3.9672   -0.9942   32.5130 C.ar    1  UNL1       -0.0042
     38 C           4.5540   -2.2943   32.9769 C.ar    1  UNL1       -0.0003
     39 C           5.7650   -2.8569   32.2935 C.ar    1  UNL1       -0.0000
     40 C           6.3891   -2.1193   31.1461 C.ar    1  UNL1       -0.0003
     41 C           5.8023   -0.8191   30.6822 C.ar    1  UNL1       -0.0042
@<TRIPOS>BOND
     1     2     3    1
     2     3     4   ar
     3     4     5   ar
     4     5     9    1
     5     9    10    1
     6    10    11    1
     7    10    12    1
     8    10    13    1
     9    13    14    1
    10    13    15    1
    11     5     6   ar
    12     6     7   ar
    13     7     1    1
    14     1    35    1
    15    35    36    1
    16    36    37   ar
    17    37    38   ar
    18    38    39   ar
    19    39    40   ar
    20    40    41   ar
    21     1    23    1
    22    23    25    1
    23    25    26   ar
    24    26    27   ar
    25    27    31    1
    26    31    32    1
    27    31    33    1
    28    31    34    1
    29    27    28   ar
    30    28    29    1
    31    28    30   ar
    32     1    16    1
    33    16    17   ar
    34    17    18   ar
    35    18    19   ar
    36    19    20    1
    37    19    21   ar
    38    21    22   ar
    39     7     8   ar
    40     8     3   ar
    41    41    36   ar
    42    30    25   ar
    43    22    16   ar
    44    23    24    1
@<TRIPOS>MOLECULE
*****
 41 44 0 0 0
SMALL
GASTEIGER

@<TRIPOS>ATOM
      1 C           3.0539    0.5470   29.1361 C.3     1  UNL1        0.1146
      2 F          -1.9032   -1.0023   28.9724 F       1  UNL1       -0.2041
      3 C          -0.8413   -0.0053   28.6142 C.ar    1  UNL1        0.1429
      4 C          -1.1960    1.2141   27.8160 C.ar    1  UNL1        0.0667
      5 C          -0.1341    2.2112   27.4579 C.ar    1  UNL1        0.1461
      6 C           1.2825    1.9888   27.8979 C.ar    1  UNL1        0.0349
      7 C           1.6372    0.7694   28.6960 C.ar    1  UNL1        0.0045
      8 C           0.5754   -0.2276   29.0542 C.ar    1  UNL1        0.0275
      9 O          -0.4890    3.4307   26.6597 O.3     1  UNL1       -0.4263
     10 C          -1.7905    3.4879   25.9162 C.3     1  UNL1        0.4723
     11 F          -2.3731    4.3434   27.0019 F       1  UNL1       -0.1579
     12 F          -1.2079    2.6324   24.8305 F       1  UNL1       -0.1579
     13 C          -3.0920    3.5451   25.1727 C.3     1  UNL1        0.4202
     14 F          -4.3873    3.5672   25.9288 F       1  UNL1       -0.1876
     15 F          -3.0982    3.5801   23.6731 F       1  UNL1       -0.1876
     16 C           3.0549    1.8869   29.8102 C.ar    1  UNL1        0.0792
     17 C           4.0253    2.9447   29.3752 C.ar    1  UNL1        0.0175
     18 C           4.0262    4.2847   30.0494 C.ar    1  UNL1        0.0142
     19 C           3.0567    4.5668   31.1586 C.ar    1  UNL1        0.0768
     20 CL          3.0575    5.9068   31.8328 Cl      1  UNL1       -0.0806
     21 C           2.0862    3.5090   31.5937 C.ar    1  UNL1        0.1098
     22 N           2.0853    2.1691   30.9195 N.ar    1  UNL1       -0.2454
     23 N           3.0530   -0.7929   28.4619 N.pl3   1  UNL1       -0.3077
     24 H           2.6679   -1.5744   28.9204 H       1  UNL1        0.1492
     25 C           3.6390   -0.9423   27.0892 C.ar    1  UNL1        0.1607
     26 N           3.1711   -0.2391   25.8496 N.ar    1  UNL1       -0.2198
     27 C           4.0386   -0.6832   24.7094 C.ar    1  UNL1        0.1667
     28 C           5.0426   -1.6609   25.2442 C.ar    1  UNL1        0.0880
     29 BR          6.1067   -2.3564   24.4480 Br      1  UNL1       -0.0403
     30 S           4.7956   -1.8211   26.7150 S.2     1  UNL1       -0.0450
     31 C           3.9226   -0.2294   23.2844 C.3     1  UNL1        0.4359
     32 F           3.8066    0.2245   21.8594 F       1  UNL1       -0.1644
     33 F           3.0520   -1.4119   22.9786 F       1  UNL1       -0.1644
     34 F           4.7932    0.9533   23.5902 F       1  UNL1       -0.1644
     35 C           4.4706    0.3246   29.5761 C.3     1  UNL1        0.0543
     36 C           4.7789   -0.7103   30.6171 C.ar    1  UNL1       -0.0199
     37 C           5.8947   -1.6880   30.3954 C.ar    1  UNL1       -0.0042
     38 C           6.2030   -2.7229   31.4365 C.ar    1  UNL1       -0.0003
     39 C           5.3955   -2.7803   32.6992 C.ar    1  UNL1       -0.0000
     40 C           4.2796   -1.8027   32.9210 C.ar    1  UNL1       -0.0003
     41 C           3.9713   -0.7677   31.8800 C.ar    1  UNL1       -0.0042
@<TRIPOS>BOND
     1     2     3    1
     2     3     4   ar
     3     4     5   ar
     4     5     9    1
     5     9    10    1
     6    10    11    1
     7    10    12    1
     8    10    13    1
     9    13    14    1
    10    13    15    1
    11     5     6   ar
    12     6     7   ar
    13     7     1    1
    14     1    35    1
    15    35    36    1
    16    36    37   ar
    17    37    38   ar
    18    38    39   ar
    19    39    40   ar
    20    40    41   ar
    21     1    23    1
    22    23    25    1
    23    25    26   ar
    24    26    27   ar
    25    27    31    1
    26    31    32    1
    27    31    33    1
    28    31    34    1
    29    27    28   ar
    30    28    29    1
    31    28    30   ar
    32     1    16    1
    33    16    17   ar
    34    17    18   ar
    35    18    19   ar
    36    19    20    1
    37    19    21   ar
    38    21    22   ar
    39     7     8   ar
    40     8     3   ar
    41    41    36   ar
    42    30    25   ar
    43    22    16   ar
    44    23    24    1
@<TRIPOS>MOLECULE
*****
 41 44 0 0 0
SMALL
GASTEIGER

@<TRIPOS>ATOM
      1 C         -14.8276   -3.8622   19.5031 C.3     1  UNL1        0.1146
      2 F         -19.9612   -3.6225   20.2706 F       1  UNL1       -0.2041
      3 C         -18.7664   -4.3132   19.6827 C.ar    1  UNL1        0.1429
      4 C         -18.9437   -5.5746   18.8908 C.ar    1  UNL1        0.0667
      5 C         -17.7490   -6.2653   18.3029 C.ar    1  UNL1        0.1461
      6 C         -16.3770   -5.6945   18.5070 C.ar    1  UNL1        0.0349
      7 C         -16.1997   -4.4331   19.2989 C.ar    1  UNL1        0.0045
      8 C         -17.3944   -3.7424   19.8868 C.ar    1  UNL1        0.0275
      9 O         -17.9264   -7.5268   17.5109 O.3     1  UNL1       -0.4263
     10 C         -17.1005   -8.7369   17.8329 C.3     1  UNL1        0.4723
     11 F         -17.9933   -9.0355   19.0007 F       1  UNL1       -0.1579
     12 F         -16.2077   -8.4383   16.6651 F       1  UNL1       -0.1579
     13 C         -16.2747   -9.9469   18.1549 C.3     1  UNL1        0.4202
     14 F         -16.9457  -11.2340   18.5331 F       1  UNL1       -0.1876
     15 F         -14.7776   -9.8699   18.0986 F       1  UNL1       -0.1876
     16 C         -15.3246   -2.5140   19.0728 C.ar    1  UNL1        0.0792
     17 C         -15.3257   -1.3703   20.0434 C.ar    1  UNL1        0.0175
     18 C         -15.8227   -0.0219   19.6131 C.ar    1  UNL1        0.0142
     19 C         -16.3186    0.1826   18.2123 C.ar    1  UNL1        0.0768
     20 CL        -16.8156    1.5309   17.7820 Cl      1  UNL1       -0.0806
     21 C         -16.3175   -0.9611   17.2418 C.ar    1  UNL1        0.1098
     22 N         -15.8205   -2.3093   17.6720 N.ar    1  UNL1       -0.2454
     23 N         -14.3306   -5.2105   19.9333 N.pl3   1  UNL1       -0.3077
     24 H         -14.6971   -5.6350   20.7424 H       1  UNL1        0.1492
     25 C         -13.2752   -5.9120   19.1307 C.ar    1  UNL1        0.1607
     26 N         -11.8184   -6.0010   19.4765 N.ar    1  UNL1       -0.2198
     27 C         -11.1342   -6.7916   18.4010 C.ar    1  UNL1        0.1667
     28 C         -12.1682   -7.1912   17.3905 C.ar    1  UNL1        0.0880
     29 BR        -11.9222   -7.9936   16.1472 Br      1  UNL1       -0.0403
     30 S         -13.4915   -6.6476   17.8414 S.2     1  UNL1       -0.0450
     31 C          -9.6726   -7.1243   18.3455 C.3     1  UNL1        0.4359
     32 F          -8.2110   -7.4569   18.2900 F       1  UNL1       -0.1644
     33 F          -9.9404   -8.4190   19.0539 F       1  UNL1       -0.1644
     34 F          -9.4048   -5.8295   17.6371 F       1  UNL1       -0.1644
     35 C         -13.4556   -3.2914   19.7072 C.3     1  UNL1        0.0543
     36 C         -12.7236   -2.6683   18.5557 C.ar    1  UNL1       -0.0199
     37 C         -11.9305   -1.4121   18.7626 C.ar    1  UNL1       -0.0042
     38 C         -11.1984   -0.7891   17.6111 C.ar    1  UNL1       -0.0003
     39 C         -11.2595   -1.4223   16.2527 C.ar    1  UNL1       -0.0000
     40 C         -12.0526   -2.6785   16.0457 C.ar    1  UNL1       -0.0003
     41 C         -12.7847   -3.3016   17.1972 C.ar    1  UNL1       -0.0042
@<TRIPOS>BOND
     1     2     3    1
     2     3     4   ar
     3     4     5   ar
     4     5     9    1
     5     9    10    1
     6    10    11    1
     7    10    12    1
     8    10    13    1
     9    13    14    1
    10    13    15    1
    11     5     6   ar
    12     6     7   ar
    13     7     1    1
    14     1    35    1
    15    35    36    1
    16    36    37   ar
    17    37    38   ar
    18    38    39   ar
    19    39    40   ar
    20    40    41   ar
    21     1    23    1
    22    23    25    1
    23    25    26   ar
    24    26    27   ar
    25    27    31    1
    26    31    32    1
    27    31    33    1
    28    31    34    1
    29    27    28   ar
    30    28    29    1
    31    28    30   ar
    32     1    16    1
    33    16    17   ar
    34    17    18   ar
    35    18    19   ar
    36    19    20    1
    37    19    21   ar
    38    21    22   ar
    39     7     8   ar
    40     8     3   ar
    41    41    36   ar
    42    30    25   ar
    43    22    16   ar
    44    23    24    1
