@<TRIPOS>MOLECULE
*****
 21 21 0 0 0
SMALL
GASTEIGER

@<TRIPOS>ATOM
      1 C          -8.2478  -15.9130   22.2408 C.cat   1  UNL1        0.3884
      2 N          -8.1161  -14.6582   21.4296 N.pl3   1  UNL1       -0.1292
      3 H          -8.4228  -13.7987   21.7991 H       1  UNL1        0.3062
      4 N          -8.8468  -15.8584   23.6149 N.pl3   1  UNL1       -0.1862
      5 H          -9.7531  -16.2096   23.7711 H       1  UNL1        0.2707
      6 N          -6.8535  -14.4290   24.4718 N.pl3   1  UNL1       -0.1293
      7 C          -8.0649  -15.2686   24.7510 C.cat   1  UNL1        0.3855
      8 N          -8.4942  -15.5184   26.1664 N.pl3   1  UNL1       -0.2888
      9 H          -6.3404  -14.0420   25.2174 H       1  UNL1        0.3062
     10 H          -7.9810  -15.1313   26.9120 H       1  UNL1        0.2547
     11 H          -9.2892  -16.0694   26.3496 H       1  UNL1        0.2547
     12 N          -7.7804  -17.2225   21.6778 N.pl3   1  UNL1       -0.2616
     13 H          -7.3218  -17.2484   20.8071 H       1  UNL1        0.2588
     14 C          -8.0120  -18.4926   22.4416 C.3     1  UNL1        0.1786
     15 C          -9.2190  -19.3338   22.1498 C.3     1  UNL1        0.0691
     16 C         -10.5844  -18.8447   22.5326 C.ar    1  UNL1       -0.0187
     17 C         -11.0533  -18.9649   23.9523 C.ar    1  UNL1       -0.0042
     18 C         -12.4187  -18.4758   24.3352 C.ar    1  UNL1       -0.0003
     19 C         -13.3152  -17.8666   23.2983 C.ar    1  UNL1       -0.0000
     20 C         -12.8463  -17.7465   21.8785 C.ar    1  UNL1       -0.0003
     21 C         -11.4809  -18.2356   21.4957 C.ar    1  UNL1       -0.0042
@<TRIPOS>BOND
     1     6     7    2
     2     7     8    1
     3     7     4    1
     4     4     1    1
     5     1     2    2
     6     1    12    1
     7    12    14    1
     8    14    15    1
     9    15    16    1
    10    16    17   ar
    11    17    18   ar
    12    18    19   ar
    13    19    20   ar
    14    20    21   ar
    15    21    16   ar
    16     6     9    1
    17     8    10    1
    18     8    11    1
    19     4     5    1
    20     2     3    1
    21    12    13    1
@<TRIPOS>MOLECULE
*****
 21 21 0 0 0
SMALL
GASTEIGER

@<TRIPOS>ATOM
      1 C          -3.1147  -18.4258   21.4711 C.cat   1  UNL1        0.3884
      2 N          -2.5396  -19.8066   21.5829 N.pl3   1  UNL1       -0.1292
      3 H          -1.7347  -20.0477   21.0698 H       1  UNL1        0.3062
      4 N          -2.4634  -17.4122   20.5776 N.pl3   1  UNL1       -0.1862
      5 H          -2.8509  -16.5113   20.4907 H       1  UNL1        0.2707
      6 N           0.0472  -18.0804   20.5544 N.pl3   1  UNL1       -0.1293
      7 C          -1.2216  -17.7711   19.8165 C.cat   1  UNL1        0.3855
      8 N          -1.2487  -17.8207   18.3176 N.pl3   1  UNL1       -0.2888
      9 H           0.8622  -18.3159   20.0548 H       1  UNL1        0.3062
     10 H          -0.4337  -18.0562   17.8181 H       1  UNL1        0.2547
     11 H          -2.0815  -17.6177   17.8333 H       1  UNL1        0.2547
     12 N          -4.3411  -18.0585   22.2528 N.pl3   1  UNL1       -0.2616
     13 H          -5.2333  -18.2872   21.9051 H       1  UNL1        0.2588
     14 C          -4.2081  -17.3429   23.5644 C.3     1  UNL1        0.1786
     15 C          -4.8157  -15.9830   23.7418 C.3     1  UNL1        0.0691
     16 C          -5.9145  -15.7771   24.7419 C.ar    1  UNL1       -0.0187
     17 C          -5.5845  -15.6169   26.1963 C.ar    1  UNL1       -0.0042
     18 C          -6.6834  -15.4110   27.1964 C.ar    1  UNL1       -0.0003
     19 C          -8.1121  -15.3653   26.7421 C.ar    1  UNL1       -0.0000
     20 C          -8.4421  -15.5255   25.2876 C.ar    1  UNL1       -0.0003
     21 C          -7.3433  -15.7314   24.2875 C.ar    1  UNL1       -0.0042
@<TRIPOS>BOND
     1     6     7    2
     2     7     8    1
     3     7     4    1
     4     4     1    1
     5     1     2    2
     6     1    12    1
     7    12    14    1
     8    14    15    1
     9    15    16    1
    10    16    17   ar
    11    17    18   ar
    12    18    19   ar
    13    19    20   ar
    14    20    21   ar
    15    21    16   ar
    16     6     9    1
    17     8    10    1
    18     8    11    1
    19     4     5    1
    20     2     3    1
    21    12    13    1
@<TRIPOS>MOLECULE
*****
 21 21 0 0 0
SMALL
GASTEIGER

@<TRIPOS>ATOM
      1 C          -7.6537  -17.7904   22.2815 C.cat   1  UNL1        0.3884
      2 N          -8.5688  -18.7459   22.9883 N.pl3   1  UNL1       -0.1292
      3 H          -8.7567  -18.6291   23.9476 H       1  UNL1        0.3062
      4 N          -7.0248  -16.6569   23.0363 N.pl3   1  UNL1       -0.1862
      5 H          -6.2530  -16.8250   23.6240 H       1  UNL1        0.2707
      6 N          -8.0014  -14.7629   21.5500 N.pl3   1  UNL1       -0.1293
      7 C          -7.5719  -15.2674   22.8958 C.cat   1  UNL1        0.3855
      8 N          -7.6894  -14.3822   24.1011 N.pl3   1  UNL1       -0.2888
      9 H          -8.3604  -13.8509   21.4578 H       1  UNL1        0.3062
     10 H          -8.0485  -13.4701   24.0088 H       1  UNL1        0.2547
     11 H          -7.4076  -14.7132   24.9843 H       1  UNL1        0.2547
     12 N          -7.3674  -17.9684   20.8198 N.pl3   1  UNL1       -0.2616
     13 H          -7.3697  -17.1883   20.2192 H       1  UNL1        0.2588
     14 C          -7.0777  -19.3349   20.2733 C.3     1  UNL1        0.1786
     15 C          -5.9256  -20.1296   20.8127 C.3     1  UNL1        0.0691
     16 C          -4.5573  -19.5182   20.8768 C.ar    1  UNL1       -0.0187
     17 C          -3.7684  -19.3118   19.6179 C.ar    1  UNL1       -0.0042
     18 C          -2.4001  -18.7004   19.6820 C.ar    1  UNL1       -0.0003
     19 C          -1.8209  -18.2954   21.0050 C.ar    1  UNL1       -0.0000
     20 C          -2.6098  -18.5018   22.2639 C.ar    1  UNL1       -0.0003
     21 C          -3.9781  -19.1132   22.1998 C.ar    1  UNL1       -0.0042
@<TRIPOS>BOND
     1     6     7    2
     2     7     8    1
     3     7     4    1
     4     4     1    1
     5     1     2    2
     6     1    12    1
     7    12    14    1
     8    14    15    1
     9    15    16    1
    10    16    17   ar
    11    17    18   ar
    12    18    19   ar
    13    19    20   ar
    14    20    21   ar
    15    21    16   ar
    16     6     9    1
    17     8    10    1
    18     8    11    1
    19     4     5    1
    20     2     3    1
    21    12    13    1
@<TRIPOS>MOLECULE
*****
 21 21 0 0 0
SMALL
GASTEIGER

@<TRIPOS>ATOM
      1 C          -7.5644  -18.3848   22.1466 C.cat   1  UNL1        0.3884
      2 N          -7.0513  -18.0773   20.7710 N.pl3   1  UNL1       -0.1292
      3 H          -6.7806  -17.1593   20.5405 H       1  UNL1        0.3062
      4 N          -7.6650  -17.2936   23.1709 N.pl3   1  UNL1       -0.1862
      5 H          -7.0881  -17.3125   23.9684 H       1  UNL1        0.2707
      6 N          -9.4042  -15.6334   24.1552 N.pl3   1  UNL1       -0.1293
      7 C          -8.6445  -16.1738   22.9800 C.cat   1  UNL1        0.3855
      8 N          -8.8644  -15.5943   21.6141 N.pl3   1  UNL1       -0.2888
      9 H         -10.0471  -14.8984   24.0299 H       1  UNL1        0.3062
     10 H          -9.5073  -14.8593   21.4888 H       1  UNL1        0.2547
     11 H          -8.3658  -15.9490   20.8428 H       1  UNL1        0.2547
     12 N          -7.9769  -19.7836   22.4979 N.pl3   1  UNL1       -0.2616
     13 H          -7.4914  -20.5505   22.1164 H       1  UNL1        0.2588
     14 C          -9.1290  -20.0139   23.4304 C.3     1  UNL1        0.1786
     15 C         -10.5266  -20.0901   22.8912 C.3     1  UNL1        0.0691
     16 C         -11.1540  -18.8825   22.2603 C.ar    1  UNL1       -0.0187
     17 C         -11.9540  -17.9291   23.0976 C.ar    1  UNL1       -0.0042
     18 C         -12.5813  -16.7215   22.4667 C.ar    1  UNL1       -0.0003
     19 C         -12.4087  -16.4672   20.9985 C.ar    1  UNL1       -0.0000
     20 C         -11.6087  -17.4206   20.1613 C.ar    1  UNL1       -0.0003
     21 C         -10.9813  -18.6282   20.7922 C.ar    1  UNL1       -0.0042
@<TRIPOS>BOND
     1     6     7    2
     2     7     8    1
     3     7     4    1
     4     4     1    1
     5     1     2    2
     6     1    12    1
     7    12    14    1
     8    14    15    1
     9    15    16    1
    10    16    17   ar
    11    17    18   ar
    12    18    19   ar
    13    19    20   ar
    14    20    21   ar
    15    21    16   ar
    16     6     9    1
    17     8    10    1
    18     8    11    1
    19     4     5    1
    20     2     3    1
    21    12    13    1
@<TRIPOS>MOLECULE
*****
 21 21 0 0 0
SMALL
GASTEIGER

@<TRIPOS>ATOM
      1 C          -6.9475  -18.0078   21.9815 C.cat   1  UNL1        0.3884
      2 N          -5.5304  -18.2711   22.3968 N.pl3   1  UNL1       -0.1292
      3 H          -5.2543  -18.1186   23.3294 H       1  UNL1        0.3062
      4 N          -7.9440  -17.5122   22.9871 N.pl3   1  UNL1       -0.1862
      5 H          -8.1179  -18.0317   23.8051 H       1  UNL1        0.2707
      6 N          -8.3025  -15.3568   21.5815 N.pl3   1  UNL1       -0.1293
      7 C          -8.6754  -16.2249   22.7465 C.cat   1  UNL1        0.3855
      8 N          -9.7798  -15.8057   23.6710 N.pl3   1  UNL1       -0.2888
      9 H          -8.7826  -14.5119   21.4236 H       1  UNL1        0.3062
     10 H         -10.2599  -14.9608   23.5131 H       1  UNL1        0.2547
     11 H         -10.0246  -16.3755   24.4356 H       1  UNL1        0.2547
     12 N          -7.3682  -18.2402   20.5605 N.pl3   1  UNL1       -0.2616
     13 H          -7.0965  -17.6075   19.8569 H       1  UNL1        0.2588
     14 C          -8.2028  -19.4368   20.2116 C.3     1  UNL1        0.1786
     15 C          -9.6154  -19.2545   19.7411 C.3     1  UNL1        0.0691
     16 C         -10.6415  -18.6616   20.6607 C.ar    1  UNL1       -0.0187
     17 C         -11.4127  -17.4459   20.2397 C.ar    1  UNL1       -0.0042
     18 C         -12.4388  -16.8530   21.1592 C.ar    1  UNL1       -0.0003
     19 C         -12.6938  -17.4758   22.4997 C.ar    1  UNL1       -0.0000
     20 C         -11.9226  -18.6915   22.9207 C.ar    1  UNL1       -0.0003
     21 C         -10.8965  -19.2844   22.0012 C.ar    1  UNL1       -0.0042
@<TRIPOS>BOND
     1     6     7    2
     2     7     8    1
     3     7     4    1
     4     4     1    1
     5     1     2    2
     6     1    12    1
     7    12    14    1
     8    14    15    1
     9    15    16    1
    10    16    17   ar
    11    17    18   ar
    12    18    19   ar
    13    19    20   ar
    14    20    21   ar
    15    21    16   ar
    16     6     9    1
    17     8    10    1
    18     8    11    1
    19     4     5    1
    20     2     3    1
    21    12    13    1
@<TRIPOS>MOLECULE
*****
 21 21 0 0 0
SMALL
GASTEIGER

@<TRIPOS>ATOM
      1 C          -3.0376  -19.4583   20.6687 C.cat   1  UNL1        0.3884
      2 N          -2.0627  -20.1573   21.5692 N.pl3   1  UNL1       -0.1292
      3 H          -1.1554  -19.7945   21.6885 H       1  UNL1        0.3062
      4 N          -2.6299  -18.2064   19.9499 N.pl3   1  UNL1       -0.1862
      5 H          -3.2074  -17.4097   19.9828 H       1  UNL1        0.2707
      6 N          -0.0670  -18.6154   19.8317 N.pl3   1  UNL1       -0.1293
      7 C          -1.3425  -18.1683   19.1812 C.cat   1  UNL1        0.3855
      8 N          -1.3306  -17.6831   17.7618 N.pl3   1  UNL1       -0.2888
      9 H           0.7780  -18.5904   19.3271 H       1  UNL1        0.3062
     10 H          -0.4856  -17.6582   17.2573 H       1  UNL1        0.2547
     11 H          -2.1677  -17.3897   17.3349 H       1  UNL1        0.2547
     12 N          -4.4201  -20.0111   20.4869 N.pl3   1  UNL1       -0.2616
     13 H          -4.5439  -20.9181   20.1246 H       1  UNL1        0.2588
     14 C          -5.6141  -19.1820   20.8570 C.3     1  UNL1        0.1786
     15 C          -6.4880  -19.5956   22.0038 C.3     1  UNL1        0.0691
     16 C          -7.9774  -19.6433   21.8325 C.ar    1  UNL1       -0.0187
     17 C          -8.5841  -19.4240   20.4783 C.ar    1  UNL1       -0.0042
     18 C         -10.0735  -19.4718   20.3070 C.ar    1  UNL1       -0.0003
     19 C         -10.9563  -19.7389   21.4899 C.ar    1  UNL1       -0.0000
     20 C         -10.3497  -19.9582   22.8441 C.ar    1  UNL1       -0.0003
     21 C          -8.8603  -19.9104   23.0154 C.ar    1  UNL1       -0.0042
@<TRIPOS>BOND
     1     6     7    2
     2     7     8    1
     3     7     4    1
     4     4     1    1
     5     1     2    2
     6     1    12    1
     7    12    14    1
     8    14    15    1
     9    15    16    1
    10    16    17   ar
    11    17    18   ar
    12    18    19   ar
    13    19    20   ar
    14    20    21   ar
    15    21    16   ar
    16     6     9    1
    17     8    10    1
    18     8    11    1
    19     4     5    1
    20     2     3    1
    21    12    13    1
@<TRIPOS>MOLECULE
*****
 21 21 0 0 0
SMALL
GASTEIGER

@<TRIPOS>ATOM
      1 C          -8.1686  -17.4643   23.3263 C.cat   1  UNL1        0.3884
      2 N          -8.9846  -17.1349   24.5410 N.pl3   1  UNL1       -0.1292
      3 H          -9.0116  -16.2111   24.8802 H       1  UNL1        0.3062
      4 N          -7.3938  -16.3862   22.6283 N.pl3   1  UNL1       -0.1862
      5 H          -7.2284  -16.4472   21.6597 H       1  UNL1        0.2707
      6 N          -5.4036  -14.9031   23.3962 N.pl3   1  UNL1       -0.1293
      7 C          -6.8708  -15.2150   23.4060 C.cat   1  UNL1        0.3855
      8 N          -7.8150  -14.3558   24.1936 N.pl3   1  UNL1       -0.2888
      9 H          -5.0603  -14.1344   23.9067 H       1  UNL1        0.3062
     10 H          -7.4717  -13.5872   24.7041 H       1  UNL1        0.2547
     11 H          -8.7779  -14.5606   24.2001 H       1  UNL1        0.2547
     12 N          -8.1275  -18.8719   22.8094 N.pl3   1  UNL1       -0.2616
     13 H          -7.4397  -19.1367   22.1567 H       1  UNL1        0.2588
     14 C          -9.1343  -19.8760   23.2872 C.3     1  UNL1        0.1786
     15 C         -10.4425  -20.0264   22.5690 C.3     1  UNL1        0.0691
     16 C         -11.1047  -18.8274   21.9576 C.ar    1  UNL1       -0.0187
     17 C         -12.0024  -17.9605   22.7899 C.ar    1  UNL1       -0.0042
     18 C         -12.6646  -16.7615   22.1786 C.ar    1  UNL1       -0.0003
     19 C         -12.4292  -16.4293   20.7349 C.ar    1  UNL1       -0.0000
     20 C         -11.5315  -17.2961   19.9026 C.ar    1  UNL1       -0.0003
     21 C         -10.8693  -18.4951   20.5140 C.ar    1  UNL1       -0.0042
@<TRIPOS>BOND
     1     6     7    2
     2     7     8    1
     3     7     4    1
     4     4     1    1
     5     1     2    2
     6     1    12    1
     7    12    14    1
     8    14    15    1
     9    15    16    1
    10    16    17   ar
    11    17    18   ar
    12    18    19   ar
    13    19    20   ar
    14    20    21   ar
    15    21    16   ar
    16     6     9    1
    17     8    10    1
    18     8    11    1
    19     4     5    1
    20     2     3    1
    21    12    13    1
@<TRIPOS>MOLECULE
*****
 21 21 0 0 0
SMALL
GASTEIGER

@<TRIPOS>ATOM
      1 C         -11.1510  -18.1753   21.4975 C.cat   1  UNL1        0.3884
      2 N         -10.1694  -19.2445   21.1190 N.pl3   1  UNL1       -0.1292
      3 H         -10.0722  -19.5123   20.1767 H       1  UNL1        0.3062
      4 N         -11.9844  -17.5140   20.4401 N.pl3   1  UNL1       -0.1862
      5 H         -12.8026  -17.9526   20.1124 H       1  UNL1        0.2707
      6 N         -12.4442  -15.4871   18.8812 N.pl3   1  UNL1       -0.1293
      7 C         -11.5712  -16.1844   19.8820 C.cat   1  UNL1        0.3855
      8 N         -10.2850  -15.5522   20.3247 N.pl3   1  UNL1       -0.2888
      9 H         -12.1730  -14.6144   18.5149 H       1  UNL1        0.3062
     10 H         -10.0139  -14.6795   19.9585 H       1  UNL1        0.2547
     11 H          -9.7121  -16.0099   20.9816 H       1  UNL1        0.2547
     12 N         -11.2992  -17.7674   22.9334 N.pl3   1  UNL1       -0.2616
     13 H         -12.1962  -17.6511   23.3220 H       1  UNL1        0.2588
     14 C         -10.0806  -17.5367   23.7771 C.3     1  UNL1        0.1786
     15 C          -9.6093  -16.1385   24.0475 C.3     1  UNL1        0.0691
     16 C          -8.3470  -15.9097   24.8247 C.ar    1  UNL1       -0.0187
     17 C          -7.0533  -15.6764   24.1023 C.ar    1  UNL1       -0.0042
     18 C          -5.7909  -15.4475   24.8795 C.ar    1  UNL1       -0.0003
     19 C          -5.8222  -15.4521   26.3791 C.ar    1  UNL1       -0.0000
     20 C          -7.1159  -15.6854   27.1015 C.ar    1  UNL1       -0.0003
     21 C          -8.3782  -15.9143   26.3243 C.ar    1  UNL1       -0.0042
@<TRIPOS>BOND
     1     6     7    2
     2     7     8    1
     3     7     4    1
     4     4     1    1
     5     1     2    2
     6     1    12    1
     7    12    14    1
     8    14    15    1
     9    15    16    1
    10    16    17   ar
    11    17    18   ar
    12    18    19   ar
    13    19    20   ar
    14    20    21   ar
    15    21    16   ar
    16     6     9    1
    17     8    10    1
    18     8    11    1
    19     4     5    1
    20     2     3    1
    21    12    13    1
@<TRIPOS>MOLECULE
*****
 21 21 0 0 0
SMALL
GASTEIGER

@<TRIPOS>ATOM
      1 C         -10.0744  -18.4309   22.1690 C.cat   1  UNL1        0.3884
      2 N         -11.5123  -18.4699   21.7438 N.pl3   1  UNL1       -0.1292
      3 H         -12.1085  -19.1738   22.0879 H       1  UNL1        0.3062
      4 N          -9.5448  -19.4642   23.1186 N.pl3   1  UNL1       -0.1862
      5 H          -8.7059  -19.9370   22.9137 H       1  UNL1        0.2707
      6 N          -9.9154  -20.9762   25.1986 N.pl3   1  UNL1       -0.1293
      7 C         -10.2932  -19.7772   24.3802 C.cat   1  UNL1        0.3855
      8 N         -11.4196  -18.8913   24.8235 N.pl3   1  UNL1       -0.2888
      9 H         -10.4066  -21.1816   26.0267 H       1  UNL1        0.3062
     10 H         -11.9108  -19.0968   25.6516 H       1  UNL1        0.2547
     11 H         -11.6676  -18.1044   24.2863 H       1  UNL1        0.2547
     12 N          -9.1661  -17.3584   21.6446 N.pl3   1  UNL1       -0.2616
     13 H          -8.6279  -17.5209   20.8364 H       1  UNL1        0.2588
     14 C          -9.0778  -16.0385   22.3517 C.3     1  UNL1        0.1786
     15 C          -7.7509  -15.5353   22.8377 C.3     1  UNL1        0.0691
     16 C          -7.4541  -15.5020   24.3077 C.ar    1  UNL1       -0.0187
     17 C          -8.5750  -15.5816   25.3012 C.ar    1  UNL1       -0.0042
     18 C          -8.2781  -15.5483   26.7711 C.ar    1  UNL1       -0.0003
     19 C          -6.8603  -15.4354   27.2476 C.ar    1  UNL1       -0.0000
     20 C          -5.7394  -15.3559   26.2541 C.ar    1  UNL1       -0.0003
     21 C          -6.0363  -15.3892   24.7841 C.ar    1  UNL1       -0.0042
@<TRIPOS>BOND
     1     6     7    2
     2     7     8    1
     3     7     4    1
     4     4     1    1
     5     1     2    2
     6     1    12    1
     7    12    14    1
     8    14    15    1
     9    15    16    1
    10    16    17   ar
    11    17    18   ar
    12    18    19   ar
    13    19    20   ar
    14    20    21   ar
    15    21    16   ar
    16     6     9    1
    17     8    10    1
    18     8    11    1
    19     4     5    1
    20     2     3    1
    21    12    13    1
