@<TRIPOS>MOLECULE
*****
 28 31 0 0 0
SMALL
GASTEIGER

@<TRIPOS>ATOM
      1 C          -6.9147  -16.4570   23.7023 C.ar    1  UNL1        0.0912
      2 C          -5.5199  -16.8451   23.3103 C.ar    1  UNL1        0.0466
      3 C          -4.4031  -16.7353   24.3055 C.ar    1  UNL1        0.1631
      4 C          -4.6811  -16.2373   25.6929 C.ar    1  UNL1        0.1193
      5 N          -6.0759  -15.8492   26.0849 N.ar    1  UNL1       -0.2846
      6 C          -6.6494  -15.3286   27.3695 C.ar    1  UNL1        0.1023
      7 C          -8.1206  -15.1168   27.1681 C.ar    1  UNL1        0.1195
      8 N          -8.4564  -15.5063   25.7591 N.ar    1  UNL1       -0.2247
      9 C          -7.1928  -15.9590   25.0896 C.ar    1  UNL1        0.1524
     10 O          -7.7660  -17.1254   21.3403 O.2     1  UNL1       -0.2697
     11 C          -8.0315  -16.5668   22.7069 C.2     1  UNL1        0.2536
     12 N          -9.4139  -16.1181   23.0782 N.am    1  UNL1       -0.2657
     13 H          -9.5881  -15.7514   23.9751 H       1  UNL1        0.1566
     14 C         -10.5306  -16.2279   22.0828 C.ar    1  UNL1        0.1367
     15 C         -11.7788  -16.9809   22.4362 C.ar    1  UNL1        0.0346
     16 C         -12.8957  -17.0908   21.4409 C.ar    1  UNL1        0.0068
     17 C         -12.7643  -16.4478   20.0921 C.ar    1  UNL1        0.0498
     18 C         -11.5160  -15.6947   19.7387 C.ar    1  UNL1        0.2234
     19 F         -11.3845  -15.0516   18.3900 F       1  UNL1       -0.1832
     20 N         -10.3992  -15.5848   20.7340 N.ar    1  UNL1       -0.2029
     21 O          -3.0082  -17.1235   23.9135 O.3     1  UNL1       -0.4503
     22 C          -2.7253  -17.5960   22.5182 C.ar    1  UNL1        0.1667
     23 C          -2.0553  -16.6799   21.5375 C.ar    1  UNL1        0.1364
     24 N          -1.7724  -17.1524   20.1422 N.ar    1  UNL1       -0.2368
     25 C          -2.1595  -18.5410   19.7277 C.ar    1  UNL1        0.1286
     26 C          -2.8294  -19.4571   20.7084 C.ar    1  UNL1        0.1623
     27 F          -3.2165  -20.8459   20.2940 F       1  UNL1       -0.2024
     28 C          -3.1123  -18.9846   22.1037 C.ar    1  UNL1        0.0703
@<TRIPOS>BOND
     1    10    11    2
     2    11    12   am
     3    12    14    1
     4    14    15   ar
     5    15    16   ar
     6    16    17   ar
     7    17    18   ar
     8    18    19    1
     9    18    20   ar
    10    11     1    1
    11     1     2   ar
    12     2     3   ar
    13     3    21    1
    14    21    22    1
    15    22    23   ar
    16    23    24   ar
    17    24    25   ar
    18    25    26   ar
    19    26    27    1
    20    26    28   ar
    21     3     4   ar
    22     4     5   ar
    23     5     6   ar
    24     6     7   ar
    25     7     8   ar
    26     8     9   ar
    27    20    14   ar
    28     9     1   ar
    29    28    22   ar
    30     9     5   ar
    31    12    13    1
@<TRIPOS>MOLECULE
*****
 28 31 0 0 0
SMALL
GASTEIGER

@<TRIPOS>ATOM
      1 C          -6.6666  -17.5738   22.8064 C.ar    1  UNL1        0.0912
      2 C          -5.6119  -18.4563   22.2073 C.ar    1  UNL1        0.0466
      3 C          -4.2046  -18.3994   22.7230 C.ar    1  UNL1        0.1631
      4 C          -3.8518  -17.4600   23.8380 C.ar    1  UNL1        0.1193
      5 N          -4.9064  -16.5775   24.4371 N.ar    1  UNL1       -0.2846
      6 C          -4.8568  -15.5596   25.5377 C.ar    1  UNL1        0.1023
      7 C          -6.2336  -14.9873   25.7021 C.ar    1  UNL1        0.1195
      8 N          -7.1340  -15.6516   24.7031 N.ar    1  UNL1       -0.2247
      9 C          -6.3138  -16.6344   23.9213 C.ar    1  UNL1        0.1524
     10 O          -8.3608  -18.2655   20.9621 O.2     1  UNL1       -0.2697
     11 C          -8.0739  -17.6307   22.2906 C.2     1  UNL1        0.2536
     12 N          -9.1945  -17.0528   23.1032 N.am    1  UNL1       -0.2657
     13 H          -9.0063  -16.6362   23.9751 H       1  UNL1        0.1566
     14 C         -10.6019  -17.1097   22.5873 C.ar    1  UNL1        0.1367
     15 C         -11.6322  -17.9279   23.3078 C.ar    1  UNL1        0.0346
     16 C         -13.0395  -17.9849   22.7919 C.ar    1  UNL1        0.0068
     17 C         -13.4166  -17.2237   21.5557 C.ar    1  UNL1        0.0498
     18 C         -12.3862  -16.4055   20.8353 C.ar    1  UNL1        0.2234
     19 F         -12.7633  -15.6443   19.5990 F       1  UNL1       -0.1832
     20 N         -10.9790  -16.3485   21.3511 N.ar    1  UNL1       -0.2029
     21 O          -3.1500  -19.2820   22.1238 O.3     1  UNL1       -0.4503
     22 C          -2.3613  -18.8096   20.9386 C.ar    1  UNL1        0.1667
     23 C          -2.9172  -18.9719   19.5549 C.ar    1  UNL1        0.1364
     24 N          -2.1285  -18.4995   18.3696 N.ar    1  UNL1       -0.2368
     25 C          -0.7840  -17.8648   18.5680 C.ar    1  UNL1        0.1286
     26 C          -0.2281  -17.7025   19.9517 C.ar    1  UNL1        0.1623
     27 F           1.1165  -17.0678   20.1503 F       1  UNL1       -0.2024
     28 C          -1.0168  -18.1749   21.1370 C.ar    1  UNL1        0.0703
@<TRIPOS>BOND
     1    10    11    2
     2    11    12   am
     3    12    14    1
     4    14    15   ar
     5    15    16   ar
     6    16    17   ar
     7    17    18   ar
     8    18    19    1
     9    18    20   ar
    10    11     1    1
    11     1     2   ar
    12     2     3   ar
    13     3    21    1
    14    21    22    1
    15    22    23   ar
    16    23    24   ar
    17    24    25   ar
    18    25    26   ar
    19    26    27    1
    20    26    28   ar
    21     3     4   ar
    22     4     5   ar
    23     5     6   ar
    24     6     7   ar
    25     7     8   ar
    26     8     9   ar
    27    20    14   ar
    28     9     1   ar
    29    28    22   ar
    30     9     5   ar
    31    12    13    1
@<TRIPOS>MOLECULE
*****
 28 31 0 0 0
SMALL
GASTEIGER

@<TRIPOS>ATOM
      1 C          -7.4252  -16.4465   24.0524 C.ar    1  UNL1        0.0912
      2 C          -6.1493  -16.4488   23.2638 C.ar    1  UNL1        0.0466
      3 C          -4.8928  -15.8962   23.8685 C.ar    1  UNL1        0.1631
      4 C          -4.9122  -15.3412   25.2620 C.ar    1  UNL1        0.1193
      5 N          -6.1881  -15.3389   26.0506 N.ar    1  UNL1       -0.2846
      6 C          -6.5110  -14.8621   27.4357 C.ar    1  UNL1        0.1023
      7 C          -7.9671  -15.1201   27.6869 C.ar    1  UNL1        0.1195
      8 N          -8.5441  -15.7563   26.4572 N.ar    1  UNL1       -0.2247
      9 C          -7.4446  -15.8915   25.4458 C.ar    1  UNL1        0.1524
     10 O          -8.6625  -18.3375   22.7704 O.2     1  UNL1       -0.2697
     11 C          -8.6818  -16.9991   23.4476 C.2     1  UNL1        0.2536
     12 N          -9.9575  -16.2135   23.5201 N.am    1  UNL1       -0.2657
     13 H          -9.9701  -15.3351   23.9646 H       1  UNL1        0.1566
     14 C         -11.2140  -16.7662   22.9153 C.ar    1  UNL1        0.1367
     15 C         -11.4200  -16.7085   21.4306 C.ar    1  UNL1        0.0346
     16 C         -12.6765  -17.2612   20.8257 C.ar    1  UNL1        0.0068
     17 C         -13.7269  -17.8716   21.7055 C.ar    1  UNL1        0.0498
     18 C         -13.5208  -17.9293   23.1902 C.ar    1  UNL1        0.2234
     19 F         -14.5712  -18.5397   24.0700 F       1  UNL1       -0.1832
     20 N         -12.2644  -17.3766   23.7950 N.ar    1  UNL1       -0.2029
     21 O          -3.6168  -15.8985   23.0797 O.3     1  UNL1       -0.4503
     22 C          -3.1603  -17.1529   22.3957 C.ar    1  UNL1        0.1667
     23 C          -3.7574  -18.4750   22.7770 C.ar    1  UNL1        0.1364
     24 N          -3.3008  -19.7295   22.0929 N.ar    1  UNL1       -0.2368
     25 C          -2.2471  -19.6618   21.0276 C.ar    1  UNL1        0.1286
     26 C          -1.6499  -18.3397   20.6463 C.ar    1  UNL1        0.1623
     27 F          -0.5961  -18.2719   19.5809 F       1  UNL1       -0.2024
     28 C          -2.1065  -17.0852   21.3303 C.ar    1  UNL1        0.0703
@<TRIPOS>BOND
     1    10    11    2
     2    11    12   am
     3    12    14    1
     4    14    15   ar
     5    15    16   ar
     6    16    17   ar
     7    17    18   ar
     8    18    19    1
     9    18    20   ar
    10    11     1    1
    11     1     2   ar
    12     2     3   ar
    13     3    21    1
    14    21    22    1
    15    22    23   ar
    16    23    24   ar
    17    24    25   ar
    18    25    26   ar
    19    26    27    1
    20    26    28   ar
    21     3     4   ar
    22     4     5   ar
    23     5     6   ar
    24     6     7   ar
    25     7     8   ar
    26     8     9   ar
    27    20    14   ar
    28     9     1   ar
    29    28    22   ar
    30     9     5   ar
    31    12    13    1
@<TRIPOS>MOLECULE
*****
 28 31 0 0 0
SMALL
GASTEIGER

@<TRIPOS>ATOM
      1 C          -6.9100  -16.1589   23.9589 C.ar    1  UNL1        0.0912
      2 C          -8.1931  -16.3084   23.1964 C.ar    1  UNL1        0.0466
      3 C          -9.5031  -16.0264   23.8702 C.ar    1  UNL1        0.1631
      4 C          -9.5303  -15.5948   25.3066 C.ar    1  UNL1        0.1193
      5 N          -8.2472  -15.4452   26.0690 N.ar    1  UNL1       -0.2846
      6 C          -7.9624  -15.0390   27.4846 C.ar    1  UNL1        0.1023
      7 C          -6.4763  -15.0700   27.6857 C.ar    1  UNL1        0.1195
      8 N          -5.8426  -15.4954   26.3944 N.ar    1  UNL1       -0.2247
      9 C          -6.9371  -15.7273   25.3952 C.ar    1  UNL1        0.1524
     10 O          -4.5773  -15.3520   23.1478 O.2     1  UNL1       -0.2697
     11 C          -5.5999  -16.4409   23.2851 C.2     1  UNL1        0.2536
     12 N          -5.3123  -17.8118   22.7485 N.am    1  UNL1       -0.2657
     13 H          -5.9834  -18.5265   22.8385 H       1  UNL1        0.1566
     14 C          -4.0022  -18.0938   22.0746 C.ar    1  UNL1        0.1367
     15 C          -2.7302  -18.0726   22.8694 C.ar    1  UNL1        0.0346
     16 C          -1.4200  -18.3545   22.1957 C.ar    1  UNL1        0.0068
     17 C          -1.3818  -18.6577   20.7272 C.ar    1  UNL1        0.0498
     18 C          -2.6538  -18.6789   19.9324 C.ar    1  UNL1        0.2234
     19 F          -2.6155  -18.9821   18.4639 F       1  UNL1       -0.1832
     20 N          -3.9639  -18.3970   20.6061 N.ar    1  UNL1       -0.2029
     21 O         -10.7863  -16.1759   23.1076 O.3     1  UNL1       -0.4503
     22 C         -10.8763  -17.1564   21.9761 C.ar    1  UNL1        0.1667
     23 C         -10.8339  -16.6707   20.5576 C.ar    1  UNL1        0.1364
     24 N         -10.9240  -17.6513   19.4260 N.ar    1  UNL1       -0.2368
     25 C         -11.0565  -19.1176   19.7130 C.ar    1  UNL1        0.1286
     26 C         -11.0988  -19.6033   21.1315 C.ar    1  UNL1        0.1623
     27 F         -11.2313  -21.0697   21.4186 F       1  UNL1       -0.2024
     28 C         -11.0088  -18.6228   22.2631 C.ar    1  UNL1        0.0703
@<TRIPOS>BOND
     1    10    11    2
     2    11    12   am
     3    12    14    1
     4    14    15   ar
     5    15    16   ar
     6    16    17   ar
     7    17    18   ar
     8    18    19    1
     9    18    20   ar
    10    11     1    1
    11     1     2   ar
    12     2     3   ar
    13     3    21    1
    14    21    22    1
    15    22    23   ar
    16    23    24   ar
    17    24    25   ar
    18    25    26   ar
    19    26    27    1
    20    26    28   ar
    21     3     4   ar
    22     4     5   ar
    23     5     6   ar
    24     6     7   ar
    25     7     8   ar
    26     8     9   ar
    27    20    14   ar
    28     9     1   ar
    29    28    22   ar
    30     9     5   ar
    31    12    13    1
@<TRIPOS>MOLECULE
*****
 28 31 0 0 0
SMALL
GASTEIGER

@<TRIPOS>ATOM
      1 C          -8.0888  -18.2802   22.0732 C.ar    1  UNL1        0.0912
      2 C          -6.8830  -18.9795   21.5190 C.ar    1  UNL1        0.0466
      3 C          -6.9663  -19.6848   20.1979 C.ar    1  UNL1        0.1631
      4 C          -8.2554  -19.6909   19.4308 C.ar    1  UNL1        0.1193
      5 N          -9.4611  -18.9916   19.9850 N.ar    1  UNL1       -0.2846
      6 C         -10.8567  -18.8290   19.4598 C.ar    1  UNL1        0.1023
      7 C         -11.6360  -18.0231   20.4564 C.ar    1  UNL1        0.1195
      8 N         -10.7220  -17.6876   21.5975 N.ar    1  UNL1       -0.2247
      9 C          -9.3778  -18.2862   21.3062 C.ar    1  UNL1        0.1524
     10 O          -9.0297  -17.8474   24.4560 O.2     1  UNL1       -0.2697
     11 C          -8.0055  -17.5748   23.3944 C.2     1  UNL1        0.2536
     12 N          -6.8982  -16.5968   23.6540 N.am    1  UNL1       -0.2657
     13 H          -6.2261  -16.4179   22.9572 H       1  UNL1        0.1566
     14 C          -6.8150  -15.8915   24.9752 C.ar    1  UNL1        0.1367
     15 C          -5.5064  -15.3269   25.4428 C.ar    1  UNL1        0.0346
     16 C          -5.4231  -14.6215   26.7640 C.ar    1  UNL1        0.0068
     17 C          -6.6484  -14.4808   27.6176 C.ar    1  UNL1        0.0498
     18 C          -7.9571  -15.0455   27.1499 C.ar    1  UNL1        0.2234
     19 F          -9.1824  -14.9047   28.0036 F       1  UNL1       -0.1832
     20 N          -8.0404  -15.7508   25.8288 N.ar    1  UNL1       -0.2029
     21 O          -5.7604  -20.3841   19.6438 O.3     1  UNL1       -0.4503
     22 C          -4.3871  -19.8561   19.9355 C.ar    1  UNL1        0.1667
     23 C          -3.5567  -20.4824   21.0163 C.ar    1  UNL1        0.1364
     24 N          -2.1834  -19.9543   21.3081 N.ar    1  UNL1       -0.2368
     25 C          -1.6404  -18.7999   20.5190 C.ar    1  UNL1        0.1286
     26 C          -2.4708  -18.1736   19.4382 C.ar    1  UNL1        0.1623
     27 F          -1.9280  -17.0192   18.6490 F       1  UNL1       -0.2024
     28 C          -3.8442  -18.7017   19.1464 C.ar    1  UNL1        0.0703
@<TRIPOS>BOND
     1    10    11    2
     2    11    12   am
     3    12    14    1
     4    14    15   ar
     5    15    16   ar
     6    16    17   ar
     7    17    18   ar
     8    18    19    1
     9    18    20   ar
    10    11     1    1
    11     1     2   ar
    12     2     3   ar
    13     3    21    1
    14    21    22    1
    15    22    23   ar
    16    23    24   ar
    17    24    25   ar
    18    25    26   ar
    19    26    27    1
    20    26    28   ar
    21     3     4   ar
    22     4     5   ar
    23     5     6   ar
    24     6     7   ar
    25     7     8   ar
    26     8     9   ar
    27    20    14   ar
    28     9     1   ar
    29    28    22   ar
    30     9     5   ar
    31    12    13    1
@<TRIPOS>MOLECULE
*****
 28 31 0 0 0
SMALL
GASTEIGER

@<TRIPOS>ATOM
      1 C          -6.7490  -16.7492   23.6146 C.ar    1  UNL1        0.0912
      2 C          -8.1864  -16.9065   23.2160 C.ar    1  UNL1        0.0466
      3 C          -9.2719  -16.3489   24.0881 C.ar    1  UNL1        0.1631
      4 C          -8.9199  -15.6337   25.3589 C.ar    1  UNL1        0.1193
      5 N          -7.4825  -15.4763   25.7575 N.ar    1  UNL1       -0.2846
      6 C          -6.8354  -14.8249   26.9436 C.ar    1  UNL1        0.1023
      7 C          -5.3499  -14.9800   26.8045 C.ar    1  UNL1        0.1195
      8 N          -5.0789  -15.7273   25.5324 N.ar    1  UNL1       -0.2247
      9 C          -6.3970  -16.0341   24.8853 C.ar    1  UNL1        0.1524
     10 O          -6.0129  -18.1982   21.5875 O.2     1  UNL1       -0.2697
     11 C          -5.6635  -17.3069   22.7424 C.2     1  UNL1        0.2536
     12 N          -4.2286  -16.9734   23.0251 N.am    1  UNL1       -0.2657
     13 H          -3.9992  -16.3885   23.7830 H       1  UNL1        0.1566
     14 C          -3.1431  -17.5312   22.1529 C.ar    1  UNL1        0.1367
     15 C          -3.0112  -19.0149   21.9762 C.ar    1  UNL1        0.0346
     16 C          -1.9258  -19.5727   21.1040 C.ar    1  UNL1        0.0068
     17 C          -0.9723  -18.6469   20.4085 C.ar    1  UNL1        0.0498
     18 C          -1.1044  -17.1632   20.5852 C.ar    1  UNL1        0.2234
     19 F          -0.1510  -16.2373   19.8896 F       1  UNL1       -0.1832
     20 N          -2.1897  -16.6054   21.4573 N.ar    1  UNL1       -0.2029
     21 O         -10.7094  -16.5062   23.6895 O.3     1  UNL1       -0.4503
     22 C         -11.0583  -16.9434   22.2977 C.ar    1  UNL1        0.1667
     23 C         -11.1906  -18.4037   21.9812 C.ar    1  UNL1        0.1364
     24 N         -11.5394  -18.8408   20.5894 N.ar    1  UNL1       -0.2368
     25 C         -11.7559  -17.8177   19.5140 C.ar    1  UNL1        0.1286
     26 C         -11.6236  -16.3575   19.8305 C.ar    1  UNL1        0.1623
     27 F         -11.8401  -15.3343   18.7551 F       1  UNL1       -0.2024
     28 C         -11.2748  -15.9203   21.2223 C.ar    1  UNL1        0.0703
@<TRIPOS>BOND
     1    10    11    2
     2    11    12   am
     3    12    14    1
     4    14    15   ar
     5    15    16   ar
     6    16    17   ar
     7    17    18   ar
     8    18    19    1
     9    18    20   ar
    10    11     1    1
    11     1     2   ar
    12     2     3   ar
    13     3    21    1
    14    21    22    1
    15    22    23   ar
    16    23    24   ar
    17    24    25   ar
    18    25    26   ar
    19    26    27    1
    20    26    28   ar
    21     3     4   ar
    22     4     5   ar
    23     5     6   ar
    24     6     7   ar
    25     7     8   ar
    26     8     9   ar
    27    20    14   ar
    28     9     1   ar
    29    28    22   ar
    30     9     5   ar
    31    12    13    1
@<TRIPOS>MOLECULE
*****
 28 31 0 0 0
SMALL
GASTEIGER

@<TRIPOS>ATOM
      1 C         -13.5885   -5.4337   18.8558 C.ar    1  UNL1        0.0912
      2 C         -13.8369   -3.9553   18.9067 C.ar    1  UNL1        0.0466
      3 C         -12.6802   -3.0006   18.9232 C.ar    1  UNL1        0.1631
      4 C         -11.2749   -3.5241   18.8889 C.ar    1  UNL1        0.1193
      5 N         -11.0265   -5.0025   18.8381 N.ar    1  UNL1       -0.2846
      6 C          -9.7610   -5.8067   18.7964 C.ar    1  UNL1        0.1023
      7 C         -10.1357   -7.2586   18.7541 C.ar    1  UNL1        0.1195
      8 N         -11.6327   -7.3516   18.7696 N.ar    1  UNL1       -0.2247
      9 C         -12.1833   -5.9573   18.8215 C.ar    1  UNL1        0.1524
     10 O         -15.9471   -6.1255   19.6975 O.2     1  UNL1       -0.2697
     11 C         -14.7453   -6.3885   18.8392 C.2     1  UNL1        0.2536
     12 N         -14.7002   -7.6061   17.9645 N.am    1  UNL1       -0.2657
     13 H         -13.9115   -7.7787   17.4012 H       1  UNL1        0.1566
     14 C         -15.8571   -8.5609   17.9480 C.ar    1  UNL1        0.1367
     15 C         -17.1700   -8.1380   17.3586 C.ar    1  UNL1        0.0346
     16 C         -18.3269   -9.0927   17.3421 C.ar    1  UNL1        0.0068
     17 C         -18.1709  -10.4702   17.9149 C.ar    1  UNL1        0.0498
     18 C         -16.8578  -10.8930   18.5043 C.ar    1  UNL1        0.2234
     19 F         -16.7017  -12.2705   19.0771 F       1  UNL1       -0.1832
     20 N         -15.7010   -9.9384   18.5208 N.ar    1  UNL1       -0.2029
     21 O         -12.9287   -1.5221   18.9741 O.3     1  UNL1       -0.4503
     22 C         -14.3053   -0.9837   18.7191 C.ar    1  UNL1        0.1667
     23 C         -14.6617   -0.4470   17.3646 C.ar    1  UNL1        0.1364
     24 N         -16.0384    0.0914   17.1096 N.ar    1  UNL1       -0.2368
     25 C         -17.0586    0.0930   18.2092 C.ar    1  UNL1        0.1286
     26 C         -16.7022   -0.4437   19.5637 C.ar    1  UNL1        0.1623
     27 F         -17.7224   -0.4421   20.6634 F       1  UNL1       -0.2024
     28 C         -15.3256   -0.9821   19.8187 C.ar    1  UNL1        0.0703
@<TRIPOS>BOND
     1    10    11    2
     2    11    12   am
     3    12    14    1
     4    14    15   ar
     5    15    16   ar
     6    16    17   ar
     7    17    18   ar
     8    18    19    1
     9    18    20   ar
    10    11     1    1
    11     1     2   ar
    12     2     3   ar
    13     3    21    1
    14    21    22    1
    15    22    23   ar
    16    23    24   ar
    17    24    25   ar
    18    25    26   ar
    19    26    27    1
    20    26    28   ar
    21     3     4   ar
    22     4     5   ar
    23     5     6   ar
    24     6     7   ar
    25     7     8   ar
    26     8     9   ar
    27    20    14   ar
    28     9     1   ar
    29    28    22   ar
    30     9     5   ar
    31    12    13    1
@<TRIPOS>MOLECULE
*****
 28 31 0 0 0
SMALL
GASTEIGER

@<TRIPOS>ATOM
      1 C          -7.9100  -18.6715   21.6539 C.ar    1  UNL1        0.0912
      2 C          -8.0877  -18.0609   23.0125 C.ar    1  UNL1        0.0466
      3 C          -9.4643  -17.7530   23.5221 C.ar    1  UNL1        0.1631
      4 C         -10.6635  -18.0556   22.6732 C.ar    1  UNL1        0.1193
      5 N         -10.4858  -18.6661   21.3146 N.ar    1  UNL1       -0.2846
      6 C         -11.4721  -19.0723   20.2600 C.ar    1  UNL1        0.1023
      7 C         -10.7049  -19.6313   19.0986 C.ar    1  UNL1        0.1195
      8 N          -9.2444  -19.5706   19.4354 N.ar    1  UNL1       -0.2247
      9 C          -9.1090  -18.9740   20.8050 C.ar    1  UNL1        0.1524
     10 O          -6.3340  -20.0701   20.1339 O.2     1  UNL1       -0.2697
     11 C          -6.5332  -18.9794   21.1443 C.2     1  UNL1        0.2536
     12 N          -5.3556  -18.1967   21.6450 N.am    1  UNL1       -0.2657
     13 H          -5.4863  -17.4809   22.3081 H       1  UNL1        0.1566
     14 C          -3.9789  -18.5047   21.1353 C.ar    1  UNL1        0.1367
     15 C          -3.0487  -19.3515   21.9525 C.ar    1  UNL1        0.0346
     16 C          -1.6720  -19.6595   21.4429 C.ar    1  UNL1        0.0068
     17 C          -1.2254  -19.1209   20.1161 C.ar    1  UNL1        0.0498
     18 C          -2.1557  -18.2741   19.2989 C.ar    1  UNL1        0.2234
     19 F          -1.7091  -17.7355   17.9721 F       1  UNL1       -0.1832
     20 N          -3.5323  -17.9661   19.8085 N.ar    1  UNL1       -0.2029
     21 O          -9.6420  -17.1424   24.8807 O.3     1  UNL1       -0.4503
     22 C          -8.4755  -16.5034   25.5742 C.ar    1  UNL1        0.1667
     23 C          -8.4298  -16.4522   27.0726 C.ar    1  UNL1        0.1364
     24 N          -7.2633  -15.8132   27.7661 N.ar    1  UNL1       -0.2368
     25 C          -6.1424  -15.2254   26.9611 C.ar    1  UNL1        0.1286
     26 C          -6.1880  -15.2765   25.4627 C.ar    1  UNL1        0.1623
     27 F          -5.0671  -14.6887   24.6576 F       1  UNL1       -0.2024
     28 C          -7.3546  -15.9155   24.7692 C.ar    1  UNL1        0.0703
@<TRIPOS>BOND
     1    10    11    2
     2    11    12   am
     3    12    14    1
     4    14    15   ar
     5    15    16   ar
     6    16    17   ar
     7    17    18   ar
     8    18    19    1
     9    18    20   ar
    10    11     1    1
    11     1     2   ar
    12     2     3   ar
    13     3    21    1
    14    21    22    1
    15    22    23   ar
    16    23    24   ar
    17    24    25   ar
    18    25    26   ar
    19    26    27    1
    20    26    28   ar
    21     3     4   ar
    22     4     5   ar
    23     5     6   ar
    24     6     7   ar
    25     7     8   ar
    26     8     9   ar
    27    20    14   ar
    28     9     1   ar
    29    28    22   ar
    30     9     5   ar
    31    12    13    1
@<TRIPOS>MOLECULE
*****
 28 31 0 0 0
SMALL
GASTEIGER

@<TRIPOS>ATOM
      1 C           4.2022    0.4383   32.9663 C.ar    1  UNL1        0.0912
      2 C           4.4132    0.9135   34.3733 C.ar    1  UNL1        0.0466
      3 C           3.4365    1.8652   34.9979 C.ar    1  UNL1        0.1631
      4 C           2.2487    2.3418   34.2155 C.ar    1  UNL1        0.1193
      5 N           2.0377    1.8666   32.8085 N.ar    1  UNL1       -0.2846
      6 C           0.9679    2.1615   31.7993 C.ar    1  UNL1        0.1023
      7 C           1.2834    1.3920   30.5510 C.ar    1  UNL1        0.1195
      8 N           2.5483    0.6215   30.7887 N.ar    1  UNL1       -0.2247
      9 C           3.0145    0.9149   32.1839 C.ar    1  UNL1        0.1524
     10 O           5.5500   -0.3658   30.8958 O.2     1  UNL1       -0.2697
     11 C           5.1790   -0.5134   32.3417 C.2     1  UNL1        0.2536
     12 N           5.7849   -1.6126   33.1631 N.am    1  UNL1       -0.2657
     13 H           5.5414   -1.7095   34.1121 H       1  UNL1        0.1566
     14 C           6.7617   -2.5643   32.5384 C.ar    1  UNL1        0.1367
     15 C           8.2299   -2.2588   32.5680 C.ar    1  UNL1        0.0346
     16 C           9.2068   -3.2105   31.9434 C.ar    1  UNL1        0.0068
     17 C           8.7154   -4.4676   31.2891 C.ar    1  UNL1        0.0498
     18 C           7.2471   -4.7731   31.2595 C.ar    1  UNL1        0.2234
     19 F           6.7557   -6.0302   30.6052 F       1  UNL1       -0.1832
     20 N           6.2703   -3.8215   31.8841 N.ar    1  UNL1       -0.2029
     21 O           3.6474    2.3404   36.4050 O.3     1  UNL1       -0.4503
     22 C           2.5601    2.1719   37.4245 C.ar    1  UNL1        0.1667
     23 C           1.5823    3.2829   37.6687 C.ar    1  UNL1        0.1364
     24 N           0.4950    3.1144   38.6882 N.ar    1  UNL1       -0.2368
     25 C           0.3854    1.8350   39.4634 C.ar    1  UNL1        0.1286
     26 C           1.3632    0.7240   39.2192 C.ar    1  UNL1        0.1623
     27 F           1.2537   -0.5556   39.9943 F       1  UNL1       -0.2024
     28 C           2.4505    0.8925   38.1997 C.ar    1  UNL1        0.0703
@<TRIPOS>BOND
     1    10    11    2
     2    11    12   am
     3    12    14    1
     4    14    15   ar
     5    15    16   ar
     6    16    17   ar
     7    17    18   ar
     8    18    19    1
     9    18    20   ar
    10    11     1    1
    11     1     2   ar
    12     2     3   ar
    13     3    21    1
    14    21    22    1
    15    22    23   ar
    16    23    24   ar
    17    24    25   ar
    18    25    26   ar
    19    26    27    1
    20    26    28   ar
    21     3     4   ar
    22     4     5   ar
    23     5     6   ar
    24     6     7   ar
    25     7     8   ar
    26     8     9   ar
    27    20    14   ar
    28     9     1   ar
    29    28    22   ar
    30     9     5   ar
    31    12    13    1
