@<TRIPOS>MOLECULE
*****
 23 26 0 0 0
SMALL
GASTEIGER

@<TRIPOS>ATOM
      1 C          -4.7186  -17.9717   22.7548 C.3     1  UNL1        0.1119
      2 C          -6.0486  -18.3102   22.1492 C.ar    1  UNL1        0.0006
      3 C          -7.4378  -17.8275   22.4442 C.ar    1  UNL1        0.0090
      4 C          -8.5990  -18.3570   21.6559 C.ar    1  UNL1        0.0574
      5 CL         -9.9882  -17.8743   21.9509 Cl      1  UNL1       -0.0823
      6 C          -8.3708  -19.3692   20.5727 C.ar    1  UNL1        0.0114
      7 C          -6.9816  -19.8519   20.2777 C.ar    1  UNL1        0.0021
      8 C          -5.8204  -19.3224   21.0659 C.ar    1  UNL1        0.0152
      9 C          -4.3496  -19.6095   21.0020 C.ar    1  UNL1        0.0804
     10 C          -3.2996  -20.4125   20.2930 C.ar    1  UNL1        0.1177
     11 N          -1.9697  -20.0740   20.8987 N.ar    1  UNL1       -0.2223
     12 C          -2.1977  -19.0618   21.9819 C.ar    1  UNL1        0.1788
     13 N          -3.6686  -18.7747   22.0458 N.ar    1  UNL1       -0.3069
     14 C          -4.4805  -17.0007   23.8731 C.3     1  UNL1        0.0564
     15 O          -5.0932  -14.6474   22.9584 O.3     1  UNL1       -0.3844
     16 C          -5.2950  -15.7443   23.9615 C.3     1  UNL1        0.1127
     17 H          -4.4052  -14.9094   22.3268 H       1  UNL1        0.2103
     18 C          -6.3114  -15.5846   25.0531 C.3     1  UNL1        0.0270
     19 C          -5.8732  -15.5536   26.4872 C.3     1  UNL1        0.0024
     20 C          -6.8895  -15.3939   27.5788 C.3     1  UNL1        0.0001
     21 C          -8.3442  -15.2653   27.2362 C.3     1  UNL1        0.0000
     22 C          -8.7825  -15.2963   25.8019 C.3     1  UNL1        0.0001
     23 C          -7.7661  -15.4560   24.7104 C.3     1  UNL1        0.0024
@<TRIPOS>BOND
     1    15    16    1
     2    16    14    1
     3    14     1    1
     4     1     2    1
     5     2     3   ar
     6     3     4   ar
     7     4     5    1
     8     4     6   ar
     9     6     7   ar
    10     7     8   ar
    11     8     9    1
    12     9    10   ar
    13    10    11   ar
    14    11    12   ar
    15    12    13   ar
    16    16    18    1
    17    18    19    1
    18    19    20    1
    19    20    21    1
    20    21    22    1
    21    22    23    1
    22    13     1    1
    23    23    18    1
    24     8     2   ar
    25    13     9   ar
    26    15    17    1
@<TRIPOS>MOLECULE
*****
 23 26 0 0 0
SMALL
GASTEIGER

@<TRIPOS>ATOM
      1 C          -8.2926  -18.0144   21.8092 C.3     1  UNL1        0.1119
      2 C          -6.8695  -18.4819   21.7294 C.ar    1  UNL1        0.0006
      3 C          -5.6606  -18.1638   22.5585 C.ar    1  UNL1        0.0090
      4 C          -4.3404  -18.7976   22.2336 C.ar    1  UNL1        0.0574
      5 CL         -3.1315  -18.4795   23.0627 Cl      1  UNL1       -0.0823
      6 C          -4.2292  -19.7494   21.0797 C.ar    1  UNL1        0.0114
      7 C          -5.4381  -20.0675   20.2506 C.ar    1  UNL1        0.0021
      8 C          -6.7583  -19.4337   20.5754 C.ar    1  UNL1        0.0152
      9 C          -8.1126  -19.5545   19.9420 C.ar    1  UNL1        0.0804
     10 C          -8.8808  -20.2174   18.8373 C.ar    1  UNL1        0.1177
     11 N         -10.3038  -19.7500   18.9170 N.ar    1  UNL1       -0.2223
     12 C         -10.4151  -18.7981   20.0710 C.ar    1  UNL1        0.1788
     13 N          -9.0608  -18.6773   20.7045 N.ar    1  UNL1       -0.3069
     14 C          -8.8496  -17.0529   22.8167 C.3     1  UNL1        0.0564
     15 O          -7.7959  -14.7784   22.1336 O.3     1  UNL1       -0.3844
     16 C          -8.0811  -15.8165   23.1782 C.3     1  UNL1        0.1127
     17 H          -8.1751  -15.0597   21.2862 H       1  UNL1        0.2103
     18 C          -7.5978  -15.6181   24.5843 C.3     1  UNL1        0.0270
     19 C          -8.5709  -15.6610   25.7249 C.3     1  UNL1        0.0024
     20 C          -8.0876  -15.4626   27.1310 C.3     1  UNL1        0.0001
     21 C          -6.6311  -15.2213   27.3964 C.3     1  UNL1        0.0000
     22 C          -5.6579  -15.1783   26.2557 C.3     1  UNL1        0.0001
     23 C          -6.1413  -15.3767   24.8496 C.3     1  UNL1        0.0024
@<TRIPOS>BOND
     1    15    16    1
     2    16    14    1
     3    14     1    1
     4     1     2    1
     5     2     3   ar
     6     3     4   ar
     7     4     5    1
     8     4     6   ar
     9     6     7   ar
    10     7     8   ar
    11     8     9    1
    12     9    10   ar
    13    10    11   ar
    14    11    12   ar
    15    12    13   ar
    16    16    18    1
    17    18    19    1
    18    19    20    1
    19    20    21    1
    20    21    22    1
    21    22    23    1
    22    13     1    1
    23    23    18    1
    24     8     2   ar
    25    13     9   ar
    26    15    17    1
@<TRIPOS>MOLECULE
*****
 23 26 0 0 0
SMALL
GASTEIGER

@<TRIPOS>ATOM
      1 C          -8.2581  -17.9932   21.7360 C.3     1  UNL1        0.1119
      2 C          -7.9195  -17.1011   22.8935 C.ar    1  UNL1        0.0006
      3 C          -6.6071  -16.6529   23.4650 C.ar    1  UNL1        0.0090
      4 C          -6.5799  -15.7387   24.6540 C.ar    1  UNL1        0.0574
      5 CL         -5.2674  -15.2904   25.2254 Cl      1  UNL1       -0.0823
      6 C          -7.8650  -15.2729   25.2714 C.ar    1  UNL1        0.0114
      7 C          -9.1775  -15.7212   24.7000 C.ar    1  UNL1        0.0021
      8 C          -9.2048  -16.6353   23.5110 C.ar    1  UNL1        0.0152
      9 C         -10.3375  -17.2394   22.7352 C.ar    1  UNL1        0.0804
     10 C         -11.8319  -17.3249   22.6375 C.ar    1  UNL1        0.1177
     11 N         -12.1704  -18.2169   21.4800 N.ar    1  UNL1       -0.2223
     12 C         -10.8852  -18.6828   20.8625 C.ar    1  UNL1        0.1788
     13 N          -9.7524  -18.0786   21.6383 N.ar    1  UNL1       -0.3069
     14 C          -7.2748  -18.6793   20.8347 C.3     1  UNL1        0.0564
     15 O          -6.5982  -20.7278   22.2824 O.3     1  UNL1       -0.3844
     16 C          -6.2132  -19.5639   21.4180 C.3     1  UNL1        0.1127
     17 H          -7.5641  -20.7656   22.3623 H       1  UNL1        0.2103
     18 C          -4.7664  -19.2846   21.1370 C.3     1  UNL1        0.0270
     19 C          -4.2987  -19.1014   19.7237 C.3     1  UNL1        0.0024
     20 C          -2.8520  -18.8221   19.4427 C.3     1  UNL1        0.0001
     21 C          -1.8730  -18.7260   20.5750 C.3     1  UNL1        0.0000
     22 C          -2.3407  -18.9092   21.9885 C.3     1  UNL1        0.0001
     23 C          -3.7874  -19.1885   22.2695 C.3     1  UNL1        0.0024
@<TRIPOS>BOND
     1    15    16    1
     2    16    14    1
     3    14     1    1
     4     1     2    1
     5     2     3   ar
     6     3     4   ar
     7     4     5    1
     8     4     6   ar
     9     6     7   ar
    10     7     8   ar
    11     8     9    1
    12     9    10   ar
    13    10    11   ar
    14    11    12   ar
    15    12    13   ar
    16    16    18    1
    17    18    19    1
    18    19    20    1
    19    20    21    1
    20    21    22    1
    21    22    23    1
    22    13     1    1
    23    23    18    1
    24     8     2   ar
    25    13     9   ar
    26    15    17    1
@<TRIPOS>MOLECULE
*****
 23 26 0 0 0
SMALL
GASTEIGER

@<TRIPOS>ATOM
      1 C          -7.1850  -18.2248   22.6518 C.3     1  UNL1        0.1119
      2 C          -5.6943  -18.3045   22.5044 C.ar    1  UNL1        0.0006
      3 C          -4.8043  -19.3082   21.8331 C.ar    1  UNL1        0.0090
      4 C          -3.3162  -19.1202   21.8492 C.ar    1  UNL1        0.0574
      5 CL         -2.4262  -20.1239   21.1780 Cl      1  UNL1       -0.0823
      6 C          -2.7182  -17.9286   22.5365 C.ar    1  UNL1        0.0114
      7 C          -3.6082  -16.9250   23.2077 C.ar    1  UNL1        0.0021
      8 C          -5.0963  -17.1129   23.1917 C.ar    1  UNL1        0.0152
      9 C          -6.2172  -16.2967   23.7638 C.ar    1  UNL1        0.0804
     10 C          -6.5404  -15.0559   24.5422 C.ar    1  UNL1        0.1177
     11 N          -8.0310  -14.9762   24.6895 N.ar    1  UNL1       -0.2223
     12 C          -8.6291  -16.1678   24.0022 C.ar    1  UNL1        0.1788
     13 N          -7.5081  -16.9840   23.4301 N.ar    1  UNL1       -0.3069
     14 C          -8.1781  -19.2126   22.1150 C.3     1  UNL1        0.0564
     15 O          -9.0367  -20.8835   23.9097 O.3     1  UNL1       -0.3844
     16 C          -9.2817  -19.7202   22.9950 C.3     1  UNL1        0.1127
     17 H          -8.1207  -21.1865   23.8093 H       1  UNL1        0.2103
     18 C         -10.6303  -19.0644   22.9603 C.3     1  UNL1        0.0270
     19 C         -11.1801  -18.5481   21.6638 C.3     1  UNL1        0.0024
     20 C         -12.5287  -17.8923   21.6291 C.3     1  UNL1        0.0001
     21 C         -13.3276  -17.7530   22.8910 C.3     1  UNL1        0.0000
     22 C         -12.7778  -18.2693   24.1876 C.3     1  UNL1        0.0001
     23 C         -11.4292  -18.9251   24.2223 C.3     1  UNL1        0.0024
@<TRIPOS>BOND
     1    15    16    1
     2    16    14    1
     3    14     1    1
     4     1     2    1
     5     2     3   ar
     6     3     4   ar
     7     4     5    1
     8     4     6   ar
     9     6     7   ar
    10     7     8   ar
    11     8     9    1
    12     9    10   ar
    13    10    11   ar
    14    11    12   ar
    15    12    13   ar
    16    16    18    1
    17    18    19    1
    18    19    20    1
    19    20    21    1
    20    21    22    1
    21    22    23    1
    22    13     1    1
    23    23    18    1
    24     8     2   ar
    25    13     9   ar
    26    15    17    1
@<TRIPOS>MOLECULE
*****
 23 26 0 0 0
SMALL
GASTEIGER

@<TRIPOS>ATOM
      1 C          -7.3652  -18.3781   21.9725 C.3     1  UNL1        0.1119
      2 C          -5.9750  -18.8201   21.6232 C.ar    1  UNL1        0.0006
      3 C          -4.6495  -18.5785   22.2825 C.ar    1  UNL1        0.0090
      4 C          -3.4003  -19.1613   21.6909 C.ar    1  UNL1        0.0574
      5 CL         -2.0748  -18.9197   22.3502 Cl      1  UNL1       -0.0823
      6 C          -3.4767  -19.9856   20.4401 C.ar    1  UNL1        0.0114
      7 C          -4.8022  -20.2272   19.7808 C.ar    1  UNL1        0.0021
      8 C          -6.0514  -19.6445   20.3723 C.ar    1  UNL1        0.0152
      9 C          -7.4887  -19.7119   19.9486 C.ar    1  UNL1        0.0804
     10 C          -8.4242  -20.2630   18.9136 C.ar    1  UNL1        0.1177
     11 N          -9.8143  -19.8210   19.2630 N.ar    1  UNL1       -0.2223
     12 C          -9.7380  -18.9966   20.5138 C.ar    1  UNL1        0.1788
     13 N          -8.3007  -18.9292   20.9376 N.ar    1  UNL1       -0.3069
     14 C          -7.7520  -17.5332   23.1501 C.3     1  UNL1        0.0564
     15 O          -8.4986  -15.0804   22.7300 O.3     1  UNL1       -0.3844
     16 C          -8.8427  -16.5124   23.0148 C.3     1  UNL1        0.1127
     17 H          -7.5354  -14.9863   22.6637 H       1  UNL1        0.2103
     18 C         -10.2775  -16.9235   23.1643 C.3     1  UNL1        0.0270
     19 C         -11.3528  -16.1710   22.4381 C.3     1  UNL1        0.0024
     20 C         -12.7876  -16.5821   22.5876 C.3     1  UNL1        0.0001
     21 C         -13.1471  -17.7457   23.4632 C.3     1  UNL1        0.0000
     22 C         -12.0717  -18.4983   24.1893 C.3     1  UNL1        0.0001
     23 C         -10.6369  -18.0872   24.0399 C.3     1  UNL1        0.0024
@<TRIPOS>BOND
     1    15    16    1
     2    16    14    1
     3    14     1    1
     4     1     2    1
     5     2     3   ar
     6     3     4   ar
     7     4     5    1
     8     4     6   ar
     9     6     7   ar
    10     7     8   ar
    11     8     9    1
    12     9    10   ar
    13    10    11   ar
    14    11    12   ar
    15    12    13   ar
    16    16    18    1
    17    18    19    1
    18    19    20    1
    19    20    21    1
    20    21    22    1
    21    22    23    1
    22    13     1    1
    23    23    18    1
    24     8     2   ar
    25    13     9   ar
    26    15    17    1
@<TRIPOS>MOLECULE
*****
 23 26 0 0 0
SMALL
GASTEIGER

@<TRIPOS>ATOM
      1 C          -5.8994  -19.0300   21.9588 C.3     1  UNL1        0.1119
      2 C          -6.1469  -17.8265   22.8192 C.ar    1  UNL1        0.0006
      3 C          -7.4112  -17.1944   23.3212 C.ar    1  UNL1        0.0090
      4 C          -7.3459  -15.9687   24.1835 C.ar    1  UNL1        0.0574
      5 CL         -8.6102  -15.3366   24.6854 Cl      1  UNL1       -0.0823
      6 C          -6.0163  -15.3752   24.5437 C.ar    1  UNL1        0.0114
      7 C          -4.7520  -16.0073   24.0418 C.ar    1  UNL1        0.0021
      8 C          -4.8172  -17.2329   23.1795 C.ar    1  UNL1        0.0152
      9 C          -3.7480  -18.0696   22.5418 C.ar    1  UNL1        0.0804
     10 C          -2.2654  -18.2198   22.3703 C.ar    1  UNL1        0.1177
     11 N          -2.0179  -19.4233   21.5099 N.ar    1  UNL1       -0.2223
     12 C          -3.3475  -20.0169   21.1496 C.ar    1  UNL1        0.1788
     13 N          -4.4168  -19.1802   21.7873 N.ar    1  UNL1       -0.3069
     14 C          -6.9500  -19.9260   21.3727 C.3     1  UNL1        0.0564
     15 O          -7.7151  -19.0606   19.0455 O.3     1  UNL1       -0.3844
     16 C          -8.0152  -19.3525   20.4860 C.3     1  UNL1        0.1127
     17 H          -6.7948  -19.2988   18.8523 H       1  UNL1        0.2103
     18 C          -9.3805  -19.0708   21.0396 C.3     1  UNL1        0.0270
     19 C         -10.3461  -18.2273   20.2611 C.3     1  UNL1        0.0024
     20 C         -11.7115  -17.9456   20.8147 C.3     1  UNL1        0.0001
     21 C         -12.1112  -18.5075   22.1468 C.3     1  UNL1        0.0000
     22 C         -11.1456  -19.3510   22.9253 C.3     1  UNL1        0.0001
     23 C          -9.7803  -19.6327   22.3717 C.3     1  UNL1        0.0024
@<TRIPOS>BOND
     1    15    16    1
     2    16    14    1
     3    14     1    1
     4     1     2    1
     5     2     3   ar
     6     3     4   ar
     7     4     5    1
     8     4     6   ar
     9     6     7   ar
    10     7     8   ar
    11     8     9    1
    12     9    10   ar
    13    10    11   ar
    14    11    12   ar
    15    12    13   ar
    16    16    18    1
    17    18    19    1
    18    19    20    1
    19    20    21    1
    20    21    22    1
    21    22    23    1
    22    13     1    1
    23    23    18    1
    24     8     2   ar
    25    13     9   ar
    26    15    17    1
@<TRIPOS>MOLECULE
*****
 23 26 0 0 0
SMALL
GASTEIGER

@<TRIPOS>ATOM
      1 C          -6.6250  -18.0762   22.6960 C.3     1  UNL1        0.1119
      2 C          -8.1141  -18.2553   22.6660 C.ar    1  UNL1        0.0006
      3 C          -8.9855  -19.3146   22.0591 C.ar    1  UNL1        0.0090
      4 C         -10.4770  -19.2269   22.1940 C.ar    1  UNL1        0.0574
      5 CL        -11.3484  -20.2862   21.5871 Cl      1  UNL1       -0.0823
      6 C         -11.0967  -18.0799   22.9357 C.ar    1  UNL1        0.0114
      7 C         -10.2252  -17.0206   23.5426 C.ar    1  UNL1        0.0021
      8 C          -8.7338  -17.1083   23.4078 C.ar    1  UNL1        0.0152
      9 C          -7.6280  -16.2203   23.8962 C.ar    1  UNL1        0.0804
     10 C          -7.3276  -14.9626   24.6564 C.ar    1  UNL1        0.1177
     11 N          -5.8386  -14.7836   24.6864 N.ar    1  UNL1       -0.2223
     12 C          -5.2188  -15.9306   23.9447 C.ar    1  UNL1        0.1788
     13 N          -6.3246  -16.8186   23.4563 N.ar    1  UNL1       -0.3069
     14 C          -5.6140  -18.9938   22.0748 C.3     1  UNL1        0.0564
     15 O          -6.1460  -18.6854   19.5505 O.3     1  UNL1       -0.3844
     16 C          -5.1487  -18.7554   20.6689 C.3     1  UNL1        0.1127
     17 H          -7.0396  -18.8135   19.9056 H       1  UNL1        0.2103
     18 C          -3.6863  -18.5869   20.3812 C.3     1  UNL1        0.0270
     19 C          -2.6720  -18.9095   21.4381 C.3     1  UNL1        0.0024
     20 C          -1.2095  -18.7411   21.1504 C.3     1  UNL1        0.0001
     21 C          -0.7613  -18.2500   19.8058 C.3     1  UNL1        0.0000
     22 C          -1.7756  -17.9274   18.7488 C.3     1  UNL1        0.0001
     23 C          -3.2381  -18.0959   19.0365 C.3     1  UNL1        0.0024
@<TRIPOS>BOND
     1    15    16    1
     2    16    14    1
     3    14     1    1
     4     1     2    1
     5     2     3   ar
     6     3     4   ar
     7     4     5    1
     8     4     6   ar
     9     6     7   ar
    10     7     8   ar
    11     8     9    1
    12     9    10   ar
    13    10    11   ar
    14    11    12   ar
    15    12    13   ar
    16    16    18    1
    17    18    19    1
    18    19    20    1
    19    20    21    1
    20    21    22    1
    21    22    23    1
    22    13     1    1
    23    23    18    1
    24     8     2   ar
    25    13     9   ar
    26    15    17    1
@<TRIPOS>MOLECULE
*****
 23 26 0 0 0
SMALL
GASTEIGER

@<TRIPOS>ATOM
      1 C          -6.9671  -19.0517   21.7712 C.3     1  UNL1        0.1119
      2 C          -6.5327  -17.9081   22.6395 C.ar    1  UNL1        0.0006
      3 C          -7.3089  -16.8957   23.4284 C.ar    1  UNL1        0.0090
      4 C          -6.5855  -15.8463   24.2194 C.ar    1  UNL1        0.0574
      5 CL         -7.3617  -14.8339   25.0084 Cl      1  UNL1       -0.0823
      6 C          -5.0860  -15.8095   24.2214 C.ar    1  UNL1        0.0114
      7 C          -4.3098  -16.8219   23.4324 C.ar    1  UNL1        0.0021
      8 C          -5.0331  -17.8713   22.6414 C.ar    1  UNL1        0.0152
      9 C          -4.5407  -18.9920   21.7745 C.ar    1  UNL1        0.0804
     10 C          -3.3096  -19.6618   21.2400 C.ar    1  UNL1        0.1177
     11 N          -3.7440  -20.8053   20.3718 N.ar    1  UNL1       -0.2223
     12 C          -5.2436  -20.8422   20.3698 C.ar    1  UNL1        0.1788
     13 N          -5.7360  -19.7215   21.2367 N.ar    1  UNL1       -0.3069
     14 C          -8.3838  -19.4546   21.4874 C.3     1  UNL1        0.0564
     15 O          -8.9307  -20.7218   23.6887 O.3     1  UNL1       -0.3844
     16 C          -9.3227  -19.7438   22.6209 C.3     1  UNL1        0.1127
     17 H          -8.0472  -21.0732   23.4967 H       1  UNL1        0.2103
     18 C         -10.6536  -19.0551   22.6867 C.3     1  UNL1        0.0270
     19 C         -11.2773  -18.5074   21.4373 C.3     1  UNL1        0.0024
     20 C         -12.6082  -17.8188   21.5031 C.3     1  UNL1        0.0001
     21 C         -13.3155  -17.6778   22.8183 C.3     1  UNL1        0.0000
     22 C         -12.6919  -18.2255   24.0678 C.3     1  UNL1        0.0001
     23 C         -11.3610  -18.9142   24.0020 C.3     1  UNL1        0.0024
@<TRIPOS>BOND
     1    15    16    1
     2    16    14    1
     3    14     1    1
     4     1     2    1
     5     2     3   ar
     6     3     4   ar
     7     4     5    1
     8     4     6   ar
     9     6     7   ar
    10     7     8   ar
    11     8     9    1
    12     9    10   ar
    13    10    11   ar
    14    11    12   ar
    15    12    13   ar
    16    16    18    1
    17    18    19    1
    18    19    20    1
    19    20    21    1
    20    21    22    1
    21    22    23    1
    22    13     1    1
    23    23    18    1
    24     8     2   ar
    25    13     9   ar
    26    15    17    1
@<TRIPOS>MOLECULE
*****
 23 26 0 0 0
SMALL
GASTEIGER

@<TRIPOS>ATOM
      1 C          -6.4349  -18.9829   21.8282 C.3     1  UNL1        0.1119
      2 C          -6.3033  -17.7901   22.7283 C.ar    1  UNL1        0.0006
      3 C          -7.3256  -16.9060   23.3788 C.ar    1  UNL1        0.0090
      4 C          -6.8863  -15.7634   24.2458 C.ar    1  UNL1        0.0574
      5 CL         -7.9086  -14.8793   24.8963 Cl      1  UNL1       -0.0823
      6 C          -5.4246  -15.5051   24.4621 C.ar    1  UNL1        0.0114
      7 C          -4.4023  -16.3892   23.8116 C.ar    1  UNL1        0.0021
      8 C          -4.8416  -17.5317   22.9447 C.ar    1  UNL1        0.0152
      9 C          -4.0698  -18.5647   22.1784 C.ar    1  UNL1        0.0804
     10 C          -2.6895  -19.0434   21.8385 C.ar    1  UNL1        0.1177
     11 N          -2.8211  -20.2361   20.9384 N.ar    1  UNL1       -0.2223
     12 C          -4.2827  -20.4945   20.7220 C.ar    1  UNL1        0.1788
     13 N          -5.0545  -19.4615   21.4883 N.ar    1  UNL1       -0.3069
     14 C          -7.7210  -19.5902   21.3516 C.3     1  UNL1        0.0564
     15 O          -8.7886  -20.5616   23.5119 O.3     1  UNL1       -0.3844
     16 C          -8.8888  -19.7027   22.2861 C.3     1  UNL1        0.1127
     17 H          -7.9096  -20.9698   23.5496 H       1  UNL1        0.2103
     18 C         -10.1570  -18.9563   21.9950 C.3     1  UNL1        0.0270
     19 C         -11.2058  -18.8163   23.0581 C.3     1  UNL1        0.0024
     20 C         -12.4740  -18.0700   22.7669 C.3     1  UNL1        0.0001
     21 C         -12.6932  -17.4636   21.4126 C.3     1  UNL1        0.0000
     22 C         -11.6444  -17.6036   20.3494 C.3     1  UNL1        0.0001
     23 C         -10.3762  -18.3499   20.6406 C.3     1  UNL1        0.0024
@<TRIPOS>BOND
     1    15    16    1
     2    16    14    1
     3    14     1    1
     4     1     2    1
     5     2     3   ar
     6     3     4   ar
     7     4     5    1
     8     4     6   ar
     9     6     7   ar
    10     7     8   ar
    11     8     9    1
    12     9    10   ar
    13    10    11   ar
    14    11    12   ar
    15    12    13   ar
    16    16    18    1
    17    18    19    1
    18    19    20    1
    19    20    21    1
    20    21    22    1
    21    22    23    1
    22    13     1    1
    23    23    18    1
    24     8     2   ar
    25    13     9   ar
    26    15    17    1
