@<TRIPOS>MOLECULE
*****
 23 25 0 0 0
SMALL
GASTEIGER

@<TRIPOS>ATOM
      1 N         -14.4196  -18.0300   24.7915 N.pl3   1  UNL1       -0.3375
      2 C         -13.2684  -18.1787   23.8415 C.ar    1  UNL1        0.1567
      3 N         -13.3165  -17.9645   22.3576 N.ar    1  UNL1       -0.2245
      4 C         -11.9448  -18.2212   21.8075 C.ar    1  UNL1        0.0892
      5 C         -11.3957  -18.1636   20.4129 C.ar    1  UNL1        0.0198
      6 C          -9.9509  -18.4789   20.1621 C.ar    1  UNL1        0.0061
      7 C          -9.0551  -18.8518   21.3060 C.ar    1  UNL1        0.0539
      8 C          -9.6041  -18.9094   22.7006 C.ar    1  UNL1        0.0126
      9 C         -11.0490  -18.5941   22.9514 C.ar    1  UNL1        0.0498
     10 S         -11.8670  -18.5678   24.2084 S.2     1  UNL1       -0.0520
     11 H         -15.3066  -17.7692   24.4531 H       1  UNL1        0.1442
     12 H         -14.2883  -18.1931   25.7535 H       1  UNL1        0.1442
     13 C          -7.6101  -19.1671   21.0551 C.2     1  UNL1        0.2459
     14 O          -7.0130  -18.9214   19.7012 O.2     1  UNL1       -0.2701
     15 N          -6.7624  -19.7280   22.1581 N.am    1  UNL1       -0.3005
     16 H          -7.1544  -19.8893   23.0467 H       1  UNL1        0.1498
     17 C          -5.3175  -20.0433   21.9073 C.3     1  UNL1        0.0949
     18 C          -4.2607  -19.0315   22.2379 C.3     1  UNL1        0.0542
     19 C          -3.3128  -18.5622   21.1743 C.ar    1  UNL1        0.0090
     20 C          -3.3305  -18.9759   19.7326 C.ar    1  UNL1        0.0027
     21 C          -2.2094  -18.2662   19.0329 C.ar    1  UNL1        0.0072
     22 C          -1.4988  -17.4140   20.0423 C.ar    1  UNL1        0.0351
     23 S          -2.1808  -17.5969   21.3657 S.2     1  UNL1       -0.0907
@<TRIPOS>BOND
     1     1     2    1
     2     2     3   ar
     3     3     4   ar
     4     4     5   ar
     5     5     6   ar
     6     6     7   ar
     7     7    13    1
     8    13    14    2
     9    13    15   am
    10    15    17    1
    11    17    18    1
    12    18    19    1
    13    19    20   ar
    14    20    21   ar
    15    21    22   ar
    16    22    23   ar
    17     7     8   ar
    18     8     9   ar
    19     9    10   ar
    20    10     2   ar
    21     9     4   ar
    22    23    19   ar
    23     1    11    1
    24     1    12    1
    25    15    16    1
@<TRIPOS>MOLECULE
*****
 23 25 0 0 0
SMALL
GASTEIGER

@<TRIPOS>ATOM
      1 N         -14.2836  -17.8027   24.2393 N.pl3   1  UNL1       -0.3375
      2 C         -12.9207  -18.2728   23.8251 C.ar    1  UNL1        0.1567
      3 N         -12.0115  -19.1564   24.6267 N.ar    1  UNL1       -0.2245
      4 C         -10.7566  -19.3715   23.8336 C.ar    1  UNL1        0.0892
      5 C          -9.5095  -20.1540   24.1209 C.ar    1  UNL1        0.0198
      6 C          -8.3961  -20.1858   23.1163 C.ar    1  UNL1        0.0061
      7 C          -8.5298  -19.4352   21.8245 C.ar    1  UNL1        0.0539
      8 C          -9.7769  -18.6528   21.5373 C.ar    1  UNL1        0.0126
      9 C         -10.8903  -18.6209   22.5418 C.ar    1  UNL1        0.0498
     10 S         -12.2278  -17.9419   22.5366 S.2     1  UNL1       -0.0520
     11 H         -14.6549  -18.0750   25.1095 H       1  UNL1        0.1442
     12 H         -14.8068  -17.2217   23.6409 H       1  UNL1        0.1442
     13 C          -7.4163  -19.4671   20.8199 C.2     1  UNL1        0.2459
     14 O          -7.6736  -19.0517   19.4017 O.2     1  UNL1       -0.2701
     15 N          -6.0455  -19.9142   21.2335 N.am    1  UNL1       -0.3005
     16 H          -5.8767  -20.1868   22.1643 H       1  UNL1        0.1498
     17 C          -4.9320  -19.9461   20.2289 C.3     1  UNL1        0.0949
     18 C          -3.5050  -19.9484   20.6909 C.3     1  UNL1        0.0542
     19 C          -2.7827  -18.6507   20.9013 C.ar    1  UNL1        0.0090
     20 C          -3.0070  -17.6900   22.0313 C.ar    1  UNL1        0.0027
     21 C          -2.0723  -16.5314   21.8471 C.ar    1  UNL1        0.0072
     22 C          -1.2704  -16.7761   20.6032 C.ar    1  UNL1        0.0351
     23 S          -1.7095  -18.0858   20.0187 S.2     1  UNL1       -0.0907
@<TRIPOS>BOND
     1     1     2    1
     2     2     3   ar
     3     3     4   ar
     4     4     5   ar
     5     5     6   ar
     6     6     7   ar
     7     7    13    1
     8    13    14    2
     9    13    15   am
    10    15    17    1
    11    17    18    1
    12    18    19    1
    13    19    20   ar
    14    20    21   ar
    15    21    22   ar
    16    22    23   ar
    17     7     8   ar
    18     8     9   ar
    19     9    10   ar
    20    10     2   ar
    21     9     4   ar
    22    23    19   ar
    23     1    11    1
    24     1    12    1
    25    15    16    1
@<TRIPOS>MOLECULE
*****
 23 25 0 0 0
SMALL
GASTEIGER

@<TRIPOS>ATOM
      1 N         -12.8521  -17.7496   21.0998 N.pl3   1  UNL1       -0.3375
      2 C         -11.5873  -17.3635   21.8077 C.ar    1  UNL1        0.1567
      3 N         -11.4961  -16.6681   23.1337 N.ar    1  UNL1       -0.2245
      4 C         -10.0441  -16.4799   23.4595 C.ar    1  UNL1        0.0892
      5 C          -9.3519  -15.8560   24.6349 C.ar    1  UNL1        0.0198
      6 C          -7.8534  -15.8112   24.6857 C.ar    1  UNL1        0.0061
      7 C          -7.0472  -16.3903   23.5612 C.ar    1  UNL1        0.0539
      8 C          -7.7394  -17.0142   22.3858 C.ar    1  UNL1        0.0126
      9 C          -9.2378  -17.0590   22.3349 C.ar    1  UNL1        0.0498
     10 S         -10.1916  -17.6051   21.3141 S.2     1  UNL1       -0.0520
     11 H         -13.7254  -17.5471   21.5066 H       1  UNL1        0.1442
     12 H         -12.8089  -18.2054   20.2282 H       1  UNL1        0.1442
     13 C          -5.5487  -16.3455   23.6121 C.2     1  UNL1        0.2459
     14 O          -4.8454  -15.0445   23.8627 O.2     1  UNL1       -0.2701
     15 N          -4.7536  -17.6016   23.4123 N.am    1  UNL1       -0.3005
     16 H          -5.2152  -18.4555   23.2479 H       1  UNL1        0.1498
     17 C          -3.2550  -17.5568   23.4632 C.3     1  UNL1        0.0949
     18 C          -2.4908  -16.8121   22.4091 C.3     1  UNL1        0.0542
     19 C          -2.2793  -17.4300   21.0588 C.ar    1  UNL1        0.0090
     20 C          -3.1815  -18.4273   20.3944 C.ar    1  UNL1        0.0027
     21 C          -2.5883  -18.7728   19.0607 C.ar    1  UNL1        0.0072
     22 C          -1.3193  -17.9891   18.9009 C.ar    1  UNL1        0.0351
     23 S          -1.1283  -17.1592   20.1358 S.2     1  UNL1       -0.0907
@<TRIPOS>BOND
     1     1     2    1
     2     2     3   ar
     3     3     4   ar
     4     4     5   ar
     5     5     6   ar
     6     6     7   ar
     7     7    13    1
     8    13    14    2
     9    13    15   am
    10    15    17    1
    11    17    18    1
    12    18    19    1
    13    19    20   ar
    14    20    21   ar
    15    21    22   ar
    16    22    23   ar
    17     7     8   ar
    18     8     9   ar
    19     9    10   ar
    20    10     2   ar
    21     9     4   ar
    22    23    19   ar
    23     1    11    1
    24     1    12    1
    25    15    16    1
@<TRIPOS>MOLECULE
*****
 23 25 0 0 0
SMALL
GASTEIGER

@<TRIPOS>ATOM
      1 N         -13.3391  -18.0286   23.1195 N.pl3   1  UNL1       -0.3375
      2 C         -11.8440  -17.9602   23.0194 C.ar    1  UNL1        0.1567
      3 N         -10.9821  -16.8151   23.4618 N.ar    1  UNL1       -0.2245
      4 C          -9.5537  -17.1721   23.1751 C.ar    1  UNL1        0.0892
      5 C          -8.2695  -16.4300   23.3982 C.ar    1  UNL1        0.0198
      6 C          -6.9642  -17.0537   23.0016 C.ar    1  UNL1        0.0061
      7 C          -6.9433  -18.4196   22.3820 C.ar    1  UNL1        0.0539
      8 C          -8.2276  -19.1618   22.1590 C.ar    1  UNL1        0.0126
      9 C          -9.5328  -18.5380   22.5555 C.ar    1  UNL1        0.0498
     10 S         -10.9483  -19.0251   22.4593 S.2     1  UNL1       -0.0520
     11 H         -13.8417  -17.2746   23.5046 H       1  UNL1        0.1442
     12 H         -13.8179  -18.8274   22.8002 H       1  UNL1        0.1442
     13 C          -5.6380  -19.0434   21.9855 C.2     1  UNL1        0.2459
     14 O          -4.5316  -19.1705   22.9904 O.2     1  UNL1       -0.2701
     15 N          -5.4391  -19.5400   20.5842 N.am    1  UNL1       -0.3005
     16 H          -6.1653  -19.4566   19.9247 H       1  UNL1        0.1498
     17 C          -4.1338  -20.1638   20.1877 C.3     1  UNL1        0.0949
     18 C          -3.2003  -19.4308   19.2705 C.3     1  UNL1        0.0542
     19 C          -2.2651  -18.3962   19.8226 C.ar    1  UNL1        0.0090
     20 C          -2.6149  -17.3369   20.8254 C.ar    1  UNL1        0.0027
     21 C          -1.3819  -16.5252   21.0914 C.ar    1  UNL1        0.0072
     22 C          -0.2700  -17.0829   20.2531 C.ar    1  UNL1        0.0351
     23 S          -0.8159  -18.2392   19.4689 S.2     1  UNL1       -0.0907
@<TRIPOS>BOND
     1     1     2    1
     2     2     3   ar
     3     3     4   ar
     4     4     5   ar
     5     5     6   ar
     6     6     7   ar
     7     7    13    1
     8    13    14    2
     9    13    15   am
    10    15    17    1
    11    17    18    1
    12    18    19    1
    13    19    20   ar
    14    20    21   ar
    15    21    22   ar
    16    22    23   ar
    17     7     8   ar
    18     8     9   ar
    19     9    10   ar
    20    10     2   ar
    21     9     4   ar
    22    23    19   ar
    23     1    11    1
    24     1    12    1
    25    15    16    1
@<TRIPOS>MOLECULE
*****
 23 25 0 0 0
SMALL
GASTEIGER

@<TRIPOS>ATOM
      1 N         -13.2927  -16.6868   20.8711 N.pl3   1  UNL1       -0.3375
      2 C         -12.0589  -17.4514   21.2494 C.ar    1  UNL1        0.1567
      3 N         -11.9129  -18.3592   22.4346 N.ar    1  UNL1       -0.2245
      4 C         -10.5183  -18.9114   22.4266 C.ar    1  UNL1        0.0892
      5 C          -9.8078  -19.8569   23.3492 C.ar    1  UNL1        0.0198
      6 C          -8.3814  -20.2358   23.0818 C.ar    1  UNL1        0.0061
      7 C          -7.6654  -19.6692   21.8917 C.ar    1  UNL1        0.0539
      8 C          -8.3758  -18.7238   20.9690 C.ar    1  UNL1        0.0126
      9 C          -9.8023  -18.3449   21.2365 C.ar    1  UNL1        0.0498
     10 S         -10.7544  -17.4425   20.5090 S.2     1  UNL1       -0.0520
     11 H         -14.1045  -16.7579   21.4234 H       1  UNL1        0.1442
     12 H         -13.2906  -16.1138   20.0705 H       1  UNL1        0.1442
     13 C          -6.2388  -20.0482   21.6242 C.2     1  UNL1        0.2459
     14 O          -5.9162  -21.0447   20.5505 O.2     1  UNL1       -0.2701
     15 N          -5.1350  -19.4307   22.4305 N.am    1  UNL1       -0.3005
     16 H          -5.3467  -18.7766   23.1352 H       1  UNL1        0.1498
     17 C          -3.7084  -19.8096   22.1631 C.3     1  UNL1        0.0949
     18 C          -2.6511  -18.7481   22.0919 C.3     1  UNL1        0.0542
     19 C          -2.0876  -18.3388   20.7634 C.ar    1  UNL1        0.0090
     20 C          -0.6676  -17.9375   20.4939 C.ar    1  UNL1        0.0027
     21 C          -0.5474  -17.6097   19.0351 C.ar    1  UNL1        0.0072
     22 C          -1.8932  -17.8084   18.4030 C.ar    1  UNL1        0.0351
     23 S          -2.8450  -18.2590   19.4712 S.2     1  UNL1       -0.0907
@<TRIPOS>BOND
     1     1     2    1
     2     2     3   ar
     3     3     4   ar
     4     4     5   ar
     5     5     6   ar
     6     6     7   ar
     7     7    13    1
     8    13    14    2
     9    13    15   am
    10    15    17    1
    11    17    18    1
    12    18    19    1
    13    19    20   ar
    14    20    21   ar
    15    21    22   ar
    16    22    23   ar
    17     7     8   ar
    18     8     9   ar
    19     9    10   ar
    20    10     2   ar
    21     9     4   ar
    22    23    19   ar
    23     1    11    1
    24     1    12    1
    25    15    16    1
@<TRIPOS>MOLECULE
*****
 23 25 0 0 0
SMALL
GASTEIGER

@<TRIPOS>ATOM
      1 N         -14.0765  -18.0375   23.6596 N.pl3   1  UNL1       -0.3375
      2 C         -12.6254  -17.8251   23.3447 C.ar    1  UNL1        0.1567
      3 N         -12.0407  -16.6364   22.6412 N.ar    1  UNL1       -0.2245
      4 C         -10.5581  -16.8407   22.5397 C.ar    1  UNL1        0.0892
      5 C          -9.4672  -15.9993   21.9466 C.ar    1  UNL1        0.0198
      6 C          -8.0448  -16.4729   21.9943 C.ar    1  UNL1        0.0061
      7 C          -7.7132  -17.7880   22.6351 C.ar    1  UNL1        0.0539
      8 C          -8.8041  -18.6294   23.2282 C.ar    1  UNL1        0.0126
      9 C         -10.2266  -18.1558   23.1805 C.ar    1  UNL1        0.0498
     10 S         -11.5042  -18.7642   23.6780 S.2     1  UNL1       -0.0520
     11 H         -14.7412  -17.3597   23.3987 H       1  UNL1        0.1442
     12 H         -14.3643  -18.8547   24.1272 H       1  UNL1        0.1442
     13 C          -6.2907  -18.2615   22.6828 C.2     1  UNL1        0.2459
     14 O          -5.9323  -19.6147   22.1439 O.2     1  UNL1       -0.2701
     15 N          -5.2267  -17.3820   23.2693 N.am    1  UNL1       -0.3005
     16 H          -5.4619  -16.4938   23.6230 H       1  UNL1        0.1498
     17 C          -3.8041  -17.8555   23.3170 C.3     1  UNL1        0.0949
     18 C          -2.7660  -17.1997   22.4556 C.3     1  UNL1        0.0542
     19 C          -2.5255  -17.6969   21.0610 C.ar    1  UNL1        0.0090
     20 C          -1.7788  -16.9698   19.9822 C.ar    1  UNL1        0.0027
     21 C          -1.7812  -17.8321   18.7548 C.ar    1  UNL1        0.0072
     22 C          -2.5294  -19.0921   19.0751 C.ar    1  UNL1        0.0351
     23 S          -2.9894  -19.0085   20.5004 S.2     1  UNL1       -0.0907
@<TRIPOS>BOND
     1     1     2    1
     2     2     3   ar
     3     3     4   ar
     4     4     5   ar
     5     5     6   ar
     6     6     7   ar
     7     7    13    1
     8    13    14    2
     9    13    15   am
    10    15    17    1
    11    17    18    1
    12    18    19    1
    13    19    20   ar
    14    20    21   ar
    15    21    22   ar
    16    22    23   ar
    17     7     8   ar
    18     8     9   ar
    19     9    10   ar
    20    10     2   ar
    21     9     4   ar
    22    23    19   ar
    23     1    11    1
    24     1    12    1
    25    15    16    1
@<TRIPOS>MOLECULE
*****
 23 25 0 0 0
SMALL
GASTEIGER

@<TRIPOS>ATOM
      1 N         -19.9717   -9.8589   20.0853 N.pl3   1  UNL1       -0.3375
      2 C         -18.7336   -9.0639   19.7936 C.ar    1  UNL1        0.1567
      3 N         -18.5939   -7.5750   19.9101 N.ar    1  UNL1       -0.2245
      4 C         -17.1917   -7.2092   19.5226 C.ar    1  UNL1        0.0892
      5 C         -16.4829   -5.8894   19.4479 C.ar    1  UNL1        0.0198
      6 C         -15.0473   -5.8325   19.0172 C.ar    1  UNL1        0.0061
      7 C         -14.3204   -7.0953   18.6613 C.ar    1  UNL1        0.0539
      8 C         -15.0291   -8.4152   18.7359 C.ar    1  UNL1        0.0126
      9 C         -16.4648   -8.4721   19.1666 C.ar    1  UNL1        0.0498
     10 S         -17.4177   -9.6184   19.3341 S.2     1  UNL1       -0.0520
     11 H         -20.7912   -9.4019   20.3834 H       1  UNL1        0.1442
     12 H         -19.9649  -10.8375   19.9788 H       1  UNL1        0.1442
     13 C         -12.8846   -7.0383   18.2306 C.2     1  UNL1        0.2459
     14 O         -12.5336   -6.5653   16.8510 O.2     1  UNL1       -0.2701
     15 N         -11.7999   -7.4543   19.1794 N.am    1  UNL1       -0.3005
     16 H         -12.0302   -7.7648   20.0848 H       1  UNL1        0.1498
     17 C         -10.3641   -7.3973   18.7487 C.3     1  UNL1        0.0949
     18 C          -9.5506   -6.1648   19.0115 C.3     1  UNL1        0.0542
     19 C          -9.8036   -4.9163   18.2196 C.ar    1  UNL1        0.0090
     20 C          -9.1538   -4.5509   16.9179 C.ar    1  UNL1        0.0027
     21 C          -9.6994   -3.2228   16.4842 C.ar    1  UNL1        0.0072
     22 C         -10.6865   -2.7672   17.5178 C.ar    1  UNL1        0.0351
     23 S         -10.7509   -3.8139   18.5903 S.2     1  UNL1       -0.0907
@<TRIPOS>BOND
     1     1     2    1
     2     2     3   ar
     3     3     4   ar
     4     4     5   ar
     5     5     6   ar
     6     6     7   ar
     7     7    13    1
     8    13    14    2
     9    13    15   am
    10    15    17    1
    11    17    18    1
    12    18    19    1
    13    19    20   ar
    14    20    21   ar
    15    21    22   ar
    16    22    23   ar
    17     7     8   ar
    18     8     9   ar
    19     9    10   ar
    20    10     2   ar
    21     9     4   ar
    22    23    19   ar
    23     1    11    1
    24     1    12    1
    25    15    16    1
@<TRIPOS>MOLECULE
*****
 23 25 0 0 0
SMALL
GASTEIGER

@<TRIPOS>ATOM
      1 N         -13.7416  -17.7951   24.1131 N.pl3   1  UNL1       -0.3375
      2 C         -12.6367  -18.1123   23.1495 C.ar    1  UNL1        0.1567
      3 N         -12.7805  -18.2737   21.6652 N.ar    1  UNL1       -0.2245
      4 C         -11.4267  -18.5849   21.0994 C.ar    1  UNL1        0.0892
      5 C         -10.9601  -18.8442   19.6976 C.ar    1  UNL1        0.0198
      6 C          -9.5129  -19.1343   19.4304 C.ar    1  UNL1        0.0061
      7 C          -8.5323  -19.1652   20.5651 C.ar    1  UNL1        0.0539
      8 C          -8.9988  -18.9060   21.9669 C.ar    1  UNL1        0.0126
      9 C         -10.4460  -18.6158   22.2340 C.ar    1  UNL1        0.0498
     10 S         -11.1939  -18.3237   23.5011 S.2     1  UNL1       -0.0520
     11 H         -14.6616  -17.6734   23.7844 H       1  UNL1        0.1442
     12 H         -13.5468  -17.7086   25.0743 H       1  UNL1        0.1442
     13 C          -7.0850  -19.4554   20.2979 C.2     1  UNL1        0.2459
     14 O          -6.2244  -18.4245   19.6295 O.2     1  UNL1       -0.2701
     15 N          -6.4984  -20.7763   20.6990 N.am    1  UNL1       -0.3005
     16 H          -7.0633  -21.4529   21.1377 H       1  UNL1        0.1498
     17 C          -5.0512  -21.0665   20.4318 C.3     1  UNL1        0.0949
     18 C          -4.0868  -19.9375   20.2188 C.3     1  UNL1        0.0542
     19 C          -3.6100  -19.1278   21.3880 C.ar    1  UNL1        0.0090
     20 C          -4.3970  -18.8208   22.6275 C.ar    1  UNL1        0.0027
     21 C          -3.5358  -17.9862   23.5285 C.ar    1  UNL1        0.0072
     22 C          -2.2165  -17.7775   22.8459 C.ar    1  UNL1        0.0351
     23 S          -2.2624  -18.4830   21.5230 S.2     1  UNL1       -0.0907
@<TRIPOS>BOND
     1     1     2    1
     2     2     3   ar
     3     3     4   ar
     4     4     5   ar
     5     5     6   ar
     6     6     7   ar
     7     7    13    1
     8    13    14    2
     9    13    15   am
    10    15    17    1
    11    17    18    1
    12    18    19    1
    13    19    20   ar
    14    20    21   ar
    15    21    22   ar
    16    22    23   ar
    17     7     8   ar
    18     8     9   ar
    19     9    10   ar
    20    10     2   ar
    21     9     4   ar
    22    23    19   ar
    23     1    11    1
    24     1    12    1
    25    15    16    1
@<TRIPOS>MOLECULE
*****
 23 25 0 0 0
SMALL
GASTEIGER

@<TRIPOS>ATOM
      1 N          -6.8662  -14.1972   28.0615 N.pl3   1  UNL1       -0.3375
      2 C          -7.2413  -14.9981   26.8499 C.ar    1  UNL1        0.1567
      3 N          -8.6193  -15.4779   26.5021 N.ar    1  UNL1       -0.2245
      4 C          -8.5339  -16.2361   25.2107 C.ar    1  UNL1        0.0892
      5 C          -9.5741  -16.9353   24.3866 C.ar    1  UNL1        0.0198
      6 C          -9.1835  -17.6233   23.1123 C.ar    1  UNL1        0.0061
      7 C          -7.7528  -17.6121   22.6619 C.ar    1  UNL1        0.0539
      8 C          -6.7126  -16.9130   23.4860 C.ar    1  UNL1        0.0126
      9 C          -7.1031  -16.2250   24.7603 C.ar    1  UNL1        0.0498
     10 S          -6.3043  -15.4598   25.7735 S.2     1  UNL1       -0.0520
     11 H          -7.5564  -13.9407   28.7150 H       1  UNL1        0.1442
     12 H          -5.9299  -13.9280   28.2031 H       1  UNL1        0.1442
     13 C          -7.3623  -18.3002   21.3875 C.2     1  UNL1        0.2459
     14 O          -8.3848  -18.5264   20.3135 O.2     1  UNL1       -0.2701
     15 N          -5.9493  -18.7620   21.1870 N.am    1  UNL1       -0.3005
     16 H          -5.2782  -18.6135   21.8919 H       1  UNL1        0.1498
     17 C          -5.5588  -19.4500   19.9126 C.3     1  UNL1        0.0949
     18 C          -4.1689  -19.9893   19.7468 C.3     1  UNL1        0.0542
     19 C          -2.9868  -19.0836   19.9262 C.ar    1  UNL1        0.0090
     20 C          -2.3936  -18.1899   18.8777 C.ar    1  UNL1        0.0027
     21 C          -1.2304  -17.4666   19.4891 C.ar    1  UNL1        0.0072
     22 C          -1.1047  -17.9134   20.9156 C.ar    1  UNL1        0.0351
     23 S          -2.1902  -18.9128   21.1857 S.2     1  UNL1       -0.0907
@<TRIPOS>BOND
     1     1     2    1
     2     2     3   ar
     3     3     4   ar
     4     4     5   ar
     5     5     6   ar
     6     6     7   ar
     7     7    13    1
     8    13    14    2
     9    13    15   am
    10    15    17    1
    11    17    18    1
    12    18    19    1
    13    19    20   ar
    14    20    21   ar
    15    21    22   ar
    16    22    23   ar
    17     7     8   ar
    18     8     9   ar
    19     9    10   ar
    20    10     2   ar
    21     9     4   ar
    22    23    19   ar
    23     1    11    1
    24     1    12    1
    25    15    16    1
