@<TRIPOS>MOLECULE
*****
 37 40 0 0 0
SMALL
GASTEIGER

@<TRIPOS>ATOM
      1 C          -8.8925  -19.4455   23.1365 C.2     1  UNL1        0.2665
      2 O          -9.6836  -20.7058   23.3248 O.2     1  UNL1       -0.2710
      3 N          -9.4419  -18.1359   23.6193 N.am    1  UNL1       -0.2714
      4 C         -10.7824  -18.0866   24.2904 C.3     1  UNL1        0.1153
      5 C          -3.4565  -19.3169   19.6669 C.ar    1  UNL1       -0.0049
      6 C          -2.8773  -19.9942   20.8735 C.ar    1  UNL1        0.0002
      7 C          -3.7487  -20.2902   22.0580 C.ar    1  UNL1        0.0363
      8 C          -5.1993  -19.9090   22.0359 C.ar    1  UNL1        0.1352
      9 C          -5.7784  -19.2318   20.8293 C.ar    1  UNL1        0.0157
     10 C          -4.9071  -18.9357   19.6448 C.ar    1  UNL1       -0.0040
     11 C          -7.2325  -18.9757   21.0947 C.3     1  UNL1        0.0825
     12 C          -7.5519  -19.4946   22.4653 C.3     1  UNL1        0.2456
     13 O          -6.2953  -20.0714   23.0470 O.3     1  UNL1       -0.4699
     14 C          -2.5851  -19.0209   18.4824 C.3     1  UNL1        0.1173
     15 N          -1.4168  -18.0910   18.6245 N.3     1  UNL1       -0.1788
     16 H          -0.5752  -18.6635   18.5596 H       1  UNL1        0.1488
     17 S          -1.2739  -17.2492   19.8578 S.O2    1  UNL1        0.0410
     18 O          -0.0656  -18.0423   20.2591 O.2     1  UNL1       -0.1575
     19 O          -2.4822  -16.4561   19.4565 O.2     1  UNL1       -0.1575
     20 C          -1.1310  -16.4075   21.0911 C.3     1  UNL1        0.1688
     21 C          -2.9306  -17.0461   22.8527 C.3     1  UNL1        0.0019
     22 C          -2.3429  -16.0488   21.8989 C.3     1  UNL1        0.0270
     23 C          -8.6507  -16.8754   23.4309 C.3     1  UNL1        0.1139
     24 C          -7.8317  -16.3280   24.5621 C.ar    1  UNL1       -0.0029
     25 C          -6.4090  -15.9149   24.3266 C.ar    1  UNL1       -0.0026
     26 C          -5.5900  -15.3674   25.4578 C.ar    1  UNL1       -0.0003
     27 C          -6.1936  -15.2330   26.8243 C.ar    1  UNL1       -0.0000
     28 C          -7.6163  -15.6461   27.0598 C.ar    1  UNL1       -0.0003
     29 C          -8.4353  -16.1936   25.9287 C.ar    1  UNL1       -0.0026
     30 C          -8.6785  -16.1626   22.1115 C.3     1  UNL1        0.0968
     31 N          -9.8163  -16.3891   21.1605 N.3     1  UNL1       -0.2689
     32 C         -10.2673  -17.7157   20.6255 C.3     1  UNL1        0.0748
     33 C         -11.4325  -17.4753   19.7119 C.3     1  UNL1        0.0480
     34 C         -11.7015  -15.9999   19.6823 C.3     1  UNL1        0.1278
     35 O         -12.7801  -15.3160   18.8956 O.3     1  UNL1       -0.3830
     36 C         -10.7026  -15.3285   20.5776 C.3     1  UNL1        0.1017
     37 H         -12.7375  -14.3596   19.0522 H       1  UNL1        0.2104
@<TRIPOS>BOND
     1    21    22    1
     2    22    20    1
     3    20    17    1
     4    17    18    2
     5    17    19    2
     6    17    15    1
     7    15    14    1
     8    14     5    1
     9     5     6   ar
    10     6     7   ar
    11     7     8   ar
    12     8     9   ar
    13     9    10   ar
    14     9    11    1
    15    11    12    1
    16    12     1    1
    17     1     2    2
    18     1     3   am
    19     3     4    1
    20     3    23    1
    21    23    30    1
    22    30    31    1
    23    31    32    1
    24    32    33    1
    25    33    34    1
    26    34    35    1
    27    34    36    1
    28    23    24    1
    29    24    25   ar
    30    25    26   ar
    31    26    27   ar
    32    27    28   ar
    33    28    29   ar
    34    12    13    1
    35    10     5   ar
    36    36    31    1
    37    29    24   ar
    38    13     8    1
    39    15    16    1
    40    35    37    1
@<TRIPOS>MOLECULE
*****
 37 40 0 0 0
SMALL
GASTEIGER

@<TRIPOS>ATOM
      1 C         -10.8112  -19.7070   23.3951 C.2     1  UNL1        0.2665
      2 O         -11.4248  -21.0183   23.7875 O.2     1  UNL1       -0.2710
      3 N         -11.4761  -18.4207   23.7868 N.am    1  UNL1       -0.2714
      4 C         -12.7546  -18.4457   24.5708 C.3     1  UNL1        0.1153
      5 C          -4.9794  -19.8611   20.6437 C.ar    1  UNL1       -0.0049
      6 C          -5.7219  -19.3388   19.4496 C.ar    1  UNL1        0.0002
      7 C          -7.2004  -19.0994   19.5315 C.ar    1  UNL1        0.0363
      8 C          -7.9364  -19.3822   20.8075 C.ar    1  UNL1        0.1352
      9 C          -7.1939  -19.9045   22.0016 C.ar    1  UNL1        0.0157
     10 C          -5.7154  -20.1440   21.9197 C.ar    1  UNL1       -0.0040
     11 C          -8.1804  -20.0898   23.1163 C.3     1  UNL1        0.0825
     12 C          -9.5326  -19.6819   22.6111 C.3     1  UNL1        0.2456
     13 O          -9.3818  -19.2447   21.1842 O.3     1  UNL1       -0.4699
     14 C          -3.5009  -20.1006   20.5617 C.3     1  UNL1        0.1173
     15 N          -2.6663  -19.3149   19.5942 N.3     1  UNL1       -0.1788
     16 H          -1.9372  -19.9431   19.2565 H       1  UNL1        0.1488
     17 S          -1.9814  -18.0580   20.0428 S.O2    1  UNL1        0.0410
     18 O          -2.9607  -17.2422   19.2520 O.2     1  UNL1       -0.1575
     19 O          -1.0022  -18.8739   20.8336 O.2     1  UNL1       -0.1575
     20 C          -1.2966  -16.8012   20.4914 C.3     1  UNL1        0.1688
     21 C          -2.8478  -16.6741   22.5716 C.3     1  UNL1        0.0019
     22 C          -1.8115  -16.0511   21.6839 C.3     1  UNL1        0.0270
     23 C         -10.8624  -17.1094   23.3944 C.3     1  UNL1        0.1139
     24 C         -11.0226  -16.5954   21.9944 C.ar    1  UNL1       -0.0029
     25 C         -12.1976  -17.0258   21.1673 C.ar    1  UNL1       -0.0026
     26 C         -12.3578  -16.5118   19.7672 C.ar    1  UNL1       -0.0003
     27 C         -11.3430  -15.5674   19.1943 C.ar    1  UNL1       -0.0000
     28 C         -10.1679  -15.1370   20.0214 C.ar    1  UNL1       -0.0003
     29 C         -10.0077  -15.6510   21.4214 C.ar    1  UNL1       -0.0026
     30 C         -10.0885  -16.3121   24.4021 C.3     1  UNL1        0.0968
     31 N          -8.6033  -16.1594   24.2571 N.3     1  UNL1       -0.2689
     32 C          -7.7456  -16.8242   23.2217 C.3     1  UNL1        0.0748
     33 C          -6.3273  -16.3907   23.4467 C.3     1  UNL1        0.0480
     34 C          -6.3086  -15.4579   24.6212 C.3     1  UNL1        0.1278
     35 O          -5.0960  -14.7860   25.1943 O.3     1  UNL1       -0.3830
     36 C          -7.7153  -15.3149   25.1222 C.3     1  UNL1        0.1017
     37 H          -5.3577  -14.2358   25.9491 H       1  UNL1        0.2104
@<TRIPOS>BOND
     1    21    22    1
     2    22    20    1
     3    20    17    1
     4    17    18    2
     5    17    19    2
     6    17    15    1
     7    15    14    1
     8    14     5    1
     9     5     6   ar
    10     6     7   ar
    11     7     8   ar
    12     8     9   ar
    13     9    10   ar
    14     9    11    1
    15    11    12    1
    16    12     1    1
    17     1     2    2
    18     1     3   am
    19     3     4    1
    20     3    23    1
    21    23    30    1
    22    30    31    1
    23    31    32    1
    24    32    33    1
    25    33    34    1
    26    34    35    1
    27    34    36    1
    28    23    24    1
    29    24    25   ar
    30    25    26   ar
    31    26    27   ar
    32    27    28   ar
    33    28    29   ar
    34    12    13    1
    35    10     5   ar
    36    36    31    1
    37    29    24   ar
    38    13     8    1
    39    15    16    1
    40    35    37    1
@<TRIPOS>MOLECULE
*****
 37 40 0 0 0
SMALL
GASTEIGER

@<TRIPOS>ATOM
      1 C          -9.5088  -19.4604   23.1390 C.2     1  UNL1        0.2665
      2 O         -10.4333  -20.6376   23.2362 O.2     1  UNL1       -0.2710
      3 N          -9.9619  -18.1101   23.6096 N.am    1  UNL1       -0.2714
      4 C         -11.3394  -17.9371   24.1774 C.3     1  UNL1        0.1153
      5 C          -3.3288  -20.0248   21.3802 C.ar    1  UNL1       -0.0049
      6 C          -3.9220  -20.3739   20.0475 C.ar    1  UNL1        0.0002
      7 C          -5.4116  -20.3986   19.8728 C.ar    1  UNL1        0.0363
      8 C          -6.3080  -20.0742   21.0309 C.ar    1  UNL1        0.1352
      9 C          -5.7148  -19.7251   22.3636 C.ar    1  UNL1        0.0157
     10 C          -4.2252  -19.7004   22.5383 C.ar    1  UNL1       -0.0040
     11 C          -6.8416  -19.4526   23.3156 C.3     1  UNL1        0.0825
     12 C          -8.1312  -19.6334   22.5712 C.3     1  UNL1        0.2456
     13 O          -7.8014  -20.0176   21.1592 O.3     1  UNL1       -0.4699
     14 C          -1.8392  -20.0000   21.5548 C.3     1  UNL1        0.1173
     15 N          -1.1071  -18.6909   21.5665 N.3     1  UNL1       -0.1788
     16 H          -1.5499  -18.1123   22.2802 H       1  UNL1        0.1488
     17 S          -1.0351  -17.8607   20.3193 S.O2    1  UNL1        0.0410
     18 O          -1.9366  -16.8393   20.9471 O.2     1  UNL1       -0.1575
     19 O          -0.1337  -18.8820   19.6914 O.2     1  UNL1       -0.1575
     20 C          -0.9631  -17.0304   19.0720 C.3     1  UNL1        0.1688
     21 C          -3.1899  -16.8527   17.7455 C.3     1  UNL1        0.0019
     22 C          -1.7975  -17.3941   17.8798 C.3     1  UNL1        0.0270
     23 C          -9.0374  -16.9329   23.5124 C.3     1  UNL1        0.1139
     24 C          -8.2791  -16.4729   24.7221 C.ar    1  UNL1       -0.0029
     25 C          -8.8374  -16.7130   26.0934 C.ar    1  UNL1       -0.0026
     26 C          -8.0791  -16.2530   27.3031 C.ar    1  UNL1       -0.0003
     27 C          -6.7624  -15.5530   27.1415 C.ar    1  UNL1       -0.0000
     28 C          -6.2040  -15.3128   25.7701 C.ar    1  UNL1       -0.0003
     29 C          -6.9623  -15.7728   24.5604 C.ar    1  UNL1       -0.0026
     30 C          -8.8712  -16.2156   22.2055 C.3     1  UNL1        0.0968
     31 N          -9.9023  -16.3728   21.1273 N.3     1  UNL1       -0.2689
     32 C         -10.2888  -17.6580   20.4577 C.3     1  UNL1        0.0748
     33 C         -11.3531  -17.3518   19.4460 C.3     1  UNL1        0.0480
     34 C         -11.6244  -15.8773   19.4905 C.3     1  UNL1        0.1278
     35 O         -12.6179  -15.1376   18.6444 O.3     1  UNL1       -0.3830
     36 C         -10.7277  -15.2721   20.5297 C.3     1  UNL1        0.1017
     37 H         -12.5964  -14.1946   18.8703 H       1  UNL1        0.2104
@<TRIPOS>BOND
     1    21    22    1
     2    22    20    1
     3    20    17    1
     4    17    18    2
     5    17    19    2
     6    17    15    1
     7    15    14    1
     8    14     5    1
     9     5     6   ar
    10     6     7   ar
    11     7     8   ar
    12     8     9   ar
    13     9    10   ar
    14     9    11    1
    15    11    12    1
    16    12     1    1
    17     1     2    2
    18     1     3   am
    19     3     4    1
    20     3    23    1
    21    23    30    1
    22    30    31    1
    23    31    32    1
    24    32    33    1
    25    33    34    1
    26    34    35    1
    27    34    36    1
    28    23    24    1
    29    24    25   ar
    30    25    26   ar
    31    26    27   ar
    32    27    28   ar
    33    28    29   ar
    34    12    13    1
    35    10     5   ar
    36    36    31    1
    37    29    24   ar
    38    13     8    1
    39    15    16    1
    40    35    37    1
@<TRIPOS>MOLECULE
*****
 37 40 0 0 0
SMALL
GASTEIGER

@<TRIPOS>ATOM
      1 C         -10.2034  -19.9935   24.0752 C.2     1  UNL1        0.2665
      2 O         -10.5089  -21.3131   24.7196 O.2     1  UNL1       -0.2710
      3 N         -11.0033  -18.7779   24.4393 N.am    1  UNL1       -0.2714
      4 C         -12.1087  -18.8819   25.4479 C.3     1  UNL1        0.1153
      5 C          -5.0039  -19.8490   20.2609 C.ar    1  UNL1       -0.0049
      6 C          -5.9610  -19.2492   19.2739 C.ar    1  UNL1        0.0002
      7 C          -7.3968  -19.0394   19.6539 C.ar    1  UNL1        0.0363
      8 C          -7.8756  -19.4294   21.0209 C.ar    1  UNL1        0.1352
      9 C          -6.9185  -20.0292   22.0078 C.ar    1  UNL1        0.0157
     10 C          -5.4827  -20.2391   21.6278 C.ar    1  UNL1       -0.0040
     11 C          -7.6740  -20.3136   23.2722 C.3     1  UNL1        0.0825
     12 C          -9.0980  -19.8895   23.0665 C.3     1  UNL1        0.2456
     13 O          -9.2226  -19.3430   21.6752 O.3     1  UNL1       -0.4699
     14 C          -3.5681  -20.0588   19.8808 C.3     1  UNL1        0.1173
     15 N          -2.8043  -18.9617   19.2006 N.3     1  UNL1       -0.1788
     16 H          -2.0507  -19.4079   18.6778 H       1  UNL1        0.1488
     17 S          -2.1784  -17.8678   20.0139 S.O2    1  UNL1        0.0410
     18 O          -1.2885  -18.8737   20.6821 O.2     1  UNL1       -0.1575
     19 O          -3.0682  -16.8619   19.3458 O.2     1  UNL1       -0.1575
     20 C          -1.5524  -16.7739   20.8273 C.3     1  UNL1        0.1688
     21 C          -3.1923  -17.0675   22.8209 C.3     1  UNL1        0.0019
     22 C          -2.2880  -16.1965   22.0001 C.3     1  UNL1        0.0270
     23 C         -10.6977  -17.4583   23.7948 C.3     1  UNL1        0.1139
     24 C          -9.3554  -16.8192   23.9942 C.ar    1  UNL1       -0.0029
     25 C          -8.5010  -16.4834   22.8079 C.ar    1  UNL1       -0.0026
     26 C          -7.1587  -15.8443   23.0073 C.ar    1  UNL1       -0.0003
     27 C          -6.6708  -15.5411   24.3929 C.ar    1  UNL1       -0.0000
     28 C          -7.5252  -15.8769   25.5792 C.ar    1  UNL1       -0.0003
     29 C          -8.8675  -16.5160   25.3799 C.ar    1  UNL1       -0.0026
     30 C         -11.7345  -16.7779   22.9509 C.3     1  UNL1        0.0968
     31 N         -11.4927  -16.5746   21.4845 N.3     1  UNL1       -0.2689
     32 C         -11.6905  -17.6001   20.4079 C.3     1  UNL1        0.0748
     33 C         -11.3307  -16.9695   19.0953 C.3     1  UNL1        0.0480
     34 C         -10.9105  -15.5543   19.3607 C.3     1  UNL1        0.1278
     35 O         -10.4678  -14.5580   18.3304 O.3     1  UNL1       -0.3830
     36 C         -11.0106  -15.3102   20.8374 C.3     1  UNL1        0.1017
     37 H         -10.2518  -13.7180   18.7647 H       1  UNL1        0.2104
@<TRIPOS>BOND
     1    21    22    1
     2    22    20    1
     3    20    17    1
     4    17    18    2
     5    17    19    2
     6    17    15    1
     7    15    14    1
     8    14     5    1
     9     5     6   ar
    10     6     7   ar
    11     7     8   ar
    12     8     9   ar
    13     9    10   ar
    14     9    11    1
    15    11    12    1
    16    12     1    1
    17     1     2    2
    18     1     3   am
    19     3     4    1
    20     3    23    1
    21    23    30    1
    22    30    31    1
    23    31    32    1
    24    32    33    1
    25    33    34    1
    26    34    35    1
    27    34    36    1
    28    23    24    1
    29    24    25   ar
    30    25    26   ar
    31    26    27   ar
    32    27    28   ar
    33    28    29   ar
    34    12    13    1
    35    10     5   ar
    36    36    31    1
    37    29    24   ar
    38    13     8    1
    39    15    16    1
    40    35    37    1
@<TRIPOS>MOLECULE
*****
 37 40 0 0 0
SMALL
GASTEIGER

@<TRIPOS>ATOM
      1 C         -10.5692  -16.9096   20.7290 C.2     1  UNL1        0.2665
      2 O         -11.1914  -16.5669   19.4079 O.2     1  UNL1       -0.2710
      3 N         -11.2289  -16.4747   22.0040 N.am    1  UNL1       -0.2714
      4 C         -12.5108  -15.6972   21.9580 C.3     1  UNL1        0.1153
      5 C          -4.8318  -19.7666   21.4536 C.ar    1  UNL1       -0.0049
      6 C          -5.3565  -20.6941   20.3981 C.ar    1  UNL1        0.0002
      7 C          -6.7290  -20.4846   19.8304 C.ar    1  UNL1        0.0363
      8 C          -7.5769  -19.3474   20.3182 C.ar    1  UNL1        0.1352
      9 C          -7.0522  -18.4199   21.3738 C.ar    1  UNL1        0.0157
     10 C          -5.6797  -18.6294   21.9415 C.ar    1  UNL1       -0.0040
     11 C          -8.1093  -17.3937   21.6562 C.3     1  UNL1        0.0825
     12 C          -9.2872  -17.6871   20.7751 C.3     1  UNL1        0.2456
     13 O          -8.9582  -18.8946   19.9482 O.3     1  UNL1       -0.4699
     14 C          -3.4593  -19.9761   22.0213 C.3     1  UNL1        0.1173
     15 N          -2.6444  -18.7985   22.4675 N.3     1  UNL1       -0.1788
     16 H          -3.2722  -18.1866   22.9890 H       1  UNL1        0.1488
     17 S          -1.9478  -17.9409   21.4530 S.O2    1  UNL1        0.0410
     18 O          -1.1854  -19.1371   20.9653 O.2     1  UNL1       -0.1575
     19 O          -2.7101  -16.7447   21.9407 O.2     1  UNL1       -0.1575
     20 C          -1.2511  -17.0833   20.4385 C.3     1  UNL1        0.1688
     21 C          -2.7128  -17.4037   18.3147 C.3     1  UNL1        0.0019
     22 C          -1.3675  -17.4047   18.9780 C.3     1  UNL1        0.0270
     23 C         -10.6066  -16.8174   23.3252 C.3     1  UNL1        0.1139
     24 C         -10.4898  -18.2513   23.7498 C.ar    1  UNL1       -0.0029
     25 C         -11.0119  -19.3414   22.8615 C.ar    1  UNL1       -0.0026
     26 C         -10.8951  -20.7754   23.2861 C.ar    1  UNL1       -0.0003
     27 C         -10.2562  -21.1192   24.5989 C.ar    1  UNL1       -0.0000
     28 C          -9.7341  -20.0291   25.4872 C.ar    1  UNL1       -0.0003
     29 C          -9.8509  -18.5951   25.0627 C.ar    1  UNL1       -0.0026
     30 C         -10.1011  -15.7263   24.2217 C.3     1  UNL1        0.0968
     31 N          -8.6260  -15.5478   24.4277 N.3     1  UNL1       -0.2689
     32 C          -7.8957  -15.6786   25.7312 C.3     1  UNL1        0.0748
     33 C          -6.4407  -15.4188   25.4755 C.3     1  UNL1        0.0480
     34 C          -6.2718  -15.1274   24.0138 C.3     1  UNL1        0.1278
     35 O          -4.9792  -14.8117   23.3213 O.3     1  UNL1       -0.3830
     36 C          -7.6225  -15.2071   23.3662 C.3     1  UNL1        0.1017
     37 H          -5.1459  -14.6638   22.3773 H       1  UNL1        0.2104
@<TRIPOS>BOND
     1    21    22    1
     2    22    20    1
     3    20    17    1
     4    17    18    2
     5    17    19    2
     6    17    15    1
     7    15    14    1
     8    14     5    1
     9     5     6   ar
    10     6     7   ar
    11     7     8   ar
    12     8     9   ar
    13     9    10   ar
    14     9    11    1
    15    11    12    1
    16    12     1    1
    17     1     2    2
    18     1     3   am
    19     3     4    1
    20     3    23    1
    21    23    30    1
    22    30    31    1
    23    31    32    1
    24    32    33    1
    25    33    34    1
    26    34    35    1
    27    34    36    1
    28    23    24    1
    29    24    25   ar
    30    25    26   ar
    31    26    27   ar
    32    27    28   ar
    33    28    29   ar
    34    12    13    1
    35    10     5   ar
    36    36    31    1
    37    29    24   ar
    38    13     8    1
    39    15    16    1
    40    35    37    1
@<TRIPOS>MOLECULE
*****
 37 40 0 0 0
SMALL
GASTEIGER

@<TRIPOS>ATOM
      1 C           3.6632   -2.6101   19.6572 C.2     1  UNL1        0.2665
      2 O           3.1896   -3.8615   18.9793 O.2     1  UNL1       -0.2710
      3 N           4.9585   -2.6111   20.4136 N.am    1  UNL1       -0.2714
      4 C           5.7803   -3.8634   20.4920 C.3     1  UNL1        0.1153
      5 C          -0.2867    2.4847   19.8734 C.ar    1  UNL1       -0.0049
      6 C           0.5941    2.9935   18.7711 C.ar    1  UNL1        0.0002
      7 C           1.7461    2.1632   18.2878 C.ar    1  UNL1        0.0363
      8 C           2.0174    0.8242   18.9069 C.ar    1  UNL1        0.1352
      9 C           1.1366    0.3154   20.0092 C.ar    1  UNL1        0.0157
     10 C          -0.0155    1.1456   20.4925 C.ar    1  UNL1       -0.0040
     11 C           1.6459   -1.0331   20.4245 C.3     1  UNL1        0.0825
     12 C           2.8414   -1.3576   19.5788 C.3     1  UNL1        0.2456
     13 O           3.0710   -0.2097   18.6408 O.3     1  UNL1       -0.4699
     14 C          -1.4387    3.3149   20.3567 C.3     1  UNL1        0.1173
     15 N          -2.7795    2.6802   20.5788 N.3     1  UNL1       -0.1788
     16 H          -2.9465    2.0599   19.7865 H       1  UNL1        0.1488
     17 S          -4.0013    3.5386   20.7217 S.O2    1  UNL1        0.0410
     18 O          -3.3624    4.5906   19.8643 O.2     1  UNL1       -0.1575
     19 O          -4.6401    2.4866   21.5792 O.2     1  UNL1       -0.1575
     20 C          -5.2230    4.3970   20.8647 C.3     1  UNL1        0.1688
     21 C          -6.3182    3.2620   18.8002 C.3     1  UNL1        0.0019
     22 C          -6.4334    4.1253   20.0215 C.3     1  UNL1        0.0270
     23 C           5.4321   -1.3596   21.0915 C.3     1  UNL1        0.1139
     24 C           4.7450   -0.8732   22.3330 C.ar    1  UNL1       -0.0029
     25 C           4.3206    0.5613   22.4423 C.ar    1  UNL1       -0.0026
     26 C           3.6335    1.0477   23.6838 C.ar    1  UNL1       -0.0003
     27 C           3.3708    0.0996   24.8160 C.ar    1  UNL1       -0.0000
     28 C           3.7952   -1.3350   24.7068 C.ar    1  UNL1       -0.0003
     29 C           4.4823   -1.8214   23.4653 C.ar    1  UNL1       -0.0026
     30 C           6.5927   -0.5945   20.5280 C.3     1  UNL1        0.0968
     31 N           6.4498    0.1317   19.2232 N.3     1  UNL1       -0.2689
     32 C           6.6542   -0.4577   17.8592 C.3     1  UNL1        0.0748
     33 C           6.4082    0.6211   16.8465 C.3     1  UNL1        0.0480
     34 C           6.0518    1.8772   17.5846 C.3     1  UNL1        0.1278
     35 O           5.7267    3.2031   16.9630 O.3     1  UNL1       -0.3830
     36 C           6.0775    1.5748   19.0537 C.3     1  UNL1        0.1017
     37 H           5.5320    3.8483   17.6607 H       1  UNL1        0.2104
@<TRIPOS>BOND
     1    21    22    1
     2    22    20    1
     3    20    17    1
     4    17    18    2
     5    17    19    2
     6    17    15    1
     7    15    14    1
     8    14     5    1
     9     5     6   ar
    10     6     7   ar
    11     7     8   ar
    12     8     9   ar
    13     9    10   ar
    14     9    11    1
    15    11    12    1
    16    12     1    1
    17     1     2    2
    18     1     3   am
    19     3     4    1
    20     3    23    1
    21    23    30    1
    22    30    31    1
    23    31    32    1
    24    32    33    1
    25    33    34    1
    26    34    35    1
    27    34    36    1
    28    23    24    1
    29    24    25   ar
    30    25    26   ar
    31    26    27   ar
    32    27    28   ar
    33    28    29   ar
    34    12    13    1
    35    10     5   ar
    36    36    31    1
    37    29    24   ar
    38    13     8    1
    39    15    16    1
    40    35    37    1
@<TRIPOS>MOLECULE
*****
 37 40 0 0 0
SMALL
GASTEIGER

@<TRIPOS>ATOM
      1 C           3.9604   -2.2626   19.4177 C.2     1  UNL1        0.2665
      2 O           3.4892   -3.6547   19.1178 O.2     1  UNL1       -0.2710
      3 N           5.4193   -1.9970   19.6439 N.am    1  UNL1       -0.2714
      4 C           6.4069   -3.1235   19.5701 C.3     1  UNL1        0.1153
      5 C          -0.4706    2.3176   20.4137 C.ar    1  UNL1       -0.0049
      6 C          -0.0450    2.7799   19.0517 C.ar    1  UNL1        0.0002
      7 C           1.0232    2.0354   18.3068 C.ar    1  UNL1        0.0363
      8 C           1.6657    0.8287   18.9239 C.ar    1  UNL1        0.1352
      9 C           1.2401    0.3664   20.2859 C.ar    1  UNL1        0.0157
     10 C           0.1719    1.1109   21.0308 C.ar    1  UNL1       -0.0040
     11 C           2.0479   -0.8479   20.6367 C.3     1  UNL1        0.0825
     12 C           2.9727   -1.1361   19.4915 C.3     1  UNL1        0.2456
     13 O           2.7365   -0.0999   18.4329 O.3     1  UNL1       -0.4699
     14 C          -1.5387    3.0621   21.1586 C.3     1  UNL1        0.1173
     15 N          -2.9780    2.8971   20.7698 N.3     1  UNL1       -0.1788
     16 H          -3.0290    3.0411   19.7613 H       1  UNL1        0.1488
     17 S          -4.0267    3.7750   21.3860 S.O2    1  UNL1        0.0410
     18 O          -3.3084    4.9898   20.8778 O.2     1  UNL1       -0.1575
     19 O          -4.7450    2.5602   21.8942 O.2     1  UNL1       -0.1575
     20 C          -5.0754    4.6528   22.0022 C.3     1  UNL1        0.1688
     21 C          -7.4180    4.4645   23.1098 C.3     1  UNL1        0.0019
     22 C          -6.5213    4.2616   21.9245 C.3     1  UNL1        0.0270
     23 C           5.8904   -0.6048   19.9438 C.3     1  UNL1        0.1139
     24 C           6.0605    0.3856   18.8302 C.ar    1  UNL1       -0.0029
     25 C           6.5394   -0.0734   17.4849 C.ar    1  UNL1       -0.0026
     26 C           6.7095    0.9170   16.3713 C.ar    1  UNL1       -0.0003
     27 C           6.4007    2.3665   16.6030 C.ar    1  UNL1       -0.0000
     28 C           5.9219    2.8256   17.9484 C.ar    1  UNL1       -0.0003
     29 C           5.7518    1.8351   19.0620 C.ar    1  UNL1       -0.0026
     30 C           6.1915   -0.2031   21.3573 C.3     1  UNL1        0.0968
     31 N           5.2841   -0.6376   22.4699 N.3     1  UNL1       -0.2689
     32 C           5.2634   -1.9928   23.1125 C.3     1  UNL1        0.0748
     33 C           4.2047   -1.9859   24.1750 C.3     1  UNL1        0.0480
     34 C           3.5710   -0.6265   24.1891 C.3     1  UNL1        0.1278
     35 O           2.4644   -0.1789   25.0976 O.3     1  UNL1       -0.3830
     36 C           4.2381    0.2069   23.1353 C.3     1  UNL1        0.1017
     37 H           2.2385    0.7439   24.9016 H       1  UNL1        0.2104
@<TRIPOS>BOND
     1    21    22    1
     2    22    20    1
     3    20    17    1
     4    17    18    2
     5    17    19    2
     6    17    15    1
     7    15    14    1
     8    14     5    1
     9     5     6   ar
    10     6     7   ar
    11     7     8   ar
    12     8     9   ar
    13     9    10   ar
    14     9    11    1
    15    11    12    1
    16    12     1    1
    17     1     2    2
    18     1     3   am
    19     3     4    1
    20     3    23    1
    21    23    30    1
    22    30    31    1
    23    31    32    1
    24    32    33    1
    25    33    34    1
    26    34    35    1
    27    34    36    1
    28    23    24    1
    29    24    25   ar
    30    25    26   ar
    31    26    27   ar
    32    27    28   ar
    33    28    29   ar
    34    12    13    1
    35    10     5   ar
    36    36    31    1
    37    29    24   ar
    38    13     8    1
    39    15    16    1
    40    35    37    1
@<TRIPOS>MOLECULE
*****
 37 40 0 0 0
SMALL
GASTEIGER

@<TRIPOS>ATOM
      1 C          -9.1902  -20.0959   23.5888 C.2     1  UNL1        0.2665
      2 O          -9.4475  -21.4157   24.2535 O.2     1  UNL1       -0.2710
      3 N         -10.1132  -18.9394   23.8353 N.am    1  UNL1       -0.2714
      4 C         -11.2935  -19.1028   24.7463 C.3     1  UNL1        0.1153
      5 C          -3.6961  -19.6506   20.2390 C.ar    1  UNL1       -0.0049
      6 C          -4.6022  -19.1449   19.1559 C.ar    1  UNL1        0.0002
      7 C          -6.0775  -19.0336   19.4034 C.ar    1  UNL1        0.0363
      8 C          -6.6466  -19.4280   20.7340 C.ar    1  UNL1        0.1352
      9 C          -5.7404  -19.9337   21.8171 C.ar    1  UNL1        0.0157
     10 C          -4.2652  -20.0450   21.5696 C.ar    1  UNL1       -0.0040
     11 C          -6.5830  -20.2455   23.0184 C.3     1  UNL1        0.0825
     12 C          -8.0098  -19.9324   22.6777 C.3     1  UNL1        0.2456
     13 O          -8.0491  -19.4272   21.2659 O.3     1  UNL1       -0.4699
     14 C          -2.2208  -19.7619   19.9915 C.3     1  UNL1        0.1173
     15 N          -1.2996  -18.6688   20.4456 N.3     1  UNL1       -0.1788
     16 H          -0.5045  -19.1219   20.8961 H       1  UNL1        0.1488
     17 S          -1.7937  -17.6174   21.3945 S.O2    1  UNL1        0.0410
     18 O          -1.3936  -18.4780   22.5562 O.2     1  UNL1       -0.1575
     19 O          -2.1938  -16.7569   20.2329 O.2     1  UNL1       -0.1575
     20 C          -2.2878  -16.5661   22.3435 C.3     1  UNL1        0.1688
     21 C          -4.3343  -16.8974   23.9094 C.3     1  UNL1        0.0019
     22 C          -3.7576  -16.4252   22.6077 C.3     1  UNL1        0.0270
     23 C          -9.8558  -17.6196   23.1706 C.3     1  UNL1        0.1139
     24 C         -10.8357  -17.0791   22.1718 C.ar    1  UNL1       -0.0029
     25 C         -10.5431  -17.1795   20.7040 C.ar    1  UNL1       -0.0026
     26 C         -11.5231  -16.6390   19.7052 C.ar    1  UNL1       -0.0003
     27 C         -12.7956  -15.9983   20.1741 C.ar    1  UNL1       -0.0000
     28 C         -13.0883  -15.8979   21.6419 C.ar    1  UNL1       -0.0003
     29 C         -12.1084  -16.4383   22.6407 C.ar    1  UNL1       -0.0026
     30 C          -8.6185  -16.8402   23.5047 C.3     1  UNL1        0.0968
     31 N          -8.3451  -16.4392   24.9241 N.3     1  UNL1       -0.2689
     32 C          -8.9151  -17.0899   26.1494 C.3     1  UNL1        0.0748
     33 C          -8.3761  -16.3700   27.3499 C.3     1  UNL1        0.0480
     34 C          -7.4729  -15.2744   26.8665 C.3     1  UNL1        0.1278
     35 O          -6.7208  -14.3060   27.7306 O.3     1  UNL1       -0.3830
     36 C          -7.4537  -15.3171   25.3671 C.3     1  UNL1        0.1017
     37 H          -6.2112  -13.7005   27.1697 H       1  UNL1        0.2104
@<TRIPOS>BOND
     1    21    22    1
     2    22    20    1
     3    20    17    1
     4    17    18    2
     5    17    19    2
     6    17    15    1
     7    15    14    1
     8    14     5    1
     9     5     6   ar
    10     6     7   ar
    11     7     8   ar
    12     8     9   ar
    13     9    10   ar
    14     9    11    1
    15    11    12    1
    16    12     1    1
    17     1     2    2
    18     1     3   am
    19     3     4    1
    20     3    23    1
    21    23    30    1
    22    30    31    1
    23    31    32    1
    24    32    33    1
    25    33    34    1
    26    34    35    1
    27    34    36    1
    28    23    24    1
    29    24    25   ar
    30    25    26   ar
    31    26    27   ar
    32    27    28   ar
    33    28    29   ar
    34    12    13    1
    35    10     5   ar
    36    36    31    1
    37    29    24   ar
    38    13     8    1
    39    15    16    1
    40    35    37    1
@<TRIPOS>MOLECULE
*****
 37 40 0 0 0
SMALL
GASTEIGER

@<TRIPOS>ATOM
      1 C           4.5690   -3.8249   20.8280 C.2     1  UNL1        0.2665
      2 O           3.9881   -5.1912   20.6145 O.2     1  UNL1       -0.2710
      3 N           4.9712   -2.9884   19.6497 N.am    1  UNL1       -0.2714
      4 C           4.7924   -3.5182   18.2578 C.3     1  UNL1        0.1153
      5 C           4.7409   -1.1113   26.6771 C.ar    1  UNL1       -0.0049
      6 C           5.9245   -2.0127   26.8681 C.ar    1  UNL1        0.0002
      7 C           6.3615   -2.9222   25.7583 C.ar    1  UNL1        0.0363
      8 C           5.6148   -2.9304   24.4573 C.ar    1  UNL1        0.1352
      9 C           4.4312   -2.0290   24.2663 C.ar    1  UNL1        0.0157
     10 C           3.9942   -1.1195   25.3761 C.ar    1  UNL1       -0.0040
     11 C           3.8953   -2.2544   22.8834 C.3     1  UNL1        0.0825
     12 C           4.7478   -3.2950   22.2199 C.3     1  UNL1        0.2456
     13 O           5.8105   -3.7128   23.1926 O.3     1  UNL1       -0.4699
     14 C           4.3039   -0.2018   27.7869 C.3     1  UNL1        0.1173
     15 N           3.3997   -0.7172   28.8670 N.3     1  UNL1       -0.1788
     16 H           3.2470   -1.7074   28.6755 H       1  UNL1        0.1488
     17 S           2.0468   -0.1018   29.0697 S.O2    1  UNL1        0.0410
     18 O           2.1741    0.6106   27.7558 O.2     1  UNL1       -0.1575
     19 O           1.9196   -0.8143   30.3835 O.2     1  UNL1       -0.1575
     20 C           0.6940    0.5136   29.2724 C.3     1  UNL1        0.1688
     21 C          -1.8563    0.0194   29.3177 C.3     1  UNL1        0.0019
     22 C          -0.5178   -0.1189   28.6548 C.3     1  UNL1        0.0270
     23 C           5.5521   -1.6220   19.8632 C.3     1  UNL1        0.1139
     24 C           6.8800   -1.4696   20.5441 C.ar    1  UNL1       -0.0029
     25 C           8.0675   -2.2436   20.0535 C.ar    1  UNL1       -0.0026
     26 C           9.3954   -2.0912   20.7344 C.ar    1  UNL1       -0.0003
     27 C           9.5357   -1.1649   21.9057 C.ar    1  UNL1       -0.0000
     28 C           8.3482   -0.3908   22.3963 C.ar    1  UNL1       -0.0003
     29 C           7.0203   -0.5432   21.7155 C.ar    1  UNL1       -0.0026
     30 C           4.8052   -0.4080   19.3960 C.3     1  UNL1        0.0968
     31 N           3.5102   -0.0265   20.0498 N.3     1  UNL1       -0.2689
     32 C           3.3511    0.9084   21.2119 C.3     1  UNL1        0.0748
     33 C           1.8895    0.9999   21.5366 C.3     1  UNL1        0.0480
     34 C           1.1453    0.1215   20.5751 C.3     1  UNL1        0.1278
     35 O          -0.3399   -0.0861   20.5389 O.3     1  UNL1       -0.3830
     36 C           2.1469   -0.5129   19.6561 C.3     1  UNL1        0.1017
     37 H          -0.5630   -0.7009   19.8225 H       1  UNL1        0.2104
@<TRIPOS>BOND
     1    21    22    1
     2    22    20    1
     3    20    17    1
     4    17    18    2
     5    17    19    2
     6    17    15    1
     7    15    14    1
     8    14     5    1
     9     5     6   ar
    10     6     7   ar
    11     7     8   ar
    12     8     9   ar
    13     9    10   ar
    14     9    11    1
    15    11    12    1
    16    12     1    1
    17     1     2    2
    18     1     3   am
    19     3     4    1
    20     3    23    1
    21    23    30    1
    22    30    31    1
    23    31    32    1
    24    32    33    1
    25    33    34    1
    26    34    35    1
    27    34    36    1
    28    23    24    1
    29    24    25   ar
    30    25    26   ar
    31    26    27   ar
    32    27    28   ar
    33    28    29   ar
    34    12    13    1
    35    10     5   ar
    36    36    31    1
    37    29    24   ar
    38    13     8    1
    39    15    16    1
    40    35    37    1
