@<TRIPOS>MOLECULE
*****
 34 38 0 0 0
SMALL
GASTEIGER

@<TRIPOS>ATOM
      1 N          -7.5284  -19.5881   21.4893 N.3     1  UNL1       -0.2679
      2 C          -8.3916  -19.2212   22.6598 C.3     1  UNL1        0.0978
      3 C          -9.3456  -20.2270   23.2327 C.3     1  UNL1        0.0224
      4 C         -10.2088  -19.8600   24.4033 C.3     1  UNL1        0.0065
      5 C         -10.1181  -18.4872   25.0009 C.3     1  UNL1        0.0277
      6 C          -9.1642  -17.4814   24.4279 C.ar    1  UNL1       -0.0073
      7 C          -9.0735  -16.1086   25.0255 C.ar    1  UNL1       -0.0015
      8 C          -8.1196  -15.1027   24.4526 C.ar    1  UNL1        0.0203
      9 C          -7.2564  -15.4696   23.2821 C.ar    1  UNL1        0.0985
     10 N          -7.3471  -16.8424   22.6845 N.ar    1  UNL1       -0.2471
     11 C          -8.3010  -17.8483   23.2574 C.ar    1  UNL1        0.0695
     12 C          -6.1828  -20.2111   21.7158 C.3     1  UNL1        0.0886
     13 C          -0.3970  -16.8507   20.1402 C.ar    1  UNL1       -0.0003
     14 C          -0.8072  -17.6967   18.9715 C.ar    1  UNL1       -0.0003
     15 C          -2.0464  -18.5380   19.0529 C.ar    1  UNL1       -0.0045
     16 C          -2.8754  -18.5332   20.3030 C.ar    1  UNL1       -0.0234
     17 C          -2.4652  -17.6872   21.4717 C.ar    1  UNL1       -0.0103
     18 C          -1.2260  -16.8459   21.3903 C.ar    1  UNL1       -0.0032
     19 C          -3.2942  -17.6824   22.7218 C.3     1  UNL1        0.0953
     20 N          -4.5334  -18.5237   22.8032 N.3     1  UNL1       -0.2934
     21 C          -4.9436  -19.3698   21.6344 C.3     1  UNL1        0.0748
     22 C          -4.1146  -19.3745   20.3844 C.3     1  UNL1        0.0432
     23 H          -5.3085  -17.8886   22.9934 H       1  UNL1        0.1236
     24 C          -8.0107  -19.3321   20.0922 C.3     1  UNL1        0.0725
     25 C          -9.1044  -20.1773   19.5096 C.3     1  UNL1        0.0188
     26 C         -10.4687  -19.5931   19.2920 C.3     1  UNL1        0.0188
     27 C         -11.4225  -19.4661   20.4428 C.3     1  UNL1        0.0722
     28 N         -11.5559  -18.1584   21.1655 N.3     1  UNL1       -0.2703
     29 C         -12.5599  -18.0111   22.2701 C.3     1  UNL1        0.0894
     30 C         -12.6934  -16.7034   22.9928 C.3     1  UNL1        0.0862
     31 N         -11.8228  -15.5431   22.6108 N.3     1  UNL1       -0.2951
     32 C         -10.8188  -15.6905   21.5061 C.3     1  UNL1        0.0862
     33 C         -10.6853  -16.9981   20.7835 C.3     1  UNL1        0.0894
     34 H         -11.3034  -15.2769   23.4473 H       1  UNL1        0.1233
@<TRIPOS>BOND
     1    13    14   ar
     2    14    15   ar
     3    15    16   ar
     4    16    17   ar
     5    17    18   ar
     6    17    19    1
     7    19    20    1
     8    20    21    1
     9    21    12    1
    10    12     1    1
    11     1    24    1
    12    24    25    1
    13    25    26    1
    14    26    27    1
    15    27    28    1
    16    28    29    1
    17    29    30    1
    18    30    31    1
    19    31    32    1
    20    32    33    1
    21     2     1    1
    22     2     3    1
    23     3     4    1
    24     4     5    1
    25     5     6    1
    26     6     7   ar
    27     7     8   ar
    28     8     9   ar
    29     9    10   ar
    30    10    11   ar
    31    21    22    1
    32    18    13   ar
    33    33    28    1
    34    11     2    1
    35    22    16    1
    36    11     6   ar
    37    20    23    1
    38    31    34    1
@<TRIPOS>MOLECULE
*****
 34 38 0 0 0
SMALL
GASTEIGER

@<TRIPOS>ATOM
      1 N          -8.2093  -18.6330   21.4347 N.3     1  UNL1       -0.2679
      2 C          -9.2426  -18.9993   22.4585 C.3     1  UNL1        0.0978
      3 C          -8.9607  -20.0864   23.4529 C.3     1  UNL1        0.0224
      4 C          -9.9940  -20.4527   24.4767 C.3     1  UNL1        0.0065
      5 C         -11.3092  -19.7320   24.5061 C.3     1  UNL1        0.0277
      6 C         -11.5911  -18.6449   23.5116 C.ar    1  UNL1       -0.0073
      7 C         -12.9062  -17.9242   23.5409 C.ar    1  UNL1       -0.0015
      8 C         -13.1881  -16.8372   22.5465 C.ar    1  UNL1        0.0203
      9 C         -12.1548  -16.4709   21.5228 C.ar    1  UNL1        0.0985
     10 N         -10.8397  -17.1916   21.4934 N.ar    1  UNL1       -0.2471
     11 C         -10.5578  -18.2786   22.4879 C.ar    1  UNL1        0.0695
     12 C          -7.5142  -17.3060   21.5122 C.3     1  UNL1        0.0886
     13 C          -6.9310  -14.7921   27.8833 C.ar    1  UNL1       -0.0003
     14 C          -8.3772  -15.0651   27.5936 C.ar    1  UNL1       -0.0003
     15 C          -8.7831  -15.6225   26.2615 C.ar    1  UNL1       -0.0045
     16 C          -7.7428  -15.9069   25.2190 C.ar    1  UNL1       -0.0234
     17 C          -6.2966  -15.6339   25.5087 C.ar    1  UNL1       -0.0103
     18 C          -5.8907  -15.0765   26.8408 C.ar    1  UNL1       -0.0032
     19 C          -5.2562  -15.9183   24.4662 C.3     1  UNL1        0.0953
     20 N          -5.6620  -16.4756   23.1340 N.3     1  UNL1       -0.2934
     21 C          -7.1083  -16.7486   22.8444 C.3     1  UNL1        0.0748
     22 C          -8.1486  -16.4642   23.8868 C.3     1  UNL1        0.0432
     23 H          -5.1672  -17.3605   23.0219 H       1  UNL1        0.1236
     24 C          -7.8711  -19.5936   20.3335 C.3     1  UNL1        0.0725
     25 C          -6.4758  -19.6451   19.7853 C.3     1  UNL1        0.0188
     26 C          -5.4606  -20.5605   20.4029 C.3     1  UNL1        0.0188
     27 C          -4.0163  -20.4508   20.0128 C.3     1  UNL1        0.0722
     28 N          -3.1840  -19.3151   20.5299 N.3     1  UNL1       -0.2703
     29 C          -3.1745  -18.9990   21.9961 C.3     1  UNL1        0.0894
     30 C          -2.3421  -17.8633   22.5131 C.3     1  UNL1        0.0862
     31 N          -1.5193  -17.0436   21.5639 N.3     1  UNL1       -0.2951
     32 C          -1.5288  -17.3597   20.0976 C.3     1  UNL1        0.0862
     33 C          -2.3612  -18.4954   19.5805 C.3     1  UNL1        0.0894
     34 H          -0.5506  -17.1173   21.8747 H       1  UNL1        0.1233
@<TRIPOS>BOND
     1    13    14   ar
     2    14    15   ar
     3    15    16   ar
     4    16    17   ar
     5    17    18   ar
     6    17    19    1
     7    19    20    1
     8    20    21    1
     9    21    12    1
    10    12     1    1
    11     1    24    1
    12    24    25    1
    13    25    26    1
    14    26    27    1
    15    27    28    1
    16    28    29    1
    17    29    30    1
    18    30    31    1
    19    31    32    1
    20    32    33    1
    21     2     1    1
    22     2     3    1
    23     3     4    1
    24     4     5    1
    25     5     6    1
    26     6     7   ar
    27     7     8   ar
    28     8     9   ar
    29     9    10   ar
    30    10    11   ar
    31    21    22    1
    32    18    13   ar
    33    33    28    1
    34    11     2    1
    35    22    16    1
    36    11     6   ar
    37    20    23    1
    38    31    34    1
@<TRIPOS>MOLECULE
*****
 34 38 0 0 0
SMALL
GASTEIGER

@<TRIPOS>ATOM
      1 N          -8.4624  -18.4796   21.5299 N.3     1  UNL1       -0.2679
      2 C          -9.8896  -18.0608   21.3357 C.3     1  UNL1        0.0978
      3 C         -10.3251  -17.4644   20.0301 C.3     1  UNL1        0.0224
      4 C         -11.7523  -17.0456   19.8358 C.3     1  UNL1        0.0065
      5 C         -12.7439  -17.2232   20.9471 C.3     1  UNL1        0.0277
      6 C         -12.3084  -17.8196   22.2527 C.ar    1  UNL1       -0.0073
      7 C         -13.3000  -17.9972   23.3641 C.ar    1  UNL1       -0.0015
      8 C         -12.8645  -18.5936   24.6697 C.ar    1  UNL1        0.0203
      9 C         -11.4374  -19.0124   24.8639 C.ar    1  UNL1        0.0985
     10 N         -10.4457  -18.8348   23.7526 N.ar    1  UNL1       -0.2471
     11 C         -10.8813  -18.2384   22.4470 C.ar    1  UNL1        0.0695
     12 C          -7.3787  -17.4443   21.5923 C.3     1  UNL1        0.0886
     13 C          -6.9046  -14.7209   27.8858 C.ar    1  UNL1       -0.0003
     14 C          -8.3422  -15.0326   27.5927 C.ar    1  UNL1       -0.0003
     15 C          -8.7246  -15.6396   26.2754 C.ar    1  UNL1       -0.0045
     16 C          -7.6693  -15.9349   25.2512 C.ar    1  UNL1       -0.0234
     17 C          -6.2317  -15.6232   25.5443 C.ar    1  UNL1       -0.0103
     18 C          -5.8493  -15.0162   26.8616 C.ar    1  UNL1       -0.0032
     19 C          -5.1763  -15.9185   24.5200 C.3     1  UNL1        0.0953
     20 N          -5.5586  -16.5255   23.2027 N.3     1  UNL1       -0.2934
     21 C          -6.9964  -16.8373   22.9096 C.3     1  UNL1        0.0748
     22 C          -8.0517  -16.5420   23.9339 C.3     1  UNL1        0.0432
     23 H          -5.0449  -17.4031   23.1226 H       1  UNL1        0.1236
     24 C          -8.1188  -19.9338   21.6619 C.3     1  UNL1        0.0725
     25 C          -6.6870  -20.3754   21.5928 C.3     1  UNL1        0.0188
     26 C          -5.9716  -20.3971   20.2746 C.3     1  UNL1        0.0188
     27 C          -4.4831  -20.5780   20.2320 C.3     1  UNL1        0.0722
     28 N          -3.5787  -19.4502   20.6323 N.3     1  UNL1       -0.2703
     29 C          -3.0511  -18.5067   19.5924 C.3     1  UNL1        0.0894
     30 C          -2.1468  -17.3789   19.9927 C.3     1  UNL1        0.0862
     31 N          -1.7701  -17.1945   21.4328 N.3     1  UNL1       -0.2951
     32 C          -2.2977  -18.1381   22.4728 C.3     1  UNL1        0.0862
     33 C          -3.2020  -19.2659   22.0725 C.3     1  UNL1        0.0894
     34 H          -2.0777  -16.2595   21.7003 H       1  UNL1        0.1233
@<TRIPOS>BOND
     1    13    14   ar
     2    14    15   ar
     3    15    16   ar
     4    16    17   ar
     5    17    18   ar
     6    17    19    1
     7    19    20    1
     8    20    21    1
     9    21    12    1
    10    12     1    1
    11     1    24    1
    12    24    25    1
    13    25    26    1
    14    26    27    1
    15    27    28    1
    16    28    29    1
    17    29    30    1
    18    30    31    1
    19    31    32    1
    20    32    33    1
    21     2     1    1
    22     2     3    1
    23     3     4    1
    24     4     5    1
    25     5     6    1
    26     6     7   ar
    27     7     8   ar
    28     8     9   ar
    29     9    10   ar
    30    10    11   ar
    31    21    22    1
    32    18    13   ar
    33    33    28    1
    34    11     2    1
    35    22    16    1
    36    11     6   ar
    37    20    23    1
    38    31    34    1
@<TRIPOS>MOLECULE
*****
 34 38 0 0 0
SMALL
GASTEIGER

@<TRIPOS>ATOM
      1 N          -7.4790  -19.2101   22.0282 N.3     1  UNL1       -0.2679
      2 C          -6.2880  -19.7380   21.2846 C.3     1  UNL1        0.0978
      3 C          -6.4805  -20.6669   20.1227 C.3     1  UNL1        0.0224
      4 C          -5.2894  -21.1948   19.3792 C.3     1  UNL1        0.0065
      5 C          -3.9060  -20.7936   19.7975 C.3     1  UNL1        0.0277
      6 C          -3.7135  -19.8646   20.9594 C.ar    1  UNL1       -0.0073
      7 C          -2.3300  -19.4635   21.3777 C.ar    1  UNL1       -0.0015
      8 C          -2.1375  -18.5345   22.5396 C.ar    1  UNL1        0.0203
      9 C          -3.3285  -18.0067   23.2831 C.ar    1  UNL1        0.0985
     10 N          -4.7120  -18.4078   22.8648 N.ar    1  UNL1       -0.2471
     11 C          -4.9045  -19.3368   21.7029 C.ar    1  UNL1        0.0695
     12 C          -7.7684  -17.7383   22.0329 C.3     1  UNL1        0.0886
     13 C          -7.0222  -14.3167   27.9478 C.ar    1  UNL1       -0.0003
     14 C          -8.3029  -15.0964   27.9898 C.ar    1  UNL1       -0.0003
     15 C          -8.7083  -15.9367   26.8152 C.ar    1  UNL1       -0.0045
     16 C          -7.8330  -15.9972   25.5986 C.ar    1  UNL1       -0.0234
     17 C          -6.5523  -15.2175   25.5566 C.ar    1  UNL1       -0.0103
     18 C          -6.1469  -14.3772   26.7312 C.ar    1  UNL1       -0.0032
     19 C          -5.6769  -15.2780   24.3400 C.3     1  UNL1        0.0953
     20 N          -6.0822  -16.1183   23.1654 N.3     1  UNL1       -0.2934
     21 C          -7.3630  -16.8980   23.2075 C.3     1  UNL1        0.0748
     22 C          -8.2383  -16.8375   24.4240 C.3     1  UNL1        0.0432
     23 H          -5.3320  -16.7923   23.0127 H       1  UNL1        0.1236
     24 C          -8.3807  -20.1541   22.7670 C.3     1  UNL1        0.0725
     25 C          -9.1843  -19.6641   23.9349 C.3     1  UNL1        0.0188
     26 C         -10.6548  -19.9513   24.0068 C.3     1  UNL1        0.0188
     27 C         -11.6435  -18.9212   23.5467 C.3     1  UNL1        0.0722
     28 N         -11.3839  -18.1399   22.2928 N.3     1  UNL1       -0.2703
     29 C         -11.2848  -18.8487   20.9745 C.3     1  UNL1        0.0894
     30 C         -11.0252  -18.0674   19.7206 C.3     1  UNL1        0.0862
     31 N         -10.8647  -16.5774   19.7850 N.3     1  UNL1       -0.2951
     32 C         -10.9637  -15.8686   21.1033 C.3     1  UNL1        0.0862
     33 C         -11.2233  -16.6499   22.3572 C.3     1  UNL1        0.0894
     34 H         -11.5828  -16.1776   19.1810 H       1  UNL1        0.1233
@<TRIPOS>BOND
     1    13    14   ar
     2    14    15   ar
     3    15    16   ar
     4    16    17   ar
     5    17    18   ar
     6    17    19    1
     7    19    20    1
     8    20    21    1
     9    21    12    1
    10    12     1    1
    11     1    24    1
    12    24    25    1
    13    25    26    1
    14    26    27    1
    15    27    28    1
    16    28    29    1
    17    29    30    1
    18    30    31    1
    19    31    32    1
    20    32    33    1
    21     2     1    1
    22     2     3    1
    23     3     4    1
    24     4     5    1
    25     5     6    1
    26     6     7   ar
    27     7     8   ar
    28     8     9   ar
    29     9    10   ar
    30    10    11   ar
    31    21    22    1
    32    18    13   ar
    33    33    28    1
    34    11     2    1
    35    22    16    1
    36    11     6   ar
    37    20    23    1
    38    31    34    1
