@<TRIPOS>MOLECULE
*****
 40 45 0 0 0
SMALL
GASTEIGER

@<TRIPOS>ATOM
      1 C           8.1682   -7.1494   26.1746 C.ar    1  UNL1        0.2203
      2 N           9.2327   -6.8284   27.1816 N.ar    1  UNL1       -0.2121
      3 C           9.4914   -7.7654   28.3239 C.ar    1  UNL1        0.1035
      4 C           8.6857   -9.0233   28.4594 C.ar    1  UNL1        0.0445
      5 C           7.6212   -9.3442   27.4524 C.ar    1  UNL1        0.1389
      6 N           7.3625   -8.4073   26.3101 N.ar    1  UNL1       -0.2090
      7 C           9.5254   -7.5905   23.5358 C.3     1  UNL1        0.0233
      8 C           8.5881   -6.4329   23.7128 C.3     1  UNL1        0.0953
      9 C           8.3294   -5.4958   22.5705 C.3     1  UNL1        0.1106
     10 N           7.3921   -4.3382   22.7475 N.pl3   1  UNL1       -0.3024
     11 C           6.7136   -4.1176   24.0669 C.3     1  UNL1        0.1124
     12 C           6.9723   -5.0546   25.2093 C.3     1  UNL1        0.1150
     13 N           7.9096   -6.2123   25.0322 N.pl3   1  UNL1       -0.2764
     14 C           7.1335   -3.4011   21.6051 C.ar    1  UNL1        0.0758
     15 C           8.2191   -2.4825   21.1281 C.ar    1  UNL1        0.0181
     16 C           7.9604   -1.5454   19.9857 C.ar    1  UNL1        0.0198
     17 C           6.6162   -1.5270   19.3204 C.ar    1  UNL1        0.1080
     18 C           5.5305   -2.4456   19.7974 C.ar    1  UNL1        0.0492
     19 C           5.7892   -3.3827   20.9398 C.ar    1  UNL1        0.1546
     20 F           4.7036   -4.3013   21.4169 F       1  UNL1       -0.2028
     21 S           6.3575   -0.5899   18.1780 S.O2    1  UNL1        0.0105
     22 C           6.0989    0.3471   17.0356 C.3     1  UNL1        0.1816
     23 O           6.6511   -1.6939   17.2060 O.2     1  UNL1       -0.1686
     24 O           6.0639    0.5141   19.1501 O.2     1  UNL1       -0.1686
     25 C           6.8154  -10.6022   27.5879 C.2     1  UNL1        0.2637
     26 O           7.4708  -11.8651   28.0629 O.2     1  UNL1       -0.2685
     27 N           5.3544  -10.5973   27.2484 N.am    1  UNL1       -0.3013
     28 H           4.9243   -9.7684   26.9366 H       1  UNL1        0.1497
     29 C           4.5486  -11.8553   27.3839 C.3     1  UNL1        0.0719
     30 C           3.6046  -12.0206   28.5377 C.3     1  UNL1        0.0203
     31 C           3.7429  -13.1132   27.5194 C.3     1  UNL1        0.0018
     32 C           2.9371  -14.3711   27.6549 C.3     1  UNL1        0.0024
     33 C           3.8812  -14.2057   26.5010 C.3     1  UNL1        0.0018
     34 C           4.6869  -12.9478   26.3655 C.3     1  UNL1        0.0203
     35 C           2.4796  -13.9792   28.5730 C.3     1  UNL1        0.0285
     36 C           1.8548  -13.4438   29.8271 C.3     1  UNL1        0.0884
     37 O           0.9107  -13.6091   30.9810 O.3     1  UNL1       -0.3867
     38 C           1.9931  -14.5364   28.8088 C.3     1  UNL1        0.0269
     39 C           2.6605  -12.1859   29.6916 C.3     1  UNL1        0.0285
     40 H           0.4723  -14.4722   30.9189 H       1  UNL1        0.2102
@<TRIPOS>BOND
     1     8     7    1
     2     8     9    1
     3     9    10    1
     4    10    14    1
     5    14    15   ar
     6    15    16   ar
     7    16    17   ar
     8    17    21    1
     9    21    22    1
    10    21    23    2
    11    21    24    2
    12    17    18   ar
    13    18    19   ar
    14    19    20    1
    15    10    11    1
    16    11    12    1
    17    12    13    1
    18    13     1    1
    19     1     2   ar
    20     2     3   ar
    21     3     4   ar
    22     4     5   ar
    23     5    25    1
    24    25    26    2
    25    25    27   am
    26    27    29    1
    27    29    30    1
    28    30    31    1
    29    31    32    1
    30    32    33    1
    31    33    34    1
    32    34    35    1
    33    35    36    1
    34    36    37    1
    35    36    38    1
    36    36    39    1
    37     5     6   ar
    38    13     8    1
    39     6     1   ar
    40    19    14   ar
    41    34    29    1
    42    39    30    1
    43    38    32    1
    44    27    28    1
    45    37    40    1
@<TRIPOS>MOLECULE
*****
 40 45 0 0 0
SMALL
GASTEIGER

@<TRIPOS>ATOM
      1 C           6.5248   -1.8950   29.3612 C.ar    1  UNL1        0.2203
      2 N           7.6559   -2.8787   29.4164 N.ar    1  UNL1       -0.2121
      3 C           8.2022   -3.4653   28.1486 C.ar    1  UNL1        0.1035
      4 C           7.6173   -3.0683   26.8256 C.ar    1  UNL1        0.0445
      5 C           6.4862   -2.0846   26.7705 C.ar    1  UNL1        0.1389
      6 N           5.9400   -1.4980   28.0383 N.ar    1  UNL1       -0.2090
      7 C           7.5619    0.7346   30.3661 C.3     1  UNL1        0.0233
      8 C           6.4970    0.0064   31.1316 C.3     1  UNL1        0.0953
      9 C           5.9508    0.5930   32.3994 C.3     1  UNL1        0.1106
     10 N           4.8860   -0.1352   33.1648 N.pl3   1  UNL1       -0.3024
     11 C           4.3674   -1.4500   32.6624 C.3     1  UNL1        0.1124
     12 C           4.9137   -2.0366   31.3946 C.3     1  UNL1        0.1150
     13 N           5.9785   -1.3084   30.6292 N.pl3   1  UNL1       -0.2764
     14 C           4.3397    0.4514   34.4328 C.ar    1  UNL1        0.0758
     15 C           4.7363   -0.1272   35.7586 C.ar    1  UNL1        0.0181
     16 C           4.1901    0.4594   37.0265 C.ar    1  UNL1        0.0198
     17 C           3.2472    1.6246   36.9685 C.ar    1  UNL1        0.1080
     18 C           2.8505    2.2032   35.6427 C.ar    1  UNL1        0.0492
     19 C           3.3968    1.6165   34.3747 C.ar    1  UNL1        0.1546
     20 F           3.0001    2.1951   33.0489 F       1  UNL1       -0.2028
     21 S           2.7010    2.2112   38.2364 S.O2    1  UNL1        0.0105
     22 C           2.1547    2.7977   39.5043 C.3     1  UNL1        0.1816
     23 O           1.6694    2.9599   37.4456 O.2     1  UNL1       -0.1686
     24 O           3.7325    1.4625   39.0272 O.2     1  UNL1       -0.1686
     25 C           5.9014   -1.6876   25.4474 C.2     1  UNL1        0.2637
     26 O           6.4952   -0.5454   24.6774 O.2     1  UNL1       -0.2685
     27 N           4.7229   -2.4327   24.8944 N.am    1  UNL1       -0.3013
     28 H           4.3332   -3.1823   25.3998 H       1  UNL1        0.1497
     29 C           4.1381   -2.0357   23.5713 C.3     1  UNL1        0.0719
     30 C           4.3726   -2.8901   22.3610 C.3     1  UNL1        0.0203
     31 C           3.5533   -1.6387   22.2483 C.3     1  UNL1        0.0018
     32 C           2.9685   -1.2418   20.9253 C.3     1  UNL1        0.0024
     33 C           2.7340   -0.3874   22.1357 C.3     1  UNL1        0.0018
     34 C           3.3188   -0.7843   23.4587 C.3     1  UNL1        0.0203
     35 C           3.4139   -2.1318   20.4613 C.3     1  UNL1        0.0285
     36 C           4.0224   -3.3476   19.8276 C.3     1  UNL1        0.0884
     37 O           4.2569   -4.2020   18.6173 O.3     1  UNL1       -0.3867
     38 C           3.2031   -2.0962   19.7150 C.3     1  UNL1        0.0269
     39 C           4.6071   -3.7445   21.1506 C.3     1  UNL1        0.0285
     40 H           3.8132   -3.8060   17.8510 H       1  UNL1        0.2102
@<TRIPOS>BOND
     1     8     7    1
     2     8     9    1
     3     9    10    1
     4    10    14    1
     5    14    15   ar
     6    15    16   ar
     7    16    17   ar
     8    17    21    1
     9    21    22    1
    10    21    23    2
    11    21    24    2
    12    17    18   ar
    13    18    19   ar
    14    19    20    1
    15    10    11    1
    16    11    12    1
    17    12    13    1
    18    13     1    1
    19     1     2   ar
    20     2     3   ar
    21     3     4   ar
    22     4     5   ar
    23     5    25    1
    24    25    26    2
    25    25    27   am
    26    27    29    1
    27    29    30    1
    28    30    31    1
    29    31    32    1
    30    32    33    1
    31    33    34    1
    32    34    35    1
    33    35    36    1
    34    36    37    1
    35    36    38    1
    36    36    39    1
    37     5     6   ar
    38    13     8    1
    39     6     1   ar
    40    19    14   ar
    41    34    29    1
    42    39    30    1
    43    38    32    1
    44    27    28    1
    45    37    40    1
@<TRIPOS>MOLECULE
*****
 40 45 0 0 0
SMALL
GASTEIGER

@<TRIPOS>ATOM
      1 C           7.6220   -5.9646   27.7295 C.ar    1  UNL1        0.2203
      2 N           8.0420   -7.3849   27.9667 N.ar    1  UNL1       -0.2121
      3 C           8.4232   -8.2578   26.8079 C.ar    1  UNL1        0.1035
      4 C           8.3844   -7.7103   25.4119 C.ar    1  UNL1        0.0445
      5 C           7.9643   -6.2900   25.1748 C.ar    1  UNL1        0.1389
      6 N           7.5832   -5.4171   26.3335 N.ar    1  UNL1       -0.2090
      7 C           6.7558   -3.1322   27.2528 C.3     1  UNL1        0.0233
      8 C           6.8078   -3.6755   28.6500 C.3     1  UNL1        0.0953
      9 C           6.4266   -2.8027   29.8088 C.3     1  UNL1        0.1106
     10 N           6.4786   -3.3461   31.2060 N.pl3   1  UNL1       -0.3024
     11 C           6.9117   -4.7623   31.4443 C.3     1  UNL1        0.1124
     12 C           7.2928   -5.6351   30.2855 C.3     1  UNL1        0.1150
     13 N           7.2409   -5.0917   28.8883 N.pl3   1  UNL1       -0.2764
     14 C           6.0974   -2.4732   32.3648 C.ar    1  UNL1        0.0758
     15 C           4.7108   -2.5436   32.9326 C.ar    1  UNL1        0.0181
     16 C           4.3296   -1.6708   34.0913 C.ar    1  UNL1        0.0198
     17 C           5.3350   -0.7276   34.6825 C.ar    1  UNL1        0.1080
     18 C           6.7217   -0.6571   34.1148 C.ar    1  UNL1        0.0492
     19 C           7.1028   -1.5300   32.9559 C.ar    1  UNL1        0.1546
     20 F           8.4895   -1.4596   32.3882 F       1  UNL1       -0.2028
     21 S           4.9538    0.1453   35.8413 S.O2    1  UNL1        0.0105
     22 C           4.5726    1.0181   37.0001 C.3     1  UNL1        0.1816
     23 O           3.9758    0.8756   34.9695 O.2     1  UNL1       -0.1686
     24 O           5.9318   -0.5851   36.7131 O.2     1  UNL1       -0.1686
     25 C           7.9255   -5.7425   23.7787 C.2     1  UNL1        0.2637
     26 O           8.4327   -6.5693   22.6345 O.2     1  UNL1       -0.2685
     27 N           7.3795   -4.3684   23.5269 N.am    1  UNL1       -0.3013
     28 H           7.0466   -3.8257   24.2779 H       1  UNL1        0.1497
     29 C           7.3406   -3.8209   22.1309 C.3     1  UNL1        0.0719
     30 C           6.0516   -3.8135   21.3638 C.3     1  UNL1        0.0203
     31 C           7.3017   -3.2735   20.7349 C.3     1  UNL1        0.0018
     32 C           7.2629   -2.7261   19.3389 C.3     1  UNL1        0.0024
     33 C           8.5519   -2.7335   20.1060 C.3     1  UNL1        0.0018
     34 C           8.5907   -3.2809   21.5020 C.3     1  UNL1        0.0203
     35 C           6.1897   -2.9512   19.2805 C.3     1  UNL1        0.0285
     36 C           4.7237   -3.2587   19.2007 C.3     1  UNL1        0.0884
     37 O           3.4347   -3.2513   18.4336 O.3     1  UNL1       -0.3867
     38 C           5.9739   -2.7187   18.5718 C.3     1  UNL1        0.0269
     39 C           4.7626   -3.8061   20.5967 C.3     1  UNL1        0.0285
     40 H           3.5832   -2.8669   17.5555 H       1  UNL1        0.2102
@<TRIPOS>BOND
     1     8     7    1
     2     8     9    1
     3     9    10    1
     4    10    14    1
     5    14    15   ar
     6    15    16   ar
     7    16    17   ar
     8    17    21    1
     9    21    22    1
    10    21    23    2
    11    21    24    2
    12    17    18   ar
    13    18    19   ar
    14    19    20    1
    15    10    11    1
    16    11    12    1
    17    12    13    1
    18    13     1    1
    19     1     2   ar
    20     2     3   ar
    21     3     4   ar
    22     4     5   ar
    23     5    25    1
    24    25    26    2
    25    25    27   am
    26    27    29    1
    27    29    30    1
    28    30    31    1
    29    31    32    1
    30    32    33    1
    31    33    34    1
    32    34    35    1
    33    35    36    1
    34    36    37    1
    35    36    38    1
    36    36    39    1
    37     5     6   ar
    38    13     8    1
    39     6     1   ar
    40    19    14   ar
    41    34    29    1
    42    39    30    1
    43    38    32    1
    44    27    28    1
    45    37    40    1
@<TRIPOS>MOLECULE
*****
 40 45 0 0 0
SMALL
GASTEIGER

@<TRIPOS>ATOM
      1 C           1.3727    2.3976   25.6771 C.ar    1  UNL1        0.2203
      2 N           2.2094    2.7894   26.8588 N.ar    1  UNL1       -0.2121
      3 C           3.6221    2.2982   26.9735 C.ar    1  UNL1        0.1035
      4 C           4.1980    1.4153   25.9064 C.ar    1  UNL1        0.0445
      5 C           3.3612    1.0235   24.7247 C.ar    1  UNL1        0.1389
      6 N           1.9486    1.5147   24.6101 N.ar    1  UNL1       -0.2090
      7 C          -0.6755    1.5608   27.7032 C.3     1  UNL1        0.0233
      8 C          -1.0640    2.4705   26.5755 C.3     1  UNL1        0.0953
      9 C          -2.4766    2.9617   26.4609 C.3     1  UNL1        0.1106
     10 N          -2.8652    3.8713   25.3332 N.pl3   1  UNL1       -0.3024
     11 C          -1.8411    4.2898   24.3202 C.3     1  UNL1        0.1124
     12 C          -0.4285    3.7985   24.4349 C.3     1  UNL1        0.1150
     13 N          -0.0400    2.8889   25.5625 N.pl3   1  UNL1       -0.2764
     14 C          -4.2779    4.3626   25.2186 C.ar    1  UNL1        0.0758
     15 C          -4.8223    5.3239   26.2333 C.ar    1  UNL1        0.0181
     16 C          -6.2349    5.8151   26.1187 C.ar    1  UNL1        0.0198
     17 C          -7.1032    5.3450   24.9895 C.ar    1  UNL1        0.1080
     18 C          -6.5588    4.3837   23.9748 C.ar    1  UNL1        0.0492
     19 C          -5.1461    3.8925   24.0894 C.ar    1  UNL1        0.1546
     20 F          -4.6017    2.9311   23.0748 F       1  UNL1       -0.2028
     21 S          -8.5158    5.8363   24.8749 S.O2    1  UNL1        0.0105
     22 C          -9.9284    6.3275   24.7603 C.3     1  UNL1        0.1816
     23 O          -8.5857    5.3082   23.4727 O.2     1  UNL1       -0.1686
     24 O          -8.4459    6.3644   26.2771 O.2     1  UNL1       -0.1686
     25 C           3.9372    0.1405   23.6576 C.2     1  UNL1        0.2637
     26 O           5.4099    0.1696   23.3741 O.2     1  UNL1       -0.2685
     27 N           3.0405   -0.7716   22.8741 N.am    1  UNL1       -0.3013
     28 H           2.0740   -0.7908   23.0602 H       1  UNL1        0.1497
     29 C           3.6165   -1.6547   21.8070 C.3     1  UNL1        0.0719
     30 C           3.5225   -1.2487   20.3661 C.3     1  UNL1        0.0203
     31 C           4.1925   -2.5376   20.7399 C.3     1  UNL1        0.0018
     32 C           4.7684   -3.4205   19.6729 C.3     1  UNL1        0.0024
     33 C           4.8624   -3.8265   21.1138 C.3     1  UNL1        0.0018
     34 C           4.2865   -2.9436   22.1809 C.3     1  UNL1        0.0203
     35 C           4.4455   -2.7042   18.9058 C.3     1  UNL1        0.0285
     36 C           4.0045   -1.7256   17.8580 C.3     1  UNL1        0.0884
     37 O           3.9105   -1.3196   16.4171 O.3     1  UNL1       -0.3867
     38 C           4.6744   -3.0145   18.2319 C.3     1  UNL1        0.0269
     39 C           3.4286   -0.8427   18.9251 C.3     1  UNL1        0.0285
     40 H           4.3288   -1.9966   15.8625 H       1  UNL1        0.2102
@<TRIPOS>BOND
     1     8     7    1
     2     8     9    1
     3     9    10    1
     4    10    14    1
     5    14    15   ar
     6    15    16   ar
     7    16    17   ar
     8    17    21    1
     9    21    22    1
    10    21    23    2
    11    21    24    2
    12    17    18   ar
    13    18    19   ar
    14    19    20    1
    15    10    11    1
    16    11    12    1
    17    12    13    1
    18    13     1    1
    19     1     2   ar
    20     2     3   ar
    21     3     4   ar
    22     4     5   ar
    23     5    25    1
    24    25    26    2
    25    25    27   am
    26    27    29    1
    27    29    30    1
    28    30    31    1
    29    31    32    1
    30    32    33    1
    31    33    34    1
    32    34    35    1
    33    35    36    1
    34    36    37    1
    35    36    38    1
    36    36    39    1
    37     5     6   ar
    38    13     8    1
    39     6     1   ar
    40    19    14   ar
    41    34    29    1
    42    39    30    1
    43    38    32    1
    44    27    28    1
    45    37    40    1
@<TRIPOS>MOLECULE
*****
 40 45 0 0 0
SMALL
GASTEIGER

@<TRIPOS>ATOM
      1 C           7.8773   -3.9875   27.2521 C.ar    1  UNL1        0.2203
      2 N           8.9772   -5.0053   27.1866 N.ar    1  UNL1       -0.2121
      3 C           9.3615   -5.6106   25.8691 C.ar    1  UNL1        0.1035
      4 C           8.6460   -5.1980   24.6170 C.ar    1  UNL1        0.0445
      5 C           7.5461   -4.1801   24.6825 C.ar    1  UNL1        0.1389
      6 N           7.1618   -3.5749   26.0000 N.ar    1  UNL1       -0.2090
      7 C           6.8919   -5.7411   29.4779 C.3     1  UNL1        0.0233
      8 C           7.0003   -4.2591   29.6826 C.3     1  UNL1        0.0953
      9 C           6.6160   -3.6538   31.0001 C.3     1  UNL1        0.1106
     10 N           6.7244   -2.1718   31.2048 N.pl3   1  UNL1       -0.3024
     11 C           7.2171   -1.2950   30.0919 C.3     1  UNL1        0.1124
     12 C           7.6014   -1.9003   28.7744 C.3     1  UNL1        0.1150
     13 N           7.4930   -3.3823   28.5697 N.pl3   1  UNL1       -0.2764
     14 C           6.3401   -1.5666   32.5224 C.ar    1  UNL1        0.0758
     15 C           7.3706   -0.8596   33.3520 C.ar    1  UNL1        0.0181
     16 C           6.9863   -0.2544   34.6696 C.ar    1  UNL1        0.0198
     17 C           5.5715   -0.3561   35.1576 C.ar    1  UNL1        0.1080
     18 C           4.5411   -1.0631   34.3280 C.ar    1  UNL1        0.0492
     19 C           4.9254   -1.6684   33.0103 C.ar    1  UNL1        0.1546
     20 F           3.8949   -2.3753   32.1807 F       1  UNL1       -0.2028
     21 S           5.1873    0.2491   36.4752 S.O2    1  UNL1        0.0105
     22 C           4.8030    0.8543   37.7927 C.3     1  UNL1        0.1816
     23 O           6.3042   -0.4965   37.1434 O.2     1  UNL1       -0.1686
     24 O           4.0703    0.9946   35.8070 O.2     1  UNL1       -0.1686
     25 C           6.8306   -3.7675   23.4303 C.2     1  UNL1        0.2637
     26 O           7.6090   -3.4894   22.1787 O.2     1  UNL1       -0.2685
     27 N           5.3366   -3.6331   23.4299 N.am    1  UNL1       -0.3013
     28 H           4.8257   -3.8156   24.2514 H       1  UNL1        0.1497
     29 C           4.6211   -3.2205   22.1777 C.3     1  UNL1        0.0719
     30 C           3.8982   -1.9072   22.1251 C.3     1  UNL1        0.0203
     31 C           3.9056   -2.8078   20.9256 C.3     1  UNL1        0.0018
     32 C           3.1900   -2.3952   19.6736 C.3     1  UNL1        0.0024
     33 C           3.9129   -3.7085   19.7262 C.3     1  UNL1        0.0018
     34 C           4.6284   -4.1211   20.9783 C.3     1  UNL1        0.0203
     35 C           2.8814   -1.4595   20.1583 C.3     1  UNL1        0.0285
     36 C           2.4598   -0.1813   20.8204 C.3     1  UNL1        0.0884
     37 O           1.7369    1.1319   20.7678 O.3     1  UNL1       -0.3867
     38 C           2.4671   -1.0820   19.6210 C.3     1  UNL1        0.0269
     39 C           3.1753   -0.5939   22.0725 C.3     1  UNL1        0.0285
     40 H           1.3318    1.2432   19.8935 H       1  UNL1        0.2102
@<TRIPOS>BOND
     1     8     7    1
     2     8     9    1
     3     9    10    1
     4    10    14    1
     5    14    15   ar
     6    15    16   ar
     7    16    17   ar
     8    17    21    1
     9    21    22    1
    10    21    23    2
    11    21    24    2
    12    17    18   ar
    13    18    19   ar
    14    19    20    1
    15    10    11    1
    16    11    12    1
    17    12    13    1
    18    13     1    1
    19     1     2   ar
    20     2     3   ar
    21     3     4   ar
    22     4     5   ar
    23     5    25    1
    24    25    26    2
    25    25    27   am
    26    27    29    1
    27    29    30    1
    28    30    31    1
    29    31    32    1
    30    32    33    1
    31    33    34    1
    32    34    35    1
    33    35    36    1
    34    36    37    1
    35    36    38    1
    36    36    39    1
    37     5     6   ar
    38    13     8    1
    39     6     1   ar
    40    19    14   ar
    41    34    29    1
    42    39    30    1
    43    38    32    1
    44    27    28    1
    45    37    40    1
@<TRIPOS>MOLECULE
*****
 40 45 0 0 0
SMALL
GASTEIGER

@<TRIPOS>ATOM
      1 C           0.3342    2.1462   19.3978 C.ar    1  UNL1        0.2203
      2 N           0.4147    2.6052   17.9720 N.ar    1  UNL1       -0.2121
      3 C          -0.5890    3.5858   17.4420 C.ar    1  UNL1        0.1035
      4 C          -1.6732    4.1074   18.3377 C.ar    1  UNL1        0.0445
      5 C          -1.7537    3.6484   19.7634 C.ar    1  UNL1        0.1389
      6 N          -0.7501    2.6678   20.2935 N.ar    1  UNL1       -0.2090
      7 C           2.7696    3.1285   20.8483 C.3     1  UNL1        0.0233
      8 C           2.5556    1.6567   20.6531 C.3     1  UNL1        0.0953
      9 C           3.5593    0.6761   21.1830 C.3     1  UNL1        0.1106
     10 N           3.3453   -0.7957   20.9878 N.pl3   1  UNL1       -0.3024
     11 C           2.1277   -1.2868   20.2625 C.3     1  UNL1        0.1124
     12 C           1.1240   -0.3062   19.7325 C.3     1  UNL1        0.1150
     13 N           1.3379    1.1656   19.9278 N.pl3   1  UNL1       -0.2764
     14 C           4.3491   -1.7763   21.5178 C.ar    1  UNL1        0.0758
     15 C           4.2858   -2.2136   22.9512 C.ar    1  UNL1        0.0181
     16 C           5.2894   -3.1942   23.4813 C.ar    1  UNL1        0.0198
     17 C           6.3566   -3.7376   22.5779 C.ar    1  UNL1        0.1080
     18 C           6.4199   -3.3003   21.1444 C.ar    1  UNL1        0.0492
     19 C           5.4161   -2.3197   20.6144 C.ar    1  UNL1        0.1546
     20 F           5.4795   -1.8824   19.1809 F       1  UNL1       -0.2028
     21 S           7.3603   -4.7182   23.1079 S.O2    1  UNL1        0.0105
     22 C           8.3640   -5.6987   23.6380 C.3     1  UNL1        0.1816
     23 O           6.9336   -4.3971   24.5096 O.2     1  UNL1       -0.1686
     24 O           7.7869   -5.0392   21.7062 O.2     1  UNL1       -0.1686
     25 C          -2.8381    4.1700   20.6592 C.2     1  UNL1        0.2637
     26 O          -3.1206    5.6421   20.7159 O.2     1  UNL1       -0.2685
     27 N          -3.6398    3.2196   21.4981 N.am    1  UNL1       -0.3013
     28 H          -3.4543    2.2534   21.4609 H       1  UNL1        0.1497
     29 C          -4.7241    3.7412   22.3939 C.3     1  UNL1        0.0719
     30 C          -4.4276    4.0429   23.8330 C.3     1  UNL1        0.0203
     31 C          -5.8083    4.2628   23.2896 C.3     1  UNL1        0.0018
     32 C          -6.8925    4.7844   24.1853 C.3     1  UNL1        0.0024
     33 C          -7.1890    4.4827   22.7462 C.3     1  UNL1        0.0018
     34 C          -6.1047    3.9611   21.8505 C.3     1  UNL1        0.0203
     35 C          -6.1837    4.8190   25.0233 C.3     1  UNL1        0.0285
     36 C          -5.2154    4.8662   26.1679 C.3     1  UNL1        0.0884
     37 O          -4.9189    5.1679   27.6070 O.3     1  UNL1       -0.3867
     38 C          -6.5960    5.0861   25.6245 C.3     1  UNL1        0.0269
     39 C          -4.1312    4.3446   25.2721 C.3     1  UNL1        0.0285
     40 H          -5.7227    5.4939   28.0412 H       1  UNL1        0.2102
@<TRIPOS>BOND
     1     8     7    1
     2     8     9    1
     3     9    10    1
     4    10    14    1
     5    14    15   ar
     6    15    16   ar
     7    16    17   ar
     8    17    21    1
     9    21    22    1
    10    21    23    2
    11    21    24    2
    12    17    18   ar
    13    18    19   ar
    14    19    20    1
    15    10    11    1
    16    11    12    1
    17    12    13    1
    18    13     1    1
    19     1     2   ar
    20     2     3   ar
    21     3     4   ar
    22     4     5   ar
    23     5    25    1
    24    25    26    2
    25    25    27   am
    26    27    29    1
    27    29    30    1
    28    30    31    1
    29    31    32    1
    30    32    33    1
    31    33    34    1
    32    34    35    1
    33    35    36    1
    34    36    37    1
    35    36    38    1
    36    36    39    1
    37     5     6   ar
    38    13     8    1
    39     6     1   ar
    40    19    14   ar
    41    34    29    1
    42    39    30    1
    43    38    32    1
    44    27    28    1
    45    37    40    1
@<TRIPOS>MOLECULE
*****
 40 45 0 0 0
SMALL
GASTEIGER

@<TRIPOS>ATOM
      1 C          -0.1394    2.7475   24.5098 C.ar    1  UNL1        0.2203
      2 N          -1.1575    3.7342   24.0200 N.ar    1  UNL1       -0.2121
      3 C          -1.5233    3.7751   22.5659 C.ar    1  UNL1        0.1035
      4 C          -0.8709    2.8294   21.6015 C.ar    1  UNL1        0.0445
      5 C           0.1472    1.8427   22.0913 C.ar    1  UNL1        0.1389
      6 N           0.5130    1.8018   23.5454 N.ar    1  UNL1       -0.2090
      7 C           2.1007    4.4554   25.5418 C.3     1  UNL1        0.0233
      8 C           1.3464    3.5605   26.4799 C.3     1  UNL1        0.0953
      9 C           1.7121    3.5196   27.9341 C.3     1  UNL1        0.1106
     10 N           0.9578    2.6247   28.8722 N.pl3   1  UNL1       -0.3024
     11 C          -0.1622    1.7707   28.3563 C.3     1  UNL1        0.1124
     12 C          -0.5279    1.8117   26.9021 C.3     1  UNL1        0.1150
     13 N           0.2264    2.7066   25.9640 N.pl3   1  UNL1       -0.2764
     14 C           1.3235    2.5838   30.3264 C.ar    1  UNL1        0.0758
     15 C           0.9732    3.7361   31.2206 C.ar    1  UNL1        0.0181
     16 C           1.3389    3.6952   32.6747 C.ar    1  UNL1        0.0198
     17 C           2.0550    2.5020   33.2348 C.ar    1  UNL1        0.1080
     18 C           2.4053    1.3497   32.3406 C.ar    1  UNL1        0.0492
     19 C           2.0396    1.3906   30.8864 C.ar    1  UNL1        0.1546
     20 F           2.3899    0.2383   29.9923 F       1  UNL1       -0.2028
     21 S           2.4207    2.4611   34.6889 S.O2    1  UNL1        0.0105
     22 C           2.7864    2.4203   36.1430 C.3     1  UNL1        0.1816
     23 O           3.3231    1.2914   34.4291 O.2     1  UNL1       -0.1686
     24 O           1.5184    3.6308   34.9487 O.2     1  UNL1       -0.1686
     25 C           0.7996    0.8970   21.1269 C.2     1  UNL1        0.2637
     26 O          -0.0067   -0.1911   20.4820 O.2     1  UNL1       -0.2685
     27 N           2.2582    1.0393   20.8074 N.am    1  UNL1       -0.3013
     28 H           2.7874    1.7535   21.2307 H       1  UNL1        0.1497
     29 C           2.9106    0.0936   19.8430 C.3     1  UNL1        0.0719
     30 C           3.5530   -1.1653   20.3456 C.3     1  UNL1        0.0203
     31 C           3.5629   -0.8522   18.8787 C.3     1  UNL1        0.0018
     32 C           4.2153   -1.7979   17.9144 C.3     1  UNL1        0.0024
     33 C           3.5728   -0.5391   17.4118 C.3     1  UNL1        0.0018
     34 C           2.9205    0.4067   18.3761 C.3     1  UNL1        0.0203
     35 C           4.4827   -2.4623   18.7467 C.3     1  UNL1        0.0285
     36 C           4.8478   -3.3699   19.8838 C.3     1  UNL1        0.0884
     37 O           5.4903   -4.6287   20.3864 O.3     1  UNL1       -0.3867
     38 C           4.8577   -3.0568   18.4169 C.3     1  UNL1        0.0269
     39 C           4.1955   -2.4241   20.8481 C.3     1  UNL1        0.0285
     40 H           5.8619   -5.1227   19.6389 H       1  UNL1        0.2102
@<TRIPOS>BOND
     1     8     7    1
     2     8     9    1
     3     9    10    1
     4    10    14    1
     5    14    15   ar
     6    15    16   ar
     7    16    17   ar
     8    17    21    1
     9    21    22    1
    10    21    23    2
    11    21    24    2
    12    17    18   ar
    13    18    19   ar
    14    19    20    1
    15    10    11    1
    16    11    12    1
    17    12    13    1
    18    13     1    1
    19     1     2   ar
    20     2     3   ar
    21     3     4   ar
    22     4     5   ar
    23     5    25    1
    24    25    26    2
    25    25    27   am
    26    27    29    1
    27    29    30    1
    28    30    31    1
    29    31    32    1
    30    32    33    1
    31    33    34    1
    32    34    35    1
    33    35    36    1
    34    36    37    1
    35    36    38    1
    36    36    39    1
    37     5     6   ar
    38    13     8    1
    39     6     1   ar
    40    19    14   ar
    41    34    29    1
    42    39    30    1
    43    38    32    1
    44    27    28    1
    45    37    40    1
@<TRIPOS>MOLECULE
*****
 40 45 0 0 0
SMALL
GASTEIGER

@<TRIPOS>ATOM
      1 C           1.4645    1.6938   26.8997 C.ar    1  UNL1        0.2203
      2 N           0.2280    2.3886   26.4115 N.ar    1  UNL1       -0.2121
      3 C          -0.1064    2.3851   24.9493 C.ar    1  UNL1        0.1035
      4 C           0.7956    1.6867   23.9753 C.ar    1  UNL1        0.0445
      5 C           2.0321    0.9919   24.4636 C.ar    1  UNL1        0.1389
      6 N           2.3665    0.9954   25.9258 N.ar    1  UNL1       -0.2090
      7 C           0.0319   -0.1629   28.7707 C.3     1  UNL1        0.0233
      8 C           1.0826    0.7690   29.2975 C.3     1  UNL1        0.0953
      9 C           1.4171    0.7726   30.7597 C.3     1  UNL1        0.1106
     10 N           2.4678    1.7045   31.2864 N.pl3   1  UNL1       -0.3024
     11 C           3.1841    2.6328   30.3510 C.3     1  UNL1        0.1124
     12 C           2.8497    2.6292   28.8888 C.3     1  UNL1        0.1150
     13 N           1.7989    1.6973   28.3620 N.pl3   1  UNL1       -0.2764
     14 C           2.8023    1.7081   32.7487 C.ar    1  UNL1        0.0758
     15 C           3.8611    0.7869   33.2781 C.ar    1  UNL1        0.0181
     16 C           4.1956    0.7904   34.7403 C.ar    1  UNL1        0.0198
     17 C           3.4711    1.7151   35.6732 C.ar    1  UNL1        0.1080
     18 C           2.4123    2.6363   35.1438 C.ar    1  UNL1        0.0492
     19 C           2.0778    2.6327   33.6815 C.ar    1  UNL1        0.1546
     20 F           1.0189    3.5539   33.1521 F       1  UNL1       -0.2028
     21 S           3.8056    1.7187   37.1354 S.O2    1  UNL1        0.0105
     22 C           4.1400    1.7222   38.5976 C.3     1  UNL1        0.1816
     23 O           2.3434    1.7139   37.4699 O.2     1  UNL1       -0.1686
     24 O           5.2678    1.7234   36.8010 O.2     1  UNL1       -0.1686
     25 C           2.9341    0.2935   23.4895 C.2     1  UNL1        0.2637
     26 O           4.3633    0.7264   23.3477 O.2     1  UNL1       -0.2685
     27 N           2.4070   -0.8377   22.6574 N.am    1  UNL1       -0.3013
     28 H           1.4690   -1.1218   22.7505 H       1  UNL1        0.1497
     29 C           3.3090   -1.5360   21.6834 C.3     1  UNL1        0.0719
     30 C           3.2194   -1.2210   20.2195 C.3     1  UNL1        0.0203
     31 C           4.2110   -2.2343   20.7093 C.3     1  UNL1        0.0018
     32 C           5.1129   -2.9326   19.7353 C.3     1  UNL1        0.0024
     33 C           5.2025   -3.2476   21.1991 C.3     1  UNL1        0.0018
     34 C           4.3006   -2.5493   22.1731 C.3     1  UNL1        0.0203
     35 C           4.6560   -2.3712   18.9096 C.3     1  UNL1        0.0285
     36 C           4.0318   -1.6043   17.7817 C.3     1  UNL1        0.0884
     37 O           3.9421   -1.2893   16.3179 O.3     1  UNL1       -0.3867
     38 C           5.0233   -2.6176   18.2715 C.3     1  UNL1        0.0269
     39 C           3.1298   -0.9060   18.7557 C.3     1  UNL1        0.0285
     40 H           4.5894   -1.8239   15.8319 H       1  UNL1        0.2102
@<TRIPOS>BOND
     1     8     7    1
     2     8     9    1
     3     9    10    1
     4    10    14    1
     5    14    15   ar
     6    15    16   ar
     7    16    17   ar
     8    17    21    1
     9    21    22    1
    10    21    23    2
    11    21    24    2
    12    17    18   ar
    13    18    19   ar
    14    19    20    1
    15    10    11    1
    16    11    12    1
    17    12    13    1
    18    13     1    1
    19     1     2   ar
    20     2     3   ar
    21     3     4   ar
    22     4     5   ar
    23     5    25    1
    24    25    26    2
    25    25    27   am
    26    27    29    1
    27    29    30    1
    28    30    31    1
    29    31    32    1
    30    32    33    1
    31    33    34    1
    32    34    35    1
    33    35    36    1
    34    36    37    1
    35    36    38    1
    36    36    39    1
    37     5     6   ar
    38    13     8    1
    39     6     1   ar
    40    19    14   ar
    41    34    29    1
    42    39    30    1
    43    38    32    1
    44    27    28    1
    45    37    40    1
@<TRIPOS>MOLECULE
*****
 40 45 0 0 0
SMALL
GASTEIGER

@<TRIPOS>ATOM
      1 C           4.5761   -0.9387   29.3363 C.ar    1  UNL1        0.2203
      2 N           4.9606   -0.7834   30.7778 N.ar    1  UNL1       -0.2121
      3 C           6.0471   -1.6378   31.3605 C.ar    1  UNL1        0.1035
      4 C           6.7491   -2.6474   30.5016 C.ar    1  UNL1        0.0445
      5 C           6.3646   -2.8027   29.0600 C.ar    1  UNL1        0.1389
      6 N           5.2781   -1.9483   28.4774 N.ar    1  UNL1       -0.2090
      7 C           5.2724    1.6037   27.9040 C.3     1  UNL1        0.0233
      8 C           3.8377    1.1869   28.0376 C.3     1  UNL1        0.0953
      9 C           2.7511    2.0412   27.4550 C.3     1  UNL1        0.1106
     10 N           1.3164    1.6244   27.5885 N.pl3   1  UNL1       -0.3024
     11 C           0.9682    0.3533   28.3046 C.3     1  UNL1        0.1124
     12 C           2.0548   -0.5011   28.8872 C.3     1  UNL1        0.1150
     13 N           3.4895   -0.0843   28.7537 N.pl3   1  UNL1       -0.2764
     14 C           0.2298    2.4789   27.0059 C.ar    1  UNL1        0.0758
     15 C          -0.1353    3.7779   27.6610 C.ar    1  UNL1        0.0181
     16 C          -1.2218    4.6323   27.0784 C.ar    1  UNL1        0.0198
     17 C          -1.9433    4.1877   25.8407 C.ar    1  UNL1        0.1080
     18 C          -1.5781    2.8886   25.1856 C.ar    1  UNL1        0.0492
     19 C          -0.4916    2.0342   25.7682 C.ar    1  UNL1        0.1546
     20 F          -0.1264    0.7352   25.1131 F       1  UNL1       -0.2028
     21 S          -3.0298    5.0421   25.2581 S.O2    1  UNL1        0.0105
     22 C          -4.1163    5.8965   24.6756 C.3     1  UNL1        0.1816
     23 O          -3.5972    3.8431   24.5579 O.2     1  UNL1       -0.1686
     24 O          -2.4623    6.2411   25.9584 O.2     1  UNL1       -0.1686
     25 C           7.0667   -3.8124   28.2011 C.2     1  UNL1        0.2637
     26 O           8.5410   -4.0377   28.3613 O.2     1  UNL1       -0.2685
     27 N           6.2945   -4.5967   27.1821 N.am    1  UNL1       -0.3013
     28 H           5.3268   -4.4488   27.0770 H       1  UNL1        0.1497
     29 C           6.9966   -5.6064   26.3232 C.3     1  UNL1        0.0719
     30 C           7.4748   -5.2234   24.9540 C.3     1  UNL1        0.0203
     31 C           7.6986   -6.6160   25.4643 C.3     1  UNL1        0.0018
     32 C           8.4007   -7.6256   24.6054 C.3     1  UNL1        0.0024
     33 C           7.9224   -8.0087   25.9745 C.3     1  UNL1        0.0018
     34 C           7.2204   -6.9991   26.8334 C.3     1  UNL1        0.0203
     35 C           8.5082   -6.8752   23.8110 C.3     1  UNL1        0.0285
     36 C           8.6551   -5.8500   22.7260 C.3     1  UNL1        0.0884
     37 O           9.1334   -5.4669   21.3568 O.3     1  UNL1       -0.3867
     38 C           8.8789   -7.2426   23.2362 C.3     1  UNL1        0.0269
     39 C           7.9531   -4.8403   23.5849 C.3     1  UNL1        0.0285
     40 H           9.5624   -6.2300   20.9390 H       1  UNL1        0.2102
@<TRIPOS>BOND
     1     8     7    1
     2     8     9    1
     3     9    10    1
     4    10    14    1
     5    14    15   ar
     6    15    16   ar
     7    16    17   ar
     8    17    21    1
     9    21    22    1
    10    21    23    2
    11    21    24    2
    12    17    18   ar
    13    18    19   ar
    14    19    20    1
    15    10    11    1
    16    11    12    1
    17    12    13    1
    18    13     1    1
    19     1     2   ar
    20     2     3   ar
    21     3     4   ar
    22     4     5   ar
    23     5    25    1
    24    25    26    2
    25    25    27   am
    26    27    29    1
    27    29    30    1
    28    30    31    1
    29    31    32    1
    30    32    33    1
    31    33    34    1
    32    34    35    1
    33    35    36    1
    34    36    37    1
    35    36    38    1
    36    36    39    1
    37     5     6   ar
    38    13     8    1
    39     6     1   ar
    40    19    14   ar
    41    34    29    1
    42    39    30    1
    43    38    32    1
    44    27    28    1
    45    37    40    1
