@<TRIPOS>MOLECULE
*****
 26 29 0 0 0
SMALL
GASTEIGER

@<TRIPOS>ATOM
      1 C          -6.3297  -17.8942   22.7490 C.ar    1  UNL1        0.0456
      2 C          -4.9090  -17.5078   23.0362 C.ar    1  UNL1        0.1327
      3 N          -4.5931  -16.6320   24.2122 N.ar    1  UNL1       -0.2307
      4 C          -5.6978  -16.1426   25.1011 C.ar    1  UNL1        0.0827
      5 C          -5.3819  -15.2667   26.2771 C.ar    1  UNL1        0.0200
      6 C          -6.4866  -14.7773   27.1660 C.ar    1  UNL1        0.0129
      7 C          -7.9072  -15.1637   26.8788 C.ar    1  UNL1        0.0578
      8 CL         -9.0119  -14.6743   27.7677 Cl      1  UNL1       -0.0822
      9 C          -8.2231  -16.0395   25.7027 C.ar    1  UNL1        0.0129
     10 C          -7.1185  -16.5289   24.8139 C.ar    1  UNL1        0.0187
     11 C          -7.4344  -17.4048   23.6378 C.ar    1  UNL1        0.0053
     12 N          -3.8043  -17.9973   22.1473 N.pl3   1  UNL1       -0.2932
     13 C          -3.5790  -19.4699   21.9725 C.3     1  UNL1        0.0922
     14 C          -2.4744  -19.9593   21.0836 C.3     1  UNL1        0.0215
     15 C          -1.5950  -18.9761   20.3695 C.3     1  UNL1        0.0035
     16 C          -1.8202  -17.5035   20.5443 C.3     1  UNL1        0.0215
     17 C          -2.9249  -17.0141   21.4332 C.3     1  UNL1        0.0922
     18 C          -8.8550  -17.7912   23.3506 C.ar    1  UNL1        0.0002
     19 C          -9.4267  -19.0436   23.9463 C.ar    1  UNL1        0.0000
     20 C         -10.8473  -19.4300   23.6591 C.ar    1  UNL1        0.0000
     21 C         -11.6963  -18.5640   22.7762 C.ar    1  UNL1        0.0000
     22 C         -11.1246  -17.3117   22.1806 C.ar    1  UNL1        0.0000
     23 C          -9.7039  -16.9253   22.4678 C.ar    1  UNL1        0.0000
     24 O          -6.9184  -20.2308   21.7774 O.co2   1  UNL1       -0.5445
     25 C          -6.6456  -18.7701   21.5729 C.2     1  UNL1        0.0756
     26 O          -6.6887  -18.1852   20.1923 O.co2   1  UNL1       -0.5445
@<TRIPOS>UNITY_ATOM_ATTR
24 1
charge -1
@<TRIPOS>BOND
     1    24    25   ar
     2    25    26   ar
     3    25     1    1
     4     1     2   ar
     5     2    12    1
     6    12    13    1
     7    13    14    1
     8    14    15    1
     9    15    16    1
    10    16    17    1
    11     2     3   ar
    12     3     4   ar
    13     4     5   ar
    14     5     6   ar
    15     6     7   ar
    16     7     8    1
    17     7     9   ar
    18     9    10   ar
    19    10    11   ar
    20    11    18    1
    21    18    19   ar
    22    19    20   ar
    23    20    21   ar
    24    21    22   ar
    25    22    23   ar
    26    11     1   ar
    27    23    18   ar
    28    17    12    1
    29    10     4   ar
@<TRIPOS>MOLECULE
*****
 26 29 0 0 0
SMALL
GASTEIGER

@<TRIPOS>ATOM
      1 C         -14.7800   -3.9214   18.5700 C.ar    1  UNL1        0.0456
      2 C         -14.0422   -2.6303   18.7664 C.ar    1  UNL1        0.1327
      3 N         -12.5513   -2.6358   18.9306 N.ar    1  UNL1       -0.2307
      4 C         -11.7980   -3.9326   18.8985 C.ar    1  UNL1        0.0827
      5 C         -10.3071   -3.9382   19.0627 C.ar    1  UNL1        0.0200
      6 C          -9.5539   -5.2349   19.0305 C.ar    1  UNL1        0.0129
      7 C         -10.2916   -6.5261   18.8341 C.ar    1  UNL1        0.0578
      8 CL         -9.5383   -7.8229   18.8019 Cl      1  UNL1       -0.0822
      9 C         -11.7826   -6.5206   18.6699 C.ar    1  UNL1        0.0129
     10 C         -12.5358   -5.2238   18.7020 C.ar    1  UNL1        0.0187
     11 C         -14.0268   -5.2182   18.5378 C.ar    1  UNL1        0.0053
     12 N         -14.7955   -1.3334   18.7986 N.pl3   1  UNL1       -0.2932
     13 C         -15.5867   -0.9557   20.0156 C.3     1  UNL1        0.0922
     14 C         -16.3399    0.3410   20.0477 C.3     1  UNL1        0.0215
     15 C         -16.3019    1.2600   18.8628 C.3     1  UNL1        0.0035
     16 C         -15.5107    0.8823   17.6458 C.3     1  UNL1        0.0215
     17 C         -14.7575   -0.4145   17.6137 C.3     1  UNL1        0.0922
     18 C         -14.7645   -6.5094   18.3414 C.ar    1  UNL1        0.0002
     19 C         -14.9296   -7.0766   16.9626 C.ar    1  UNL1        0.0000
     20 C         -15.6674   -8.3678   16.7662 C.ar    1  UNL1        0.0000
     21 C         -16.2400   -9.0917   17.9486 C.ar    1  UNL1        0.0000
     22 C         -16.0749   -8.5245   19.3273 C.ar    1  UNL1        0.0000
     23 C         -15.3372   -7.2333   19.5237 C.ar    1  UNL1        0.0000
     24 O         -16.8757   -3.6763   17.0541 O.co2   1  UNL1       -0.5445
     25 C         -16.2710   -3.9158   18.4058 C.2     1  UNL1        0.0756
     26 O         -17.1572   -4.1497   19.5931 O.co2   1  UNL1       -0.5445
@<TRIPOS>UNITY_ATOM_ATTR
24 1
charge -1
@<TRIPOS>BOND
     1    24    25   ar
     2    25    26   ar
     3    25     1    1
     4     1     2   ar
     5     2    12    1
     6    12    13    1
     7    13    14    1
     8    14    15    1
     9    15    16    1
    10    16    17    1
    11     2     3   ar
    12     3     4   ar
    13     4     5   ar
    14     5     6   ar
    15     6     7   ar
    16     7     8    1
    17     7     9   ar
    18     9    10   ar
    19    10    11   ar
    20    11    18    1
    21    18    19   ar
    22    19    20   ar
    23    20    21   ar
    24    21    22   ar
    25    22    23   ar
    26    11     1   ar
    27    23    18   ar
    28    17    12    1
    29    10     4   ar
@<TRIPOS>MOLECULE
*****
 26 29 0 0 0
SMALL
GASTEIGER

@<TRIPOS>ATOM
      1 C         -14.2967   -5.8775   18.1202 C.ar    1  UNL1        0.0456
      2 C         -15.7584   -5.9076   18.4556 C.ar    1  UNL1        0.1327
      3 N         -16.4854   -4.6305   18.7561 N.ar    1  UNL1       -0.2307
      4 C         -15.7507   -3.3232   18.7211 C.ar    1  UNL1        0.0827
      5 C         -16.4778   -2.0460   19.0216 C.ar    1  UNL1        0.0200
      6 C         -15.7431   -0.7388   18.9866 C.ar    1  UNL1        0.0129
      7 C         -14.2814   -0.7086   18.6512 C.ar    1  UNL1        0.0578
      8 CL        -13.5467    0.5987   18.6162 Cl      1  UNL1       -0.0822
      9 C         -13.5543   -1.9858   18.3507 C.ar    1  UNL1        0.0129
     10 C         -14.2890   -3.2930   18.3857 C.ar    1  UNL1        0.0187
     11 C         -13.5620   -4.5703   18.0852 C.ar    1  UNL1        0.0053
     12 N         -16.4931   -7.2150   18.4906 N.pl3   1  UNL1       -0.2932
     13 C         -17.2966   -7.6557   17.3031 C.3     1  UNL1        0.0922
     14 C         -18.0312   -8.9630   17.3382 C.3     1  UNL1        0.0215
     15 C         -17.9623   -9.8296   18.5606 C.3     1  UNL1        0.0035
     16 C         -17.1588   -9.3888   19.7480 C.3     1  UNL1        0.0215
     17 C         -16.4242   -8.0815   19.7130 C.3     1  UNL1        0.0922
     18 C         -12.1003   -4.5401   17.7498 C.ar    1  UNL1        0.0002
     19 C         -11.0779   -4.5940   18.8462 C.ar    1  UNL1        0.0000
     20 C          -9.6162   -4.5638   18.5108 C.ar    1  UNL1        0.0000
     21 C          -9.1769   -4.4799   17.0790 C.ar    1  UNL1        0.0000
     22 C         -10.1992   -4.4261   15.9827 C.ar    1  UNL1        0.0000
     23 C         -11.6609   -4.4562   16.3181 C.ar    1  UNL1        0.0000
     24 O         -13.7616   -7.8334   16.4959 O.co2   1  UNL1       -0.5445
     25 C         -13.5697   -7.1548   17.8198 C.2     1  UNL1        0.0756
     26 O         -12.6507   -7.7533   18.8431 O.co2   1  UNL1       -0.5445
@<TRIPOS>UNITY_ATOM_ATTR
24 1
charge -1
@<TRIPOS>BOND
     1    24    25   ar
     2    25    26   ar
     3    25     1    1
     4     1     2   ar
     5     2    12    1
     6    12    13    1
     7    13    14    1
     8    14    15    1
     9    15    16    1
    10    16    17    1
    11     2     3   ar
    12     3     4   ar
    13     4     5   ar
    14     5     6   ar
    15     6     7   ar
    16     7     8    1
    17     7     9   ar
    18     9    10   ar
    19    10    11   ar
    20    11    18    1
    21    18    19   ar
    22    19    20   ar
    23    20    21   ar
    24    21    22   ar
    25    22    23   ar
    26    11     1   ar
    27    23    18   ar
    28    17    12    1
    29    10     4   ar
@<TRIPOS>MOLECULE
*****
 26 29 0 0 0
SMALL
GASTEIGER

@<TRIPOS>ATOM
      1 C         -14.3788   -5.8696   18.1743 C.ar    1  UNL1        0.0456
      2 C         -13.5740   -4.6049   18.2267 C.ar    1  UNL1        0.1327
      3 N         -14.2204   -3.3219   18.6581 N.ar    1  UNL1       -0.2307
      4 C         -15.6716   -3.3036   19.0371 C.ar    1  UNL1        0.0827
      5 C         -16.3180   -2.0207   19.4685 C.ar    1  UNL1        0.0200
      6 C         -17.7692   -2.0024   19.8475 C.ar    1  UNL1        0.0129
      7 C         -18.5740   -3.2671   19.7951 C.ar    1  UNL1        0.0578
      8 CL        -20.0253   -3.2488   20.1742 Cl      1  UNL1       -0.0822
      9 C         -17.9276   -4.5501   19.3638 C.ar    1  UNL1        0.0129
     10 C         -16.4765   -4.5684   18.9847 C.ar    1  UNL1        0.0187
     11 C         -15.8300   -5.8514   18.5533 C.ar    1  UNL1        0.0053
     12 N         -12.1228   -4.6232   17.8476 N.pl3   1  UNL1       -0.2932
     13 C         -11.0756   -4.8410   18.8993 C.3     1  UNL1        0.0922
     14 C          -9.6245   -4.8593   18.5202 C.3     1  UNL1        0.0215
     15 C          -9.2204   -4.6598   17.0895 C.3     1  UNL1        0.0035
     16 C         -10.2676   -4.4420   16.0379 C.3     1  UNL1        0.0215
     17 C         -11.7187   -4.4237   16.4169 C.3     1  UNL1        0.0922
     18 C         -16.6348   -7.1161   18.5010 C.ar    1  UNL1        0.0002
     19 C         -16.7113   -8.0068   19.7055 C.ar    1  UNL1        0.0000
     20 C         -17.5161   -9.2716   19.6531 C.ar    1  UNL1        0.0000
     21 C         -18.2444   -9.6456   18.3962 C.ar    1  UNL1        0.0000
     22 C         -18.1679   -8.7549   17.1918 C.ar    1  UNL1        0.0000
     23 C         -17.3631   -7.4901   17.2441 C.ar    1  UNL1        0.0000
     24 O         -12.9162   -7.9466   18.7194 O.co2   1  UNL1       -0.5445
     25 C         -13.7324   -7.1527   17.7429 C.2     1  UNL1        0.0756
     26 O         -13.9022   -7.6417   16.3351 O.co2   1  UNL1       -0.5445
@<TRIPOS>UNITY_ATOM_ATTR
24 1
charge -1
@<TRIPOS>BOND
     1    24    25   ar
     2    25    26   ar
     3    25     1    1
     4     1     2   ar
     5     2    12    1
     6    12    13    1
     7    13    14    1
     8    14    15    1
     9    15    16    1
    10    16    17    1
    11     2     3   ar
    12     3     4   ar
    13     4     5   ar
    14     5     6   ar
    15     6     7   ar
    16     7     8    1
    17     7     9   ar
    18     9    10   ar
    19    10    11   ar
    20    11    18    1
    21    18    19   ar
    22    19    20   ar
    23    20    21   ar
    24    21    22   ar
    25    22    23   ar
    26    11     1   ar
    27    23    18   ar
    28    17    12    1
    29    10     4   ar
@<TRIPOS>MOLECULE
*****
 26 29 0 0 0
SMALL
GASTEIGER

@<TRIPOS>ATOM
      1 C         -14.7740   -4.6061   18.4413 C.ar    1  UNL1        0.0456
      2 C         -13.7330   -5.6861   18.4384 C.ar    1  UNL1        0.1327
      3 N         -14.1070   -7.0893   18.8140 N.ar    1  UNL1       -0.2307
      4 C         -15.5220   -7.4126   19.1925 C.ar    1  UNL1        0.0827
      5 C         -15.8960   -8.8158   19.5681 C.ar    1  UNL1        0.0200
      6 C         -17.3109   -9.1391   19.9466 C.ar    1  UNL1        0.0129
      7 C         -18.3519   -8.0591   19.9495 C.ar    1  UNL1        0.0578
      8 CL        -19.7670   -8.3824   20.3281 Cl      1  UNL1       -0.0822
      9 C         -17.9780   -6.6559   19.5739 C.ar    1  UNL1        0.0129
     10 C         -16.5630   -6.3327   19.1954 C.ar    1  UNL1        0.0187
     11 C         -16.1890   -4.9294   18.8198 C.ar    1  UNL1        0.0053
     12 N         -12.3179   -5.3628   18.0599 N.pl3   1  UNL1       -0.2932
     13 C         -11.8924   -5.4277   16.6230 C.3     1  UNL1        0.0922
     14 C         -10.4774   -5.1044   16.2445 C.3     1  UNL1        0.0215
     15 C          -9.4880   -4.7162   17.3030 C.3     1  UNL1        0.0035
     16 C          -9.9135   -4.6512   18.7398 C.3     1  UNL1        0.0215
     17 C         -11.3285   -4.9745   19.1183 C.3     1  UNL1        0.0922
     18 C         -17.2300   -3.8494   18.8227 C.ar    1  UNL1        0.0002
     19 C         -17.5102   -3.0812   20.0803 C.ar    1  UNL1        0.0000
     20 C         -18.5512   -2.0012   20.0831 C.ar    1  UNL1        0.0000
     21 C         -19.3120   -1.6895   18.8285 C.ar    1  UNL1        0.0000
     22 C         -19.0318   -2.4577   17.5710 C.ar    1  UNL1        0.0000
     23 C         -17.9908   -3.5377   17.5681 C.ar    1  UNL1        0.0000
     24 O         -13.9160   -2.2487   19.1170 O.co2   1  UNL1       -0.5445
     25 C         -14.4000   -3.2029   18.0657 C.2     1  UNL1        0.0756
     26 O         -14.5099   -2.7538   16.6387 O.co2   1  UNL1       -0.5445
@<TRIPOS>UNITY_ATOM_ATTR
24 1
charge -1
@<TRIPOS>BOND
     1    24    25   ar
     2    25    26   ar
     3    25     1    1
     4     1     2   ar
     5     2    12    1
     6    12    13    1
     7    13    14    1
     8    14    15    1
     9    15    16    1
    10    16    17    1
    11     2     3   ar
    12     3     4   ar
    13     4     5   ar
    14     5     6   ar
    15     6     7   ar
    16     7     8    1
    17     7     9   ar
    18     9    10   ar
    19    10    11   ar
    20    11    18    1
    21    18    19   ar
    22    19    20   ar
    23    20    21   ar
    24    21    22   ar
    25    22    23   ar
    26    11     1   ar
    27    23    18   ar
    28    17    12    1
    29    10     4   ar
@<TRIPOS>MOLECULE
*****
 26 29 0 0 0
SMALL
GASTEIGER

@<TRIPOS>ATOM
      1 C          -5.9153  -17.8894   22.1992 C.ar    1  UNL1        0.0456
      2 C          -5.4896  -18.6309   20.9667 C.ar    1  UNL1        0.1327
      3 N          -6.5224  -19.2050   20.0426 N.ar    1  UNL1       -0.2307
      4 C          -7.9808  -19.0377   20.3511 C.ar    1  UNL1        0.0827
      5 C          -9.0135  -19.6118   19.4271 C.ar    1  UNL1        0.0200
      6 C         -10.4718  -19.4445   19.7356 C.ar    1  UNL1        0.0129
      7 C         -10.8974  -18.7030   20.9681 C.ar    1  UNL1        0.0578
      8 CL        -12.3559  -18.5357   21.2766 Cl      1  UNL1       -0.0822
      9 C          -9.8647  -18.1289   21.8921 C.ar    1  UNL1        0.0129
     10 C          -8.4064  -18.2962   21.5836 C.ar    1  UNL1        0.0187
     11 C          -7.3736  -17.7221   22.5077 C.ar    1  UNL1        0.0053
     12 N          -4.0312  -18.7982   20.6582 N.pl3   1  UNL1       -0.2932
     13 C          -3.1734  -19.6614   21.5350 C.3     1  UNL1        0.0922
     14 C          -1.7151  -19.8287   21.2265 C.3     1  UNL1        0.0215
     15 C          -1.1145  -19.1328   20.0412 C.3     1  UNL1        0.0035
     16 C          -1.9724  -18.2695   19.1643 C.3     1  UNL1        0.0215
     17 C          -3.4307  -18.1023   19.4728 C.3     1  UNL1        0.0922
     18 C          -7.7992  -16.9806   23.7402 C.ar    1  UNL1        0.0002
     19 C          -7.5637  -15.5029   23.8453 C.ar    1  UNL1        0.0000
     20 C          -7.9893  -14.7615   25.0779 C.ar    1  UNL1        0.0000
     21 C          -8.6505  -15.4977   26.2052 C.ar    1  UNL1        0.0000
     22 C          -8.8860  -16.9753   26.1000 C.ar    1  UNL1        0.0000
     23 C          -8.4604  -17.7168   24.8675 C.ar    1  UNL1        0.0000
     24 O          -4.4834  -15.8747   22.9995 O.co2   1  UNL1       -0.5445
     25 C          -4.8825  -17.3153   23.1232 C.2     1  UNL1        0.0756
     26 O          -4.2488  -18.1818   24.1709 O.co2   1  UNL1       -0.5445
@<TRIPOS>UNITY_ATOM_ATTR
24 1
charge -1
@<TRIPOS>BOND
     1    24    25   ar
     2    25    26   ar
     3    25     1    1
     4     1     2   ar
     5     2    12    1
     6    12    13    1
     7    13    14    1
     8    14    15    1
     9    15    16    1
    10    16    17    1
    11     2     3   ar
    12     3     4   ar
    13     4     5   ar
    14     5     6   ar
    15     6     7   ar
    16     7     8    1
    17     7     9   ar
    18     9    10   ar
    19    10    11   ar
    20    11    18    1
    21    18    19   ar
    22    19    20   ar
    23    20    21   ar
    24    21    22   ar
    25    22    23   ar
    26    11     1   ar
    27    23    18   ar
    28    17    12    1
    29    10     4   ar
@<TRIPOS>MOLECULE
*****
 26 29 0 0 0
SMALL
GASTEIGER

@<TRIPOS>ATOM
      1 C         -15.5885   -6.8774   18.5984 C.ar    1  UNL1        0.0456
      2 C         -16.9237   -6.3457   19.0282 C.ar    1  UNL1        0.1327
      3 N         -17.0789   -4.8926   19.3659 N.ar    1  UNL1       -0.2307
      4 C         -15.8989   -3.9710   19.2740 C.ar    1  UNL1        0.0827
      5 C         -16.0541   -2.5178   19.6117 C.ar    1  UNL1        0.0200
      6 C         -14.8742   -1.5963   19.5198 C.ar    1  UNL1        0.0129
      7 C         -13.5390   -2.1280   19.0900 C.ar    1  UNL1        0.0578
      8 CL        -12.3590   -1.2064   18.9980 Cl      1  UNL1       -0.0822
      9 C         -13.3838   -3.5811   18.7522 C.ar    1  UNL1        0.0129
     10 C         -14.5637   -4.5026   18.8442 C.ar    1  UNL1        0.0187
     11 C         -14.4086   -5.9559   18.5064 C.ar    1  UNL1        0.0053
     12 N         -18.1037   -7.2673   19.1201 N.pl3   1  UNL1       -0.2932
     13 C         -18.4359   -7.9328   20.4227 C.3     1  UNL1        0.0922
     14 C         -19.6158   -8.8543   20.5146 C.3     1  UNL1        0.0215
     15 C         -20.4635   -9.1104   19.3040 C.3     1  UNL1        0.0035
     16 C         -20.1313   -8.4450   18.0014 C.3     1  UNL1        0.0215
     17 C         -18.9514   -7.5234   17.9095 C.3     1  UNL1        0.0922
     18 C         -13.0734   -6.4876   18.0767 C.ar    1  UNL1        0.0002
     19 C         -12.0361   -6.8296   19.1049 C.ar    1  UNL1        0.0000
     20 C         -10.7009   -7.3613   18.6751 C.ar    1  UNL1        0.0000
     21 C         -10.4031   -7.5509   17.2172 C.ar    1  UNL1        0.0000
     22 C         -11.4404   -7.2090   16.1891 C.ar    1  UNL1        0.0000
     23 C         -12.7756   -6.6773   16.6189 C.ar    1  UNL1        0.0000
     24 O         -15.1601   -9.3281   19.3471 O.co2   1  UNL1       -0.5445
     25 C         -15.4334   -8.3307   18.2606 C.2     1  UNL1        0.0756
     26 O         -15.5515   -8.7864   16.8365 O.co2   1  UNL1       -0.5445
@<TRIPOS>UNITY_ATOM_ATTR
24 1
charge -1
@<TRIPOS>BOND
     1    24    25   ar
     2    25    26   ar
     3    25     1    1
     4     1     2   ar
     5     2    12    1
     6    12    13    1
     7    13    14    1
     8    14    15    1
     9    15    16    1
    10    16    17    1
    11     2     3   ar
    12     3     4   ar
    13     4     5   ar
    14     5     6   ar
    15     6     7   ar
    16     7     8    1
    17     7     9   ar
    18     9    10   ar
    19    10    11   ar
    20    11    18    1
    21    18    19   ar
    22    19    20   ar
    23    20    21   ar
    24    21    22   ar
    25    22    23   ar
    26    11     1   ar
    27    23    18   ar
    28    17    12    1
    29    10     4   ar
@<TRIPOS>MOLECULE
*****
 26 29 0 0 0
SMALL
GASTEIGER

@<TRIPOS>ATOM
      1 C           4.1211    0.9634   34.5764 C.ar    1  UNL1        0.0456
      2 C           3.1355    2.0198   34.9797 C.ar    1  UNL1        0.1327
      3 N           2.0450    2.4283   34.0343 N.ar    1  UNL1       -0.2307
      4 C           1.9400    1.7803   32.6854 C.ar    1  UNL1        0.0827
      5 C           0.8495    2.1888   31.7400 C.ar    1  UNL1        0.0200
      6 C           0.7446    1.5409   30.3913 C.ar    1  UNL1        0.0129
      7 C           1.7302    0.4845   29.9880 C.ar    1  UNL1        0.0578
      8 CL          1.6252   -0.1634   28.6391 Cl      1  UNL1       -0.0822
      9 C           2.8207    0.0760   30.9334 C.ar    1  UNL1        0.0129
     10 C           2.9256    0.7239   32.2821 C.ar    1  UNL1        0.0187
     11 C           4.0161    0.3155   33.2277 C.ar    1  UNL1        0.0053
     12 N           3.2404    2.6677   36.3285 N.pl3   1  UNL1       -0.2932
     13 C           2.5901    2.0293   37.5199 C.3     1  UNL1        0.0922
     14 C           2.6951    2.6772   38.8686 C.3     1  UNL1        0.0215
     15 C           3.4504    3.9636   39.0260 C.3     1  UNL1        0.0035
     16 C           4.1007    4.6021   37.8346 C.3     1  UNL1        0.0215
     17 C           3.9957    3.9541   36.4859 C.3     1  UNL1        0.0922
     18 C           5.0017   -0.7409   32.8244 C.ar    1  UNL1        0.0002
     19 C           4.6944   -2.1878   33.0738 C.ar    1  UNL1        0.0000
     20 C           5.6800   -3.2442   32.6706 C.ar    1  UNL1        0.0000
     21 C           6.9729   -2.8537   32.0178 C.ar    1  UNL1        0.0000
     22 C           7.2801   -1.4069   31.7683 C.ar    1  UNL1        0.0000
     23 C           6.2946   -0.3505   32.1716 C.ar    1  UNL1        0.0000
     24 O           4.9818   -0.5650   36.4930 O.co2   1  UNL1       -0.5445
     25 C           5.2116    0.5550   35.5219 C.2     1  UNL1        0.0756
     26 O           6.5318    1.2664   35.4964 O.co2   1  UNL1       -0.5445
@<TRIPOS>UNITY_ATOM_ATTR
24 1
charge -1
@<TRIPOS>BOND
     1    24    25   ar
     2    25    26   ar
     3    25     1    1
     4     1     2   ar
     5     2    12    1
     6    12    13    1
     7    13    14    1
     8    14    15    1
     9    15    16    1
    10    16    17    1
    11     2     3   ar
    12     3     4   ar
    13     4     5   ar
    14     5     6   ar
    15     6     7   ar
    16     7     8    1
    17     7     9   ar
    18     9    10   ar
    19    10    11   ar
    20    11    18    1
    21    18    19   ar
    22    19    20   ar
    23    20    21   ar
    24    21    22   ar
    25    22    23   ar
    26    11     1   ar
    27    23    18   ar
    28    17    12    1
    29    10     4   ar
@<TRIPOS>MOLECULE
*****
 26 29 0 0 0
SMALL
GASTEIGER

@<TRIPOS>ATOM
      1 C           2.2939    0.7353   20.5152 C.ar    1  UNL1        0.0456
      2 C           1.5523    1.6243   21.4691 C.ar    1  UNL1        0.1327
      3 N           1.7275    1.4487   22.9484 N.ar    1  UNL1       -0.2307
      4 C           2.6442    0.3840   23.4740 C.ar    1  UNL1        0.0827
      5 C           2.8193    0.2084   24.9533 C.ar    1  UNL1        0.0200
      6 C           3.7360   -0.8562   25.4788 C.ar    1  UNL1        0.0129
      7 C           4.4776   -1.7452   24.5250 C.ar    1  UNL1        0.0578
      8 CL          5.3943   -2.8099   25.0506 Cl      1  UNL1       -0.0822
      9 C           4.3025   -1.5696   23.0457 C.ar    1  UNL1        0.0129
     10 C           3.3858   -0.5050   22.5201 C.ar    1  UNL1        0.0187
     11 C           3.2106   -0.3293   21.0408 C.ar    1  UNL1        0.0053
     12 N           0.6356    2.6890   20.9435 N.pl3   1  UNL1       -0.2932
     13 C          -0.8230    2.3956   20.7528 C.3     1  UNL1        0.0922
     14 C          -1.7396    3.4603   20.2273 C.3     1  UNL1        0.0215
     15 C          -1.1977    4.8182   19.8924 C.3     1  UNL1        0.0035
     16 C           0.2609    5.1116   20.0830 C.3     1  UNL1        0.0215
     17 C           1.1776    4.0469   20.6085 C.3     1  UNL1        0.0922
     18 C           3.9522   -1.2183   20.0869 C.ar    1  UNL1        0.0002
     19 C           3.3571   -2.5297   19.6671 C.ar    1  UNL1        0.0000
     20 C           4.0987   -3.4187   18.7133 C.ar    1  UNL1        0.0000
     21 C           5.4353   -2.9963   18.1793 C.ar    1  UNL1        0.0000
     22 C           6.0303   -1.6850   18.5992 C.ar    1  UNL1        0.0000
     23 C           5.2887   -0.7960   19.5530 C.ar    1  UNL1        0.0000
     24 O           0.9129    0.3400   18.3504 O.co2   1  UNL1       -0.5445
     25 C           2.1187    0.9110   19.0358 C.2     1  UNL1        0.0756
     26 O           3.1494    1.6576   18.2420 O.co2   1  UNL1       -0.5445
@<TRIPOS>UNITY_ATOM_ATTR
24 1
charge -1
@<TRIPOS>BOND
     1    24    25   ar
     2    25    26   ar
     3    25     1    1
     4     1     2   ar
     5     2    12    1
     6    12    13    1
     7    13    14    1
     8    14    15    1
     9    15    16    1
    10    16    17    1
    11     2     3   ar
    12     3     4   ar
    13     4     5   ar
    14     5     6   ar
    15     6     7   ar
    16     7     8    1
    17     7     9   ar
    18     9    10   ar
    19    10    11   ar
    20    11    18    1
    21    18    19   ar
    22    19    20   ar
    23    20    21   ar
    24    21    22   ar
    25    22    23   ar
    26    11     1   ar
    27    23    18   ar
    28    17    12    1
    29    10     4   ar
