@<TRIPOS>MOLECULE
*****
 28 30 0 0 0
SMALL
GASTEIGER

@<TRIPOS>ATOM
      1 C           6.8090   -4.0011   23.5074 C.ar    1  UNL1        0.0274
      2 C           5.3663   -3.5921   23.4699 C.ar    1  UNL1        0.0013
      3 C           4.6752   -3.4002   22.1525 C.ar    1  UNL1        0.0145
      4 C           5.4267   -3.6173   20.8727 C.ar    1  UNL1        0.0513
      5 C           6.8694   -4.0263   20.9102 C.ar    1  UNL1        0.0509
      6 C           7.5605   -4.2182   22.2275 C.ar    1  UNL1        0.1322
      7 O           9.0032   -4.6272   22.2651 O.3     1  UNL1       -0.5057
      8 H           9.4726   -4.7628   21.4656 H       1  UNL1        0.2922
      9 N           4.7355   -3.4254   19.5553 N.pl3   1  UNL1       -0.3124
     10 H           4.2563   -4.1767   19.1368 H       1  UNL1        0.1522
     11 C           4.7745   -2.0888   18.8756 C.ar    1  UNL1        0.0513
     12 C           5.9533   -1.7127   18.0277 C.ar    1  UNL1        0.0353
     13 C           5.9923   -0.3762   17.3480 C.ar    1  UNL1        0.1001
     14 N           4.8525    0.5843   17.5162 N.ar    1  UNL1       -0.2437
     15 C           3.6737    0.2083   18.3641 C.ar    1  UNL1        0.0833
     16 C           2.5339    1.1688   18.5323 C.ar    1  UNL1        0.0305
     17 C           1.3551    0.7927   19.3802 C.ar    1  UNL1        0.0592
     18 CL          0.2153    1.7532   19.5484 Cl      1  UNL1       -0.0822
     19 C           1.3161   -0.5439   20.0599 C.ar    1  UNL1        0.0115
     20 C           2.4559   -1.5044   19.8917 C.ar    1  UNL1        0.0036
     21 C           3.6347   -1.1283   19.0438 C.ar    1  UNL1        0.0312
     22 C           7.5001   -4.1930   24.8248 C.3     1  UNL1        0.0986
     23 N           8.3647   -5.3979   25.0497 N.3     1  UNL1       -0.2958
     24 H           8.7640   -5.6469   24.1447 H       1  UNL1        0.1235
     25 C           8.3683   -7.4461   24.4974 C.3     1  UNL1        0.0158
     26 C           7.7705   -6.6514   25.6203 C.3     1  UNL1        0.0423
     27 C           7.1726   -5.8568   26.7433 C.3     1  UNL1        0.0158
     28 C           7.1763   -7.9049   26.1910 C.3     1  UNL1        0.0158
@<TRIPOS>BOND
     1    25    26    1
     2    26    27    1
     3    26    28    1
     4    26    23    1
     5    23    22    1
     6    22     1    1
     7     1     2   ar
     8     2     3   ar
     9     3     4   ar
    10     4     9    1
    11     9    11    1
    12    11    12   ar
    13    12    13   ar
    14    13    14   ar
    15    14    15   ar
    16    15    16   ar
    17    16    17   ar
    18    17    18    1
    19    17    19   ar
    20    19    20   ar
    21    20    21   ar
    22     4     5   ar
    23     5     6   ar
    24     6     7    1
    25     6     1   ar
    26    21    11   ar
    27    21    15   ar
    28    23    24    1
    29     9    10    1
    30     7     8    1
@<TRIPOS>MOLECULE
*****
 28 30 0 0 0
SMALL
GASTEIGER

@<TRIPOS>ATOM
      1 C           6.6641   -3.7787   23.1609 C.ar    1  UNL1        0.0274
      2 C           7.0231   -4.1427   21.7508 C.ar    1  UNL1        0.0013
      3 C           6.0414   -3.9053   20.6417 C.ar    1  UNL1        0.0145
      4 C           4.7007   -3.3038   20.9429 C.ar    1  UNL1        0.0513
      5 C           4.3416   -2.9398   22.3531 C.ar    1  UNL1        0.0509
      6 C           5.3233   -3.1773   23.4621 C.ar    1  UNL1        0.1322
      7 O           4.9643   -2.8133   24.8722 O.3     1  UNL1       -0.5057
      8 H           4.1268   -2.4375   25.0604 H       1  UNL1        0.2922
      9 N           3.7191   -3.0664   19.8338 N.pl3   1  UNL1       -0.3124
     10 H           3.0472   -3.7522   19.6160 H       1  UNL1        0.1522
     11 C           3.7611   -1.7840   19.0568 C.ar    1  UNL1        0.0513
     12 C           4.8531   -1.5492   18.0556 C.ar    1  UNL1        0.0353
     13 C           4.8951   -0.2668   17.2786 C.ar    1  UNL1        0.1001
     14 N           3.8451    0.7807   17.5028 N.ar    1  UNL1       -0.2437
     15 C           2.7532    0.5459   18.5040 C.ar    1  UNL1        0.0833
     16 C           1.7032    1.5934   18.7282 C.ar    1  UNL1        0.0305
     17 C           0.6112    1.3586   19.7293 C.ar    1  UNL1        0.0592
     18 CL         -0.4387    2.4062   19.9535 Cl      1  UNL1       -0.0822
     19 C           0.5692    0.0762   20.5064 C.ar    1  UNL1        0.0115
     20 C           1.6191   -0.9713   20.2822 C.ar    1  UNL1        0.0036
     21 C           2.7112   -0.7365   19.2810 C.ar    1  UNL1        0.0312
     22 C           7.6458   -4.0162   24.2699 C.3     1  UNL1        0.0986
     23 N           8.5042   -5.2462   24.2611 N.3     1  UNL1       -0.2958
     24 H           8.6357   -5.5065   23.2837 H       1  UNL1        0.1235
     25 C           8.5321   -7.3245   23.8369 C.3     1  UNL1        0.0158
     26 C           8.0518   -6.4818   24.9811 C.3     1  UNL1        0.0423
     27 C           7.5714   -5.6391   26.1253 C.3     1  UNL1        0.0158
     28 C           7.5993   -7.7174   25.7012 C.3     1  UNL1        0.0158
@<TRIPOS>BOND
     1    25    26    1
     2    26    27    1
     3    26    28    1
     4    26    23    1
     5    23    22    1
     6    22     1    1
     7     1     2   ar
     8     2     3   ar
     9     3     4   ar
    10     4     9    1
    11     9    11    1
    12    11    12   ar
    13    12    13   ar
    14    13    14   ar
    15    14    15   ar
    16    15    16   ar
    17    16    17   ar
    18    17    18    1
    19    17    19   ar
    20    19    20   ar
    21    20    21   ar
    22     4     5   ar
    23     5     6   ar
    24     6     7    1
    25     6     1   ar
    26    21    11   ar
    27    21    15   ar
    28    23    24    1
    29     9    10    1
    30     7     8    1
@<TRIPOS>MOLECULE
*****
 28 30 0 0 0
SMALL
GASTEIGER

@<TRIPOS>ATOM
      1 C           6.4102   -3.4711   24.4883 C.ar    1  UNL1        0.0274
      2 C           7.1721   -4.1368   23.3809 C.ar    1  UNL1        0.0013
      3 C           6.6098   -4.1572   21.9905 C.ar    1  UNL1        0.0145
      4 C           5.2856   -3.5119   21.7074 C.ar    1  UNL1        0.0513
      5 C           4.5237   -2.8462   22.8148 C.ar    1  UNL1        0.0509
      6 C           5.0860   -2.8258   24.2053 C.ar    1  UNL1        0.1322
      7 O           4.3242   -2.1600   25.3127 O.3     1  UNL1       -0.5057
      8 H           3.4970   -1.7570   25.1359 H       1  UNL1        0.2922
      9 N           4.7233   -3.5324   20.3169 N.pl3   1  UNL1       -0.3124
     10 H           4.2157   -4.3152   20.0027 H       1  UNL1        0.1522
     11 C           4.9344   -2.3600   19.4053 C.ar    1  UNL1        0.0513
     12 C           6.2362   -2.2008   18.6773 C.ar    1  UNL1        0.0353
     13 C           6.4472   -1.0285   17.7657 C.ar    1  UNL1        0.1001
     14 N           5.3564   -0.0153   17.5821 N.ar    1  UNL1       -0.2437
     15 C           4.0547   -0.1745   18.3101 C.ar    1  UNL1        0.0833
     16 C           2.9639    0.8387   18.1264 C.ar    1  UNL1        0.0305
     17 C           1.6621    0.6796   18.8544 C.ar    1  UNL1        0.0592
     18 CL          0.5714    1.6927   18.6708 Cl      1  UNL1       -0.0822
     19 C           1.4511   -0.4928   19.7661 C.ar    1  UNL1        0.0115
     20 C           2.5418   -1.5060   19.9497 C.ar    1  UNL1        0.0036
     21 C           3.8436   -1.3468   19.2217 C.ar    1  UNL1        0.0312
     22 C           6.9725   -3.4506   25.8788 C.3     1  UNL1        0.0986
     23 N           6.0728   -3.6881   27.0552 N.3     1  UNL1       -0.2958
     24 H           5.8851   -2.7758   27.4712 H       1  UNL1        0.1235
     25 C           6.4572   -5.7659   27.2414 C.3     1  UNL1        0.0158
     26 C           6.5169   -4.5889   28.1693 C.3     1  UNL1        0.0423
     27 C           6.5765   -3.4119   29.0973 C.3     1  UNL1        0.0158
     28 C           6.9609   -5.4898   29.2835 C.3     1  UNL1        0.0158
@<TRIPOS>BOND
     1    25    26    1
     2    26    27    1
     3    26    28    1
     4    26    23    1
     5    23    22    1
     6    22     1    1
     7     1     2   ar
     8     2     3   ar
     9     3     4   ar
    10     4     9    1
    11     9    11    1
    12    11    12   ar
    13    12    13   ar
    14    13    14   ar
    15    14    15   ar
    16    15    16   ar
    17    16    17   ar
    18    17    18    1
    19    17    19   ar
    20    19    20   ar
    21    20    21   ar
    22     4     5   ar
    23     5     6   ar
    24     6     7    1
    25     6     1   ar
    26    21    11   ar
    27    21    15   ar
    28    23    24    1
    29     9    10    1
    30     7     8    1
@<TRIPOS>MOLECULE
*****
 28 30 0 0 0
SMALL
GASTEIGER

@<TRIPOS>ATOM
      1 C           2.2501   -0.4754   19.7251 C.ar    1  UNL1        0.0274
      2 C           0.9465   -0.2485   20.4315 C.ar    1  UNL1        0.0013
      3 C           0.2757    1.0911   20.3558 C.ar    1  UNL1        0.0145
      4 C           0.9085    2.2037   19.5738 C.ar    1  UNL1        0.0513
      5 C           2.2122    1.9768   18.8674 C.ar    1  UNL1        0.0509
      6 C           2.8830    0.6373   18.9430 C.ar    1  UNL1        0.1322
      7 O           4.1866    0.4103   18.2366 O.3     1  UNL1       -0.5057
      8 H           4.5819    1.1054   17.7481 H       1  UNL1        0.2922
      9 N           0.2377    3.5432   19.4982 N.pl3   1  UNL1       -0.3124
     10 H           0.6906    4.3414   19.8546 H       1  UNL1        0.1522
     11 C          -1.1233    3.6666   18.8796 C.ar    1  UNL1        0.0513
     12 C          -1.2632    3.7726   17.3899 C.ar    1  UNL1        0.0353
     13 C          -2.6241    3.8960   16.7714 C.ar    1  UNL1        0.1001
     14 N          -3.8451    3.9133   17.6425 N.ar    1  UNL1       -0.2437
     15 C          -3.7052    3.8073   19.1322 C.ar    1  UNL1        0.0833
     16 C          -4.9262    3.8246   20.0033 C.ar    1  UNL1        0.0305
     17 C          -4.7863    3.7185   21.4930 C.ar    1  UNL1        0.0592
     18 CL         -6.0073    3.7359   22.3641 Cl      1  UNL1       -0.0822
     19 C          -3.4253    3.5951   22.1116 C.ar    1  UNL1        0.0115
     20 C          -2.2043    3.5778   21.2405 C.ar    1  UNL1        0.0036
     21 C          -2.3443    3.6839   19.7507 C.ar    1  UNL1        0.0312
     22 C           2.9209   -1.8149   19.8007 C.3     1  UNL1        0.0986
     23 N           3.6866   -2.3379   18.6217 N.3     1  UNL1       -0.2958
     24 H           3.0229   -2.4172   17.8512 H       1  UNL1        0.1235
     25 C           3.1238   -4.3169   19.1381 C.3     1  UNL1        0.0158
     26 C           4.4009   -3.6536   18.7150 C.3     1  UNL1        0.0423
     27 C           5.6780   -2.9902   18.2919 C.3     1  UNL1        0.0158
     28 C           5.1152   -4.9693   18.8083 C.3     1  UNL1        0.0158
@<TRIPOS>BOND
     1    25    26    1
     2    26    27    1
     3    26    28    1
     4    26    23    1
     5    23    22    1
     6    22     1    1
     7     1     2   ar
     8     2     3   ar
     9     3     4   ar
    10     4     9    1
    11     9    11    1
    12    11    12   ar
    13    12    13   ar
    14    13    14   ar
    15    14    15   ar
    16    15    16   ar
    17    16    17   ar
    18    17    18    1
    19    17    19   ar
    20    19    20   ar
    21    20    21   ar
    22     4     5   ar
    23     5     6   ar
    24     6     7    1
    25     6     1   ar
    26    21    11   ar
    27    21    15   ar
    28    23    24    1
    29     9    10    1
    30     7     8    1
@<TRIPOS>MOLECULE
*****
 28 30 0 0 0
SMALL
GASTEIGER

@<TRIPOS>ATOM
      1 C           4.8953   -2.4256   18.9412 C.ar    1  UNL1        0.0274
      2 C           4.3447   -2.9748   20.2238 C.ar    1  UNL1        0.0013
      3 C           5.2739   -3.5299   21.2622 C.ar    1  UNL1        0.0145
      4 C           6.7539   -3.5357   21.0181 C.ar    1  UNL1        0.0513
      5 C           7.3046   -2.9864   19.7355 C.ar    1  UNL1        0.0509
      6 C           6.3754   -2.4314   18.6970 C.ar    1  UNL1        0.1322
      7 O           6.9260   -1.8821   17.4144 O.3     1  UNL1       -0.5057
      8 H           7.8505   -1.8857   17.2619 H       1  UNL1        0.2922
      9 N           7.6832   -4.0907   22.0566 N.pl3   1  UNL1       -0.3124
     10 H           8.5215   -4.5287   21.7833 H       1  UNL1        0.1522
     11 C           7.3352   -3.9783   23.5114 C.ar    1  UNL1        0.0513
     12 C           6.8165   -2.6824   24.0605 C.ar    1  UNL1        0.0353
     13 C           6.4686   -2.5700   25.5152 C.ar    1  UNL1        0.1001
     14 N           6.6394   -3.7535   26.4208 N.ar    1  UNL1       -0.2437
     15 C           7.1582   -5.0494   25.8717 C.ar    1  UNL1        0.0833
     16 C           7.3290   -6.2329   26.7773 C.ar    1  UNL1        0.0305
     17 C           7.8477   -7.5288   26.2282 C.ar    1  UNL1        0.0592
     18 CL          8.0185   -8.7123   27.1338 Cl      1  UNL1       -0.0822
     19 C           8.1957   -7.6412   24.7734 C.ar    1  UNL1        0.0115
     20 C           8.0248   -6.4577   23.8678 C.ar    1  UNL1        0.0036
     21 C           7.5061   -5.1618   24.4170 C.ar    1  UNL1        0.0312
     22 C           3.9660   -1.8706   17.9028 C.3     1  UNL1        0.0986
     23 N           4.2204   -0.5132   17.3172 N.3     1  UNL1       -0.2958
     24 H           5.2182   -0.4636   17.1114 H       1  UNL1        0.1235
     25 C           5.3087    1.1641   18.0260 C.3     1  UNL1        0.0158
     26 C           3.8784    0.7183   18.1023 C.3     1  UNL1        0.0423
     27 C           2.4482    0.2726   18.1786 C.3     1  UNL1        0.0158
     28 C           3.5365    1.9499   18.8873 C.3     1  UNL1        0.0158
@<TRIPOS>BOND
     1    25    26    1
     2    26    27    1
     3    26    28    1
     4    26    23    1
     5    23    22    1
     6    22     1    1
     7     1     2   ar
     8     2     3   ar
     9     3     4   ar
    10     4     9    1
    11     9    11    1
    12    11    12   ar
    13    12    13   ar
    14    13    14   ar
    15    14    15   ar
    16    15    16   ar
    17    16    17   ar
    18    17    18    1
    19    17    19   ar
    20    19    20   ar
    21    20    21   ar
    22     4     5   ar
    23     5     6   ar
    24     6     7    1
    25     6     1   ar
    26    21    11   ar
    27    21    15   ar
    28    23    24    1
    29     9    10    1
    30     7     8    1
@<TRIPOS>MOLECULE
*****
 28 30 0 0 0
SMALL
GASTEIGER

@<TRIPOS>ATOM
      1 C           6.2684   -1.7872   32.8173 C.ar    1  UNL1        0.0274
      2 C           7.4606   -0.9476   33.1690 C.ar    1  UNL1        0.0013
      3 C           7.4250   -0.0648   34.3812 C.ar    1  UNL1        0.0145
      4 C           6.1971   -0.0217   35.2417 C.ar    1  UNL1        0.0513
      5 C           5.0049   -0.8613   34.8900 C.ar    1  UNL1        0.0509
      6 C           5.0405   -1.7440   33.6778 C.ar    1  UNL1        0.1322
      7 O           3.8483   -2.5836   33.3261 O.3     1  UNL1       -0.5057
      8 H           3.0813   -2.5567   33.8636 H       1  UNL1        0.2922
      9 N           6.1615    0.8611   36.4539 N.pl3   1  UNL1       -0.3124
     10 H           6.6828    0.6205   37.2536 H       1  UNL1        0.1522
     11 C           5.3314    2.1105   36.4477 C.ar    1  UNL1        0.0513
     12 C           5.7980    3.3172   35.6886 C.ar    1  UNL1        0.0353
     13 C           4.9679    4.5665   35.6824 C.ar    1  UNL1        0.1001
     14 N           3.6713    4.6092   36.4353 N.ar    1  UNL1       -0.2437
     15 C           3.2047    3.4026   37.1944 C.ar    1  UNL1        0.0833
     16 C           1.9080    3.4453   37.9473 C.ar    1  UNL1        0.0305
     17 C           1.4414    2.2387   38.7064 C.ar    1  UNL1        0.0592
     18 CL          0.1447    2.2814   39.4593 Cl      1  UNL1       -0.0822
     19 C           2.2715    0.9892   38.7126 C.ar    1  UNL1        0.0115
     20 C           3.5681    0.9465   37.9597 C.ar    1  UNL1        0.0036
     21 C           4.0347    2.1533   37.2006 C.ar    1  UNL1        0.0312
     22 C           6.3041   -2.6699   31.6051 C.3     1  UNL1        0.0986
     23 N           6.4067   -4.1580   31.7636 N.3     1  UNL1       -0.2958
     24 H           7.0325   -4.3277   32.5510 H       1  UNL1        0.1235
     25 C           7.1768   -6.1260   31.5801 C.3     1  UNL1        0.0158
     26 C           6.9029   -5.0010   30.6265 C.3     1  UNL1        0.0423
     27 C           6.6290   -3.8759   29.6729 C.3     1  UNL1        0.0158
     28 C           7.3992   -5.8440   29.4894 C.3     1  UNL1        0.0158
@<TRIPOS>BOND
     1    25    26    1
     2    26    27    1
     3    26    28    1
     4    26    23    1
     5    23    22    1
     6    22     1    1
     7     1     2   ar
     8     2     3   ar
     9     3     4   ar
    10     4     9    1
    11     9    11    1
    12    11    12   ar
    13    12    13   ar
    14    13    14   ar
    15    14    15   ar
    16    15    16   ar
    17    16    17   ar
    18    17    18    1
    19    17    19   ar
    20    19    20   ar
    21    20    21   ar
    22     4     5   ar
    23     5     6   ar
    24     6     7    1
    25     6     1   ar
    26    21    11   ar
    27    21    15   ar
    28    23    24    1
    29     9    10    1
    30     7     8    1
@<TRIPOS>MOLECULE
*****
 28 30 0 0 0
SMALL
GASTEIGER

@<TRIPOS>ATOM
      1 C           1.6169    1.2437   18.9067 C.ar    1  UNL1        0.0274
      2 C           1.7881    2.6864   18.5332 C.ar    1  UNL1        0.0013
      3 C           0.8827    3.7265   19.1236 C.ar    1  UNL1        0.0145
      4 C          -0.1938    3.3240   20.0874 C.ar    1  UNL1        0.0513
      5 C          -0.3651    1.8813   20.4608 C.ar    1  UNL1        0.0509
      6 C           0.5402    0.8412   19.8705 C.ar    1  UNL1        0.1322
      7 O           0.3690   -0.6014   20.2439 O.3     1  UNL1       -0.5057
      8 H          -0.3035   -0.8529   20.8460 H       1  UNL1        0.2922
      9 N          -1.0992    4.3641   20.6777 N.pl3   1  UNL1       -0.3124
     10 H          -0.7714    5.2825   20.8129 H       1  UNL1        0.1522
     11 C          -2.5039    4.0048   21.0621 C.ar    1  UNL1        0.0513
     12 C          -3.5121    3.6794   20.0002 C.ar    1  UNL1        0.0353
     13 C          -4.9168    3.3201   20.3846 C.ar    1  UNL1        0.1001
     14 N          -5.3133    3.2863   21.8308 N.ar    1  UNL1       -0.2437
     15 C          -4.3051    3.6117   22.8927 C.ar    1  UNL1        0.0833
     16 C          -4.7016    3.5779   24.3390 C.ar    1  UNL1        0.0305
     17 C          -3.6934    3.9034   25.4008 C.ar    1  UNL1        0.0592
     18 CL         -4.0899    3.8696   26.8471 Cl      1  UNL1       -0.0822
     19 C          -2.2887    4.2627   25.0165 C.ar    1  UNL1        0.0115
     20 C          -1.8922    4.2965   23.5702 C.ar    1  UNL1        0.0036
     21 C          -2.9004    3.9710   22.5083 C.ar    1  UNL1        0.0312
     22 C           2.5222    0.2036   18.3163 C.3     1  UNL1        0.0986
     23 N           3.0215   -0.9263   19.1671 N.3     1  UNL1       -0.2958
     24 H           3.4200   -0.5080   20.0078 H       1  UNL1        0.1235
     25 C           3.7639   -2.8260   19.7502 C.3     1  UNL1        0.0158
     26 C           4.0500   -1.8748   18.6262 C.3     1  UNL1        0.0423
     27 C           4.3360   -0.9236   17.5022 C.3     1  UNL1        0.0158
     28 C           5.0784   -2.8233   18.0852 C.3     1  UNL1        0.0158
@<TRIPOS>BOND
     1    25    26    1
     2    26    27    1
     3    26    28    1
     4    26    23    1
     5    23    22    1
     6    22     1    1
     7     1     2   ar
     8     2     3   ar
     9     3     4   ar
    10     4     9    1
    11     9    11    1
    12    11    12   ar
    13    12    13   ar
    14    13    14   ar
    15    14    15   ar
    16    15    16   ar
    17    16    17   ar
    18    17    18    1
    19    17    19   ar
    20    19    20   ar
    21    20    21   ar
    22     4     5   ar
    23     5     6   ar
    24     6     7    1
    25     6     1   ar
    26    21    11   ar
    27    21    15   ar
    28    23    24    1
    29     9    10    1
    30     7     8    1
@<TRIPOS>MOLECULE
*****
 28 30 0 0 0
SMALL
GASTEIGER

@<TRIPOS>ATOM
      1 C           1.4728    0.1354   20.5479 C.ar    1  UNL1        0.0274
      2 C           1.3924    0.5195   21.9957 C.ar    1  UNL1        0.0013
      3 C           0.6388    1.7503   22.4043 C.ar    1  UNL1        0.0145
      4 C          -0.0345    2.5971   21.3653 C.ar    1  UNL1        0.0513
      5 C           0.0459    2.2131   19.9175 C.ar    1  UNL1        0.0509
      6 C           0.7996    0.9822   19.5088 C.ar    1  UNL1        0.1322
      7 O           0.8800    0.5981   18.0611 O.3     1  UNL1       -0.5057
      8 H           0.4594    1.1271   17.4120 H       1  UNL1        0.2922
      9 N          -0.7881    3.8280   21.7740 N.pl3   1  UNL1       -0.3124
     10 H          -0.3791    4.7162   21.6597 H       1  UNL1        0.1522
     11 C          -2.1649    3.7055   22.3568 C.ar    1  UNL1        0.0513
     12 C          -2.3444    3.6097   23.8429 C.ar    1  UNL1        0.0353
     13 C          -3.7211    3.4873   24.4256 C.ar    1  UNL1        0.1001
     14 N          -4.9183    3.4605   23.5222 N.ar    1  UNL1       -0.2437
     15 C          -4.7387    3.5563   22.0361 C.ar    1  UNL1        0.0833
     16 C          -5.9359    3.5295   21.1328 C.ar    1  UNL1        0.0305
     17 C          -5.7563    3.6252   19.6467 C.ar    1  UNL1        0.0592
     18 CL         -6.9535    3.5985   18.7433 Cl      1  UNL1       -0.0822
     19 C          -4.3796    3.7477   19.0639 C.ar    1  UNL1        0.0115
     20 C          -3.1824    3.7745   19.9672 C.ar    1  UNL1        0.0036
     21 C          -3.3620    3.6787   21.4534 C.ar    1  UNL1        0.0312
     22 C           2.2264   -1.0955   20.1392 C.3     1  UNL1        0.0986
     23 N           3.3004   -1.0055   19.0960 N.3     1  UNL1       -0.2958
     24 H           2.8393   -0.7640   18.2188 H       1  UNL1        0.1235
     25 C           3.6762   -2.8551   20.0643 C.3     1  UNL1        0.0158
     26 C           4.1733   -2.1923   18.8139 C.3     1  UNL1        0.0423
     27 C           4.6704   -1.5294   17.5634 C.3     1  UNL1        0.0158
     28 C           5.0462   -3.3791   18.5317 C.3     1  UNL1        0.0158
@<TRIPOS>BOND
     1    25    26    1
     2    26    27    1
     3    26    28    1
     4    26    23    1
     5    23    22    1
     6    22     1    1
     7     1     2   ar
     8     2     3   ar
     9     3     4   ar
    10     4     9    1
    11     9    11    1
    12    11    12   ar
    13    12    13   ar
    14    13    14   ar
    15    14    15   ar
    16    15    16   ar
    17    16    17   ar
    18    17    18    1
    19    17    19   ar
    20    19    20   ar
    21    20    21   ar
    22     4     5   ar
    23     5     6   ar
    24     6     7    1
    25     6     1   ar
    26    21    11   ar
    27    21    15   ar
    28    23    24    1
    29     9    10    1
    30     7     8    1
@<TRIPOS>MOLECULE
*****
 28 30 0 0 0
SMALL
GASTEIGER

@<TRIPOS>ATOM
      1 C           4.3997   -2.8354   22.7579 C.ar    1  UNL1        0.0274
      2 C           3.5010   -1.7134   22.3297 C.ar    1  UNL1        0.0013
      3 C           3.2537   -0.5568   23.2522 C.ar    1  UNL1        0.0145
      4 C           3.9051   -0.5222   24.6030 C.ar    1  UNL1        0.0513
      5 C           4.8038   -1.6443   25.0312 C.ar    1  UNL1        0.0509
      6 C           5.0511   -2.8009   24.1086 C.ar    1  UNL1        0.1322
      7 O           5.9498   -3.9229   24.5368 O.3     1  UNL1       -0.5057
      8 H           6.3568   -3.9013   25.3806 H       1  UNL1        0.2922
      9 N           3.6577    0.6344   25.5255 N.pl3   1  UNL1       -0.3124
     10 H           4.1727    1.4668   25.4203 H       1  UNL1        0.1522
     11 C           2.6257    0.5226   26.6084 C.ar    1  UNL1        0.0513
     12 C           2.9020   -0.3107   27.8246 C.ar    1  UNL1        0.0353
     13 C           1.8701   -0.4224   28.9074 C.ar    1  UNL1        0.1001
     14 N           0.5618    0.2992   28.7740 N.ar    1  UNL1       -0.2437
     15 C           0.2855    1.1325   27.5578 C.ar    1  UNL1        0.0833
     16 C          -1.0228    1.8540   27.4243 C.ar    1  UNL1        0.0305
     17 C          -1.2991    2.6873   26.2081 C.ar    1  UNL1        0.0592
     18 CL         -2.6073    3.4088   26.0747 Cl      1  UNL1       -0.0822
     19 C          -0.2671    2.7990   25.1252 C.ar    1  UNL1        0.0115
     20 C           1.0412    2.0775   25.2586 C.ar    1  UNL1        0.0036
     21 C           1.3175    1.2442   26.4750 C.ar    1  UNL1        0.0312
     22 C           4.6470   -3.9920   21.8353 C.3     1  UNL1        0.0986
     23 N           5.7990   -3.9528   20.8754 N.3     1  UNL1       -0.2958
     24 H           6.5196   -3.3718   21.3039 H       1  UNL1        0.1235
     25 C           4.3956   -4.3197   19.3275 C.3     1  UNL1        0.0158
     26 C           5.5970   -3.4349   19.4822 C.3     1  UNL1        0.0423
     27 C           6.7984   -2.5502   19.6369 C.3     1  UNL1        0.0158
     28 C           5.3950   -2.9171   18.0890 C.3     1  UNL1        0.0158
@<TRIPOS>BOND
     1    25    26    1
     2    26    27    1
     3    26    28    1
     4    26    23    1
     5    23    22    1
     6    22     1    1
     7     1     2   ar
     8     2     3   ar
     9     3     4   ar
    10     4     9    1
    11     9    11    1
    12    11    12   ar
    13    12    13   ar
    14    13    14   ar
    15    14    15   ar
    16    15    16   ar
    17    16    17   ar
    18    17    18    1
    19    17    19   ar
    20    19    20   ar
    21    20    21   ar
    22     4     5   ar
    23     5     6   ar
    24     6     7    1
    25     6     1   ar
    26    21    11   ar
    27    21    15   ar
    28    23    24    1
    29     9    10    1
    30     7     8    1
