@<TRIPOS>MOLECULE
*****
 32 35 0 0 0
SMALL
GASTEIGER

@<TRIPOS>ATOM
      1 C          -2.5085  -17.9785   23.0694 C.3     1  UNL1        0.1383
      2 N          -3.8422  -18.3634   22.5008 N.ar    1  UNL1       -0.2455
      3 C          -5.0515  -17.5247   22.7911 C.ar    1  UNL1        0.2816
      4 O          -4.9271  -16.3012   23.6499 O.2     1  UNL1       -0.2652
      5 C          -6.3851  -17.9096   22.2226 C.ar    1  UNL1        0.1342
      6 C          -6.5095  -19.1331   21.3638 C.ar    1  UNL1        0.0871
      7 C          -7.9443  -19.2620   20.9456 C.ar    1  UNL1        0.0515
      8 C          -8.7066  -18.1181   21.5459 C.ar    1  UNL1        0.1142
      9 N          -7.7430  -17.2823   22.3351 N.ar    1  UNL1       -0.3068
     10 N          -5.3003  -19.9718   21.0735 N.ar    1  UNL1       -0.2776
     11 C          -5.4246  -21.1954   20.2147 C.3     1  UNL1        0.1351
     12 C          -3.9666  -19.5869   21.6421 C.ar    1  UNL1        0.3339
     13 O          -2.7572  -20.4256   21.3519 O.2     1  UNL1       -0.2462
     14 N         -10.1748  -17.8561   21.3852 N.pl3   1  UNL1       -0.2931
     15 C         -11.1692  -18.6446   22.1848 C.3     1  UNL1        0.0922
     16 C         -12.6374  -18.3824   22.0241 C.3     1  UNL1        0.0229
     17 C         -13.1111  -17.3319   21.0638 C.3     1  UNL1        0.0190
     18 C         -12.1166  -16.5435   20.2643 C.3     1  UNL1        0.0709
     19 N         -12.5902  -15.4930   19.3041 N.3     1  UNL1       -0.3208
     20 C         -10.6484  -16.8056   20.4250 C.3     1  UNL1        0.1075
     21 H         -11.7860  -15.0600   18.8499 H       1  UNL1        0.1189
     22 H         -13.1179  -14.7822   19.8108 H       1  UNL1        0.1189
     23 C          -8.0784  -16.0377   23.1022 C.3     1  UNL1        0.1348
     24 C          -7.6776  -15.9134   24.5423 C.ar    1  UNL1        0.0123
     25 C          -6.5431  -15.0119   24.9299 C.ar    1  UNL1        0.0279
     26 C          -6.1422  -14.8876   26.3700 C.ar    1  UNL1        0.1399
     27 F          -5.0077  -13.9862   26.7576 F       1  UNL1       -0.2042
     28 C          -6.8760  -15.6647   27.4226 C.ar    1  UNL1        0.0303
     29 C          -8.0105  -16.5661   27.0350 C.ar    1  UNL1        0.0123
     30 C          -8.4114  -16.6905   25.5949 C.ar    1  UNL1        0.0664
     31 C          -9.5458  -17.5919   25.2073 C.1     1  UNL1        0.1002
     32 N         -10.6804  -18.4933   24.8196 N.1     1  UNL1       -0.1908
@<TRIPOS>BOND
     1     1     2    1
     2     2     3   ar
     3     3     4    2
     4     3     5   ar
     5     5     6   ar
     6     6     7   ar
     7     7     8   ar
     8     8    14    1
     9    14    15    1
    10    15    16    1
    11    16    17    1
    12    17    18    1
    13    18    19    1
    14    18    20    1
    15     8     9   ar
    16     9    23    1
    17    23    24    1
    18    24    25   ar
    19    25    26   ar
    20    26    27    1
    21    26    28   ar
    22    28    29   ar
    23    29    30   ar
    24    30    31    1
    25    31    32    3
    26     6    10   ar
    27    10    11    1
    28    10    12   ar
    29    12    13    2
    30    12     2   ar
    31     9     5   ar
    32    30    24   ar
    33    20    14    1
    34    19    21    1
    35    19    22    1
@<TRIPOS>MOLECULE
*****
 32 35 0 0 0
SMALL
GASTEIGER

@<TRIPOS>ATOM
      1 C          -2.6362  -19.0420   21.8669 C.3     1  UNL1        0.1383
      2 N          -4.0954  -19.2090   21.5622 N.ar    1  UNL1       -0.2455
      3 C          -5.0795  -18.1712   22.0146 C.ar    1  UNL1        0.2816
      4 O          -4.6044  -16.9666   22.7716 O.2     1  UNL1       -0.2652
      5 C          -6.5387  -18.3381   21.7099 C.ar    1  UNL1        0.1342
      6 C          -7.0139  -19.5428   20.9529 C.ar    1  UNL1        0.0871
      7 C          -8.5023  -19.4369   20.8001 C.ar    1  UNL1        0.0515
      8 C          -8.9471  -18.1668   21.4627 C.ar    1  UNL1        0.1142
      9 N          -7.7335  -17.4877   22.0250 N.ar    1  UNL1       -0.3068
     10 N          -6.0298  -20.5805   20.5005 N.ar    1  UNL1       -0.2776
     11 C          -6.5049  -21.7852   19.7434 C.3     1  UNL1        0.1351
     12 C          -4.5705  -20.4135   20.8052 C.ar    1  UNL1        0.3339
     13 O          -3.5864  -21.4513   20.3528 O.2     1  UNL1       -0.2462
     14 N         -10.3577  -17.6640   21.5480 N.pl3   1  UNL1       -0.2931
     15 C         -11.1978  -17.9872   22.7479 C.3     1  UNL1        0.0922
     16 C         -12.6085  -17.4843   22.8331 C.3     1  UNL1        0.0229
     17 C         -13.1790  -16.6584   21.7185 C.3     1  UNL1        0.0190
     18 C         -12.3389  -16.3352   20.5187 C.3     1  UNL1        0.0709
     19 N         -12.9093  -15.5093   19.4041 N.3     1  UNL1       -0.3208
     20 C         -10.9282  -16.8381   20.4334 C.3     1  UNL1        0.1075
     21 H         -12.2055  -15.3886   18.6757 H       1  UNL1        0.1189
     22 H         -13.1856  -14.5960   19.7646 H       1  UNL1        0.1189
     23 C          -7.7176  -16.1867   22.7713 C.3     1  UNL1        0.1348
     24 C          -7.5404  -16.1786   24.2608 C.ar    1  UNL1        0.0123
     25 C          -8.5778  -16.8076   25.1430 C.ar    1  UNL1        0.0279
     26 C          -8.4006  -16.7995   26.6324 C.ar    1  UNL1        0.1399
     27 F          -9.4381  -17.4284   27.5146 F       1  UNL1       -0.2042
     28 C          -7.1859  -16.1625   27.2398 C.ar    1  UNL1        0.0303
     29 C          -6.1485  -15.5337   26.3577 C.ar    1  UNL1        0.0123
     30 C          -6.3257  -15.5417   24.8682 C.ar    1  UNL1        0.0664
     31 C          -5.2883  -14.9128   23.9861 C.1     1  UNL1        0.1002
     32 N          -4.2508  -14.2839   23.1039 N.1     1  UNL1       -0.1908
@<TRIPOS>BOND
     1     1     2    1
     2     2     3   ar
     3     3     4    2
     4     3     5   ar
     5     5     6   ar
     6     6     7   ar
     7     7     8   ar
     8     8    14    1
     9    14    15    1
    10    15    16    1
    11    16    17    1
    12    17    18    1
    13    18    19    1
    14    18    20    1
    15     8     9   ar
    16     9    23    1
    17    23    24    1
    18    24    25   ar
    19    25    26   ar
    20    26    27    1
    21    26    28   ar
    22    28    29   ar
    23    29    30   ar
    24    30    31    1
    25    31    32    3
    26     6    10   ar
    27    10    11    1
    28    10    12   ar
    29    12    13    2
    30    12     2   ar
    31     9     5   ar
    32    30    24   ar
    33    20    14    1
    34    19    21    1
    35    19    22    1
@<TRIPOS>MOLECULE
*****
 32 35 0 0 0
SMALL
GASTEIGER

@<TRIPOS>ATOM
      1 C          -1.2184  -16.4438   21.5356 C.3     1  UNL1        0.1383
      2 N          -2.3746  -17.3891   21.3944 N.ar    1  UNL1       -0.2455
      3 C          -3.7072  -17.0377   21.9866 C.ar    1  UNL1        0.2816
      4 O          -3.8837  -15.7410   22.7198 O.2     1  UNL1       -0.2652
      5 C          -4.8633  -17.9829   21.8454 C.ar    1  UNL1        0.1342
      6 C          -4.6868  -19.2795   21.1122 C.ar    1  UNL1        0.0871
      7 C          -5.9988  -20.0062   21.1332 C.ar    1  UNL1        0.0515
      8 C          -6.9862  -19.1588   21.8795 C.ar    1  UNL1        0.1142
      9 N          -6.2844  -17.9083   22.3197 N.ar    1  UNL1       -0.3068
     10 N          -3.3542  -19.6309   20.5201 N.ar    1  UNL1       -0.2776
     11 C          -3.1777  -20.9275   19.7868 C.3     1  UNL1        0.1351
     12 C          -2.1981  -18.6856   20.6612 C.ar    1  UNL1        0.3339
     13 O          -0.8654  -19.0370   20.0691 O.2     1  UNL1       -0.2462
     14 N          -8.4231  -19.5016   22.1399 N.pl3   1  UNL1       -0.2931
     15 C          -9.3901  -19.5983   20.9972 C.3     1  UNL1        0.0922
     16 C         -10.8270  -19.9411   21.2577 C.3     1  UNL1        0.0229
     17 C         -11.2969  -20.1873   22.6608 C.3     1  UNL1        0.0190
     18 C         -10.3300  -20.0906   23.8034 C.3     1  UNL1        0.0709
     19 N         -10.7998  -20.3368   25.2065 N.3     1  UNL1       -0.3208
     20 C          -8.8931  -19.7478   23.5429 C.3     1  UNL1        0.1075
     21 H         -10.0165  -20.2299   25.8510 H       1  UNL1        0.1189
     22 H         -11.1730  -21.2833   25.2789 H       1  UNL1        0.1189
     23 C          -6.8964  -16.7811   23.0975 C.3     1  UNL1        0.1348
     24 C          -8.3462  -16.4434   22.9138 C.ar    1  UNL1        0.0123
     25 C          -8.9031  -16.2536   21.5339 C.ar    1  UNL1        0.0279
     26 C         -10.3530  -15.9160   21.3502 C.ar    1  UNL1        0.1399
     27 F         -10.9099  -15.7262   19.9704 F       1  UNL1       -0.2042
     28 C         -11.2461  -15.7680   22.5463 C.ar    1  UNL1        0.0303
     29 C         -10.6892  -15.9578   23.9260 C.ar    1  UNL1        0.0123
     30 C          -9.2393  -16.2955   24.1099 C.ar    1  UNL1        0.0664
     31 C          -8.6825  -16.4852   25.4896 C.1     1  UNL1        0.1002
     32 N          -8.1256  -16.6750   26.8694 N.1     1  UNL1       -0.1908
@<TRIPOS>BOND
     1     1     2    1
     2     2     3   ar
     3     3     4    2
     4     3     5   ar
     5     5     6   ar
     6     6     7   ar
     7     7     8   ar
     8     8    14    1
     9    14    15    1
    10    15    16    1
    11    16    17    1
    12    17    18    1
    13    18    19    1
    14    18    20    1
    15     8     9   ar
    16     9    23    1
    17    23    24    1
    18    24    25   ar
    19    25    26   ar
    20    26    27    1
    21    26    28   ar
    22    28    29   ar
    23    29    30   ar
    24    30    31    1
    25    31    32    3
    26     6    10   ar
    27    10    11    1
    28    10    12   ar
    29    12    13    2
    30    12     2   ar
    31     9     5   ar
    32    30    24   ar
    33    20    14    1
    34    19    21    1
    35    19    22    1
@<TRIPOS>MOLECULE
*****
 32 35 0 0 0
SMALL
GASTEIGER

@<TRIPOS>ATOM
      1 C          -1.6167  -18.0525   22.7698 C.3     1  UNL1        0.1383
      2 N          -2.9263  -18.5040   22.1941 N.ar    1  UNL1       -0.2455
      3 C          -4.1973  -17.8121   22.5888 C.ar    1  UNL1        0.2816
      4 O          -4.1588  -16.6688   23.5590 O.2     1  UNL1       -0.2652
      5 C          -5.5069  -18.2635   22.0132 C.ar    1  UNL1        0.1342
      6 C          -5.5454  -19.4069   21.0430 C.ar    1  UNL1        0.0871
      7 C          -6.9743  -19.6282   20.6438 C.ar    1  UNL1        0.0515
      8 C          -7.8188  -18.6216   21.3673 C.ar    1  UNL1        0.1142
      9 N          -6.9120  -17.7782   22.2136 N.ar    1  UNL1       -0.3068
     10 N          -4.2744  -20.0988   20.6483 N.ar    1  UNL1       -0.2776
     11 C          -4.3128  -21.2421   19.6781 C.3     1  UNL1        0.1351
     12 C          -2.9648  -19.6473   21.2240 C.ar    1  UNL1        0.3339
     13 O          -1.6937  -20.3392   20.8293 O.2     1  UNL1       -0.2462
     14 N          -9.3087  -18.4827   21.2628 N.pl3   1  UNL1       -0.2931
     15 C         -10.2033  -19.5229   21.8692 C.3     1  UNL1        0.0922
     16 C         -11.6932  -19.3840   21.7647 C.3     1  UNL1        0.0229
     17 C         -12.2886  -18.2049   21.0538 C.3     1  UNL1        0.0190
     18 C         -11.3940  -17.1648   20.4474 C.3     1  UNL1        0.0709
     19 N         -11.9893  -15.9857   19.7365 N.3     1  UNL1       -0.3208
     20 C          -9.9041  -17.3037   20.5519 C.3     1  UNL1        0.1075
     21 H         -11.2416  -15.3848   19.3896 H       1  UNL1        0.1189
     22 H         -12.5760  -15.4591   20.3838 H       1  UNL1        0.1189
     23 C          -7.3358  -16.6479   23.1041 C.3     1  UNL1        0.1348
     24 C          -8.0632  -16.9340   24.3843 C.ar    1  UNL1        0.0123
     25 C          -9.2621  -17.8354   24.3804 C.ar    1  UNL1        0.0279
     26 C          -9.9895  -18.1215   25.6607 C.ar    1  UNL1        0.1399
     27 F         -11.1885  -19.0229   25.6568 F       1  UNL1       -0.2042
     28 C          -9.5180  -17.5061   26.9449 C.ar    1  UNL1        0.0303
     29 C          -8.3192  -16.6047   26.9487 C.ar    1  UNL1        0.0123
     30 C          -7.5917  -16.3186   25.6685 C.ar    1  UNL1        0.0664
     31 C          -6.3928  -15.4172   25.6724 C.1     1  UNL1        0.1002
     32 N          -5.1939  -14.5158   25.6763 N.1     1  UNL1       -0.1908
@<TRIPOS>BOND
     1     1     2    1
     2     2     3   ar
     3     3     4    2
     4     3     5   ar
     5     5     6   ar
     6     6     7   ar
     7     7     8   ar
     8     8    14    1
     9    14    15    1
    10    15    16    1
    11    16    17    1
    12    17    18    1
    13    18    19    1
    14    18    20    1
    15     8     9   ar
    16     9    23    1
    17    23    24    1
    18    24    25   ar
    19    25    26   ar
    20    26    27    1
    21    26    28   ar
    22    28    29   ar
    23    29    30   ar
    24    30    31    1
    25    31    32    3
    26     6    10   ar
    27    10    11    1
    28    10    12   ar
    29    12    13    2
    30    12     2   ar
    31     9     5   ar
    32    30    24   ar
    33    20    14    1
    34    19    21    1
    35    19    22    1
@<TRIPOS>MOLECULE
*****
 32 35 0 0 0
SMALL
GASTEIGER

@<TRIPOS>ATOM
      1 C          -1.5809    3.1306   20.1022 C.3     1  UNL1        0.1383
      2 N          -0.1691    2.8724   19.6659 N.ar    1  UNL1       -0.2455
      3 C           0.5152    1.5963   20.0572 C.ar    1  UNL1        0.2816
      4 O          -0.2122    0.5784   20.8848 O.2     1  UNL1       -0.2652
      5 C           1.9269    1.3380   19.6210 C.ar    1  UNL1        0.1342
      6 C           2.6543    2.3559   18.7934 C.ar    1  UNL1        0.0871
      7 C           4.0300    1.8279   18.5130 C.ar    1  UNL1        0.0515
      8 C           4.1529    0.4838   19.1672 C.ar    1  UNL1        0.1142
      9 N           2.8531    0.1810   19.8520 N.ar    1  UNL1       -0.3068
     10 N           1.9699    3.6320   18.4020 N.ar    1  UNL1       -0.2776
     11 C           2.6973    4.6499   17.5744 C.3     1  UNL1        0.1351
     12 C           0.5582    3.8902   18.8383 C.ar    1  UNL1        0.3339
     13 O          -0.1263    5.1664   18.4470 O.2     1  UNL1       -0.2462
     14 N           5.3631   -0.4021   19.1413 N.pl3   1  UNL1       -0.2931
     15 C           5.5592   -1.3711   18.0133 C.3     1  UNL1        0.0922
     16 C           6.7694   -2.2570   17.9874 C.3     1  UNL1        0.0229
     17 C           7.7835   -2.1738   19.0895 C.3     1  UNL1        0.0190
     18 C           7.5874   -1.2048   20.2176 C.3     1  UNL1        0.0709
     19 N           8.6015   -1.1216   21.3197 N.3     1  UNL1       -0.3208
     20 C           6.3772   -0.3189   20.2434 C.3     1  UNL1        0.1075
     21 H           8.3107   -0.4161   21.9967 H       1  UNL1        0.1189
     22 H           9.5080   -0.8647   20.9290 H       1  UNL1        0.1189
     23 C           2.5354   -1.0608   20.6311 C.3     1  UNL1        0.1348
     24 C           3.1085   -1.2520   22.0041 C.ar    1  UNL1        0.0123
     25 C           2.7479   -0.3008   23.1064 C.ar    1  UNL1        0.0279
     26 C           3.3209   -0.4920   24.4794 C.ar    1  UNL1        0.1399
     27 F           2.9603    0.4592   25.5817 F       1  UNL1       -0.2042
     28 C           4.2546   -1.6344   24.7500 C.ar    1  UNL1        0.0303
     29 C           4.6152   -2.5856   23.6477 C.ar    1  UNL1        0.0123
     30 C           4.0422   -2.3945   22.2747 C.ar    1  UNL1        0.0664
     31 C           4.4027   -3.3456   21.1724 C.1     1  UNL1        0.1002
     32 N           4.7633   -4.2968   20.0700 N.1     1  UNL1       -0.1908
@<TRIPOS>BOND
     1     1     2    1
     2     2     3   ar
     3     3     4    2
     4     3     5   ar
     5     5     6   ar
     6     6     7   ar
     7     7     8   ar
     8     8    14    1
     9    14    15    1
    10    15    16    1
    11    16    17    1
    12    17    18    1
    13    18    19    1
    14    18    20    1
    15     8     9   ar
    16     9    23    1
    17    23    24    1
    18    24    25   ar
    19    25    26   ar
    20    26    27    1
    21    26    28   ar
    22    28    29   ar
    23    29    30   ar
    24    30    31    1
    25    31    32    3
    26     6    10   ar
    27    10    11    1
    28    10    12   ar
    29    12    13    2
    30    12     2   ar
    31     9     5   ar
    32    30    24   ar
    33    20    14    1
    34    19    21    1
    35    19    22    1
@<TRIPOS>MOLECULE
*****
 32 35 0 0 0
SMALL
GASTEIGER

@<TRIPOS>ATOM
      1 C          -0.6290    3.3531   18.3340 C.3     1  UNL1        0.1383
      2 N          -0.1771    2.6609   19.5857 N.ar    1  UNL1       -0.2455
      3 C          -0.4765    3.2640   20.9260 C.ar    1  UNL1        0.2816
      4 O          -1.2277    4.5593   21.0146 O.2     1  UNL1       -0.2652
      5 C          -0.0247    2.5719   22.1777 C.ar    1  UNL1        0.1342
      6 C           0.7265    1.2766   22.0891 C.ar    1  UNL1        0.0871
      7 C           1.0424    0.8274   23.4850 C.ar    1  UNL1        0.0515
      8 C           0.4864    1.8452   24.4363 C.ar    1  UNL1        0.1142
      9 N          -0.1731    2.9233   23.6284 N.ar    1  UNL1       -0.3068
     10 N           1.0260    0.6734   20.7488 N.ar    1  UNL1       -0.2776
     11 C           1.7772   -0.6219   20.6601 C.3     1  UNL1        0.1351
     12 C           0.5741    1.3656   19.4970 C.ar    1  UNL1        0.3339
     13 O           0.8735    0.7624   18.1566 O.2     1  UNL1       -0.2462
     14 N           0.5744    1.7938   25.9329 N.pl3   1  UNL1       -0.2931
     15 C           1.7409    2.4204   26.6375 C.3     1  UNL1        0.0922
     16 C           1.8288    2.3690   28.1341 C.3     1  UNL1        0.0229
     17 C           0.7503    1.6910   28.9260 C.3     1  UNL1        0.0190
     18 C          -0.4163    1.0645   28.2213 C.3     1  UNL1        0.0709
     19 N          -1.4949    0.3865   29.0131 N.3     1  UNL1       -0.3208
     20 C          -0.5042    1.1159   26.7247 C.3     1  UNL1        0.1075
     21 H          -2.2037    0.0199   28.3778 H       1  UNL1        0.1189
     22 H          -1.9234    1.0589   29.6492 H       1  UNL1        0.1189
     23 C          -0.8604    4.1393   24.1752 C.3     1  UNL1        0.1348
     24 C          -2.2881    4.0542   24.6273 C.ar    1  UNL1        0.0123
     25 C          -3.3664    3.7052   23.6447 C.ar    1  UNL1        0.0279
     26 C          -4.7941    3.6202   24.0968 C.ar    1  UNL1        0.1399
     27 F          -5.8724    3.2712   23.1142 F       1  UNL1       -0.2042
     28 C          -5.1436    3.8841   25.5315 C.ar    1  UNL1        0.0303
     29 C          -4.0653    4.2331   26.5140 C.ar    1  UNL1        0.0123
     30 C          -2.6375    4.3182   26.0620 C.ar    1  UNL1        0.0664
     31 C          -1.5593    4.6672   27.0445 C.1     1  UNL1        0.1002
     32 N          -0.4810    5.0162   28.0271 N.1     1  UNL1       -0.1908
@<TRIPOS>BOND
     1     1     2    1
     2     2     3   ar
     3     3     4    2
     4     3     5   ar
     5     5     6   ar
     6     6     7   ar
     7     7     8   ar
     8     8    14    1
     9    14    15    1
    10    15    16    1
    11    16    17    1
    12    17    18    1
    13    18    19    1
    14    18    20    1
    15     8     9   ar
    16     9    23    1
    17    23    24    1
    18    24    25   ar
    19    25    26   ar
    20    26    27    1
    21    26    28   ar
    22    28    29   ar
    23    29    30   ar
    24    30    31    1
    25    31    32    3
    26     6    10   ar
    27    10    11    1
    28    10    12   ar
    29    12    13    2
    30    12     2   ar
    31     9     5   ar
    32    30    24   ar
    33    20    14    1
    34    19    21    1
    35    19    22    1
@<TRIPOS>MOLECULE
*****
 32 35 0 0 0
SMALL
GASTEIGER

@<TRIPOS>ATOM
      1 C           5.9589   -2.6146   28.1072 C.3     1  UNL1        0.1383
      2 N           5.1503   -1.8912   27.0712 N.ar    1  UNL1       -0.2455
      3 C           5.4851   -2.0443   25.6171 C.ar    1  UNL1        0.2816
      4 O           6.6284   -2.9207   25.1989 O.2     1  UNL1       -0.2652
      5 C           4.6766   -1.3210   24.5812 C.ar    1  UNL1        0.1342
      6 C           3.5333   -0.4446   24.9994 C.ar    1  UNL1        0.0871
      7 C           2.9199    0.1393   23.7613 C.ar    1  UNL1        0.0515
      8 C           3.6841   -0.3762   22.5780 C.ar    1  UNL1        0.1142
      9 N           4.7698   -1.2787   23.0847 N.ar    1  UNL1       -0.3068
     10 N           3.1986   -0.2915   26.4535 N.ar    1  UNL1       -0.2776
     11 C           2.0553    0.5848   26.8718 C.3     1  UNL1        0.1351
     12 C           4.0071   -1.0149   27.4894 C.ar    1  UNL1        0.3339
     13 O           3.6723   -0.8618   28.9436 O.2     1  UNL1       -0.2462
     14 N           3.4106   -0.0470   21.1404 N.pl3   1  UNL1       -0.2931
     15 C           2.3405   -0.7854   20.3923 C.3     1  UNL1        0.0922
     16 C           2.0670   -0.4561   18.9546 C.3     1  UNL1        0.0229
     17 C           2.8637    0.6115   18.2650 C.3     1  UNL1        0.0190
     18 C           3.9338    1.3499   19.0131 C.3     1  UNL1        0.0709
     19 N           4.7305    2.4175   18.3236 N.3     1  UNL1       -0.3208
     20 C           4.2072    1.0206   20.4508 C.3     1  UNL1        0.1075
     21 H           5.4084    2.8109   18.9763 H       1  UNL1        0.1189
     22 H           4.1034    3.1539   17.9996 H       1  UNL1        0.1189
     23 C           5.7726   -2.0104   22.2427 C.3     1  UNL1        0.1348
     24 C           5.3219   -2.7710   21.0309 C.ar    1  UNL1        0.0123
     25 C           4.3613   -3.9138   21.1770 C.ar    1  UNL1        0.0279
     26 C           3.9107   -4.6744   19.9653 C.ar    1  UNL1        0.1399
     27 F           2.9501   -5.8171   20.1114 F       1  UNL1       -0.2042
     28 C           4.4206   -4.2922   18.6073 C.ar    1  UNL1        0.0303
     29 C           5.3811   -3.1494   18.4612 C.ar    1  UNL1        0.0123
     30 C           5.8318   -2.3888   19.6729 C.ar    1  UNL1        0.0664
     31 C           6.7924   -1.2461   19.5268 C.1     1  UNL1        0.1002
     32 N           7.7530   -0.1033   19.3807 N.1     1  UNL1       -0.1908
@<TRIPOS>BOND
     1     1     2    1
     2     2     3   ar
     3     3     4    2
     4     3     5   ar
     5     5     6   ar
     6     6     7   ar
     7     7     8   ar
     8     8    14    1
     9    14    15    1
    10    15    16    1
    11    16    17    1
    12    17    18    1
    13    18    19    1
    14    18    20    1
    15     8     9   ar
    16     9    23    1
    17    23    24    1
    18    24    25   ar
    19    25    26   ar
    20    26    27    1
    21    26    28   ar
    22    28    29   ar
    23    29    30   ar
    24    30    31    1
    25    31    32    3
    26     6    10   ar
    27    10    11    1
    28    10    12   ar
    29    12    13    2
    30    12     2   ar
    31     9     5   ar
    32    30    24   ar
    33    20    14    1
    34    19    21    1
    35    19    22    1
@<TRIPOS>MOLECULE
*****
 32 35 0 0 0
SMALL
GASTEIGER

@<TRIPOS>ATOM
      1 C           2.9289    0.5815   27.7681 C.3     1  UNL1        0.1383
      2 N           3.6130   -0.3116   26.7758 N.ar    1  UNL1       -0.2455
      3 C           3.1912   -0.2952   25.3365 C.ar    1  UNL1        0.2816
      4 O           2.0853    0.6142   24.8894 O.2     1  UNL1       -0.2652
      5 C           3.8753   -1.1883   24.3443 C.ar    1  UNL1        0.1342
      6 C           4.9812   -2.0977   24.7914 C.ar    1  UNL1        0.0871
      7 C           5.4670   -2.8601   23.5944 C.ar    1  UNL1        0.0515
      8 C           4.6613   -2.4219   22.4075 C.ar    1  UNL1        0.1142
      9 N           3.6776   -1.3886   22.8709 N.ar    1  UNL1       -0.3068
     10 N           5.4031   -2.1141   26.2308 N.ar    1  UNL1       -0.2776
     11 C           6.5090   -3.0235   26.6780 C.3     1  UNL1        0.1351
     12 C           4.7189   -1.2210   27.2230 C.ar    1  UNL1        0.3339
     13 O           5.1407   -1.2373   28.6624 O.2     1  UNL1       -0.2462
     14 N           4.8127   -2.9280   21.0036 N.pl3   1  UNL1       -0.2931
     15 C           3.9766   -4.0785   20.5269 C.3     1  UNL1        0.0922
     16 C           4.1281   -4.5846   19.1229 C.3     1  UNL1        0.0229
     17 C           5.1156   -3.9402   18.1958 C.3     1  UNL1        0.0190
     18 C           5.9517   -2.7897   18.6725 C.3     1  UNL1        0.0709
     19 N           6.9392   -2.1453   17.7455 N.3     1  UNL1       -0.3208
     20 C           5.8002   -2.2836   20.0765 C.3     1  UNL1        0.1075
     21 H           7.4165   -1.3861   18.2315 H       1  UNL1        0.1189
     22 H           6.4492   -1.7733   16.9320 H       1  UNL1        0.1189
     23 C           2.6726   -0.6802   22.0118 C.3     1  UNL1        0.1348
     24 C           3.1100   -0.0107   20.7428 C.ar    1  UNL1        0.0123
     25 C           2.8192   -0.6513   19.4180 C.ar    1  UNL1        0.0279
     26 C           3.2566    0.0182   18.1490 C.ar    1  UNL1        0.1399
     27 F           2.9657   -0.6224   16.8242 F       1  UNL1       -0.2042
     28 C           3.9849    1.3284   18.2047 C.ar    1  UNL1        0.0303
     29 C           4.2758    1.9690   19.5295 C.ar    1  UNL1        0.0123
     30 C           3.8383    1.2995   20.7985 C.ar    1  UNL1        0.0664
     31 C           4.1292    1.9401   22.1232 C.1     1  UNL1        0.1002
     32 N           4.4200    2.5807   23.4480 N.1     1  UNL1       -0.1908
@<TRIPOS>BOND
     1     1     2    1
     2     2     3   ar
     3     3     4    2
     4     3     5   ar
     5     5     6   ar
     6     6     7   ar
     7     7     8   ar
     8     8    14    1
     9    14    15    1
    10    15    16    1
    11    16    17    1
    12    17    18    1
    13    18    19    1
    14    18    20    1
    15     8     9   ar
    16     9    23    1
    17    23    24    1
    18    24    25   ar
    19    25    26   ar
    20    26    27    1
    21    26    28   ar
    22    28    29   ar
    23    29    30   ar
    24    30    31    1
    25    31    32    3
    26     6    10   ar
    27    10    11    1
    28    10    12   ar
    29    12    13    2
    30    12     2   ar
    31     9     5   ar
    32    30    24   ar
    33    20    14    1
    34    19    21    1
    35    19    22    1
@<TRIPOS>MOLECULE
*****
 32 35 0 0 0
SMALL
GASTEIGER

@<TRIPOS>ATOM
      1 C           0.5823    0.6442   20.0734 C.3     1  UNL1        0.1383
      2 N           1.4143    0.2010   21.2402 N.ar    1  UNL1       -0.2455
      3 C           1.2452    0.8620   22.5760 C.ar    1  UNL1        0.2816
      4 O           0.2440    1.9662   22.7450 O.2     1  UNL1       -0.2652
      5 C           2.0771    0.4189   23.7428 C.ar    1  UNL1        0.1342
      6 C           3.0783   -0.6852   23.5738 C.ar    1  UNL1        0.0871
      7 C           3.7516   -0.9068   24.8958 C.ar    1  UNL1        0.0515
      8 C           3.1666    0.0604   25.8818 C.ar    1  UNL1        0.1142
      9 N           2.1317    0.8798   25.1692 N.ar    1  UNL1       -0.3068
     10 N           3.2474   -1.3463   22.2381 N.ar    1  UNL1       -0.2776
     11 C           4.2486   -2.4505   22.0690 C.3     1  UNL1        0.1351
     12 C           2.4154   -0.9031   21.0712 C.ar    1  UNL1        0.3339
     13 O           2.5846   -1.5642   19.7353 O.2     1  UNL1       -0.2462
     14 N           3.5492    0.1863   27.3267 N.pl3   1  UNL1       -0.2931
     15 C           4.7064    1.0545   27.7232 C.3     1  UNL1        0.0922
     16 C           5.0890    1.1802   29.1682 C.3     1  UNL1        0.0229
     17 C           4.3145    0.4379   30.2165 C.3     1  UNL1        0.0190
     18 C           3.1573   -0.4303   29.8200 C.3     1  UNL1        0.0709
     19 N           2.3828   -1.1726   30.8683 N.3     1  UNL1       -0.3208
     20 C           2.7747   -0.5561   28.3750 C.3     1  UNL1        0.1075
     21 H           1.6373   -1.7088   30.4242 H       1  UNL1        0.1189
     22 H           1.9774   -0.5072   31.5265 H       1  UNL1        0.1189
     23 C           1.2979    1.9688   25.7765 C.3     1  UNL1        0.1348
     24 C           0.7305    1.7989   27.1546 C.ar    1  UNL1        0.0123
     25 C          -0.3406    0.7789   27.4042 C.ar    1  UNL1        0.0279
     26 C          -0.9079    0.6091   28.7824 C.ar    1  UNL1        0.1399
     27 F          -1.9791   -0.4109   29.0320 F       1  UNL1       -0.2042
     28 C          -0.4041    1.4592   29.9109 C.ar    1  UNL1        0.0303
     29 C           0.6670    2.4791   29.6613 C.ar    1  UNL1        0.0123
     30 C           1.2344    2.6491   28.2831 C.ar    1  UNL1        0.0664
     31 C           2.3054    3.6690   28.0335 C.1     1  UNL1        0.1002
     32 N           3.3766    4.6890   27.7838 N.1     1  UNL1       -0.1908
@<TRIPOS>BOND
     1     1     2    1
     2     2     3   ar
     3     3     4    2
     4     3     5   ar
     5     5     6   ar
     6     6     7   ar
     7     7     8   ar
     8     8    14    1
     9    14    15    1
    10    15    16    1
    11    16    17    1
    12    17    18    1
    13    18    19    1
    14    18    20    1
    15     8     9   ar
    16     9    23    1
    17    23    24    1
    18    24    25   ar
    19    25    26   ar
    20    26    27    1
    21    26    28   ar
    22    28    29   ar
    23    29    30   ar
    24    30    31    1
    25    31    32    3
    26     6    10   ar
    27    10    11    1
    28    10    12   ar
    29    12    13    2
    30    12     2   ar
    31     9     5   ar
    32    30    24   ar
    33    20    14    1
    34    19    21    1
    35    19    22    1
