@<TRIPOS>MOLECULE
*****
 25 27 0 0 0
SMALL
GASTEIGER

@<TRIPOS>ATOM
      1 C          -6.8716  -19.0422   20.4721 C.ar    1  UNL1        0.0395
      2 C          -7.4100  -18.1583   21.5578 C.ar    1  UNL1        0.0063
      3 C          -8.8854  -17.9072   21.6579 C.ar    1  UNL1        0.0376
      4 C          -9.8224  -18.5401   20.6722 C.ar    1  UNL1        0.1453
      5 C          -9.2840  -19.4240   19.5866 C.ar    1  UNL1        0.0376
      6 C          -7.8086  -19.6751   19.4865 C.ar    1  UNL1        0.0063
      7 N          -3.0464  -19.0530   19.8138 N.ar    1  UNL1       -0.1509
      8 N          -3.2048  -20.3065   20.6223 N.ar    1  UNL1       -0.0451
      9 N          -4.6570  -20.4550   20.9673 N.ar    1  UNL1       -0.1077
     10 C          -5.3961  -19.2933   20.3720 C.ar    1  UNL1        0.2058
     11 N          -4.4006  -18.4268   19.6591 N.ar    1  UNL1       -0.1297
     12 C          -1.7595  -18.5193   19.2576 C.3     1  UNL1        0.1517
     13 C          -0.7863  -17.8188   20.1587 C.3     1  UNL1        0.0342
     14 C          -1.1861  -16.5507   20.8531 C.3     1  UNL1        0.0438
     15 O          -3.1685  -15.4453   22.1173 O.co2   1  UNL1       -0.5492
     16 C          -2.2094  -16.5864   21.9492 C.2     1  UNL1        0.0504
     17 O          -2.2738  -17.7630   22.8772 O.co2   1  UNL1       -0.5492
     18 O         -11.2979  -18.2890   20.7723 O.3     1  UNL1       -0.4535
     19 C         -11.9809  -18.3539   22.1062 C.ar    1  UNL1        0.1454
     20 C         -11.3138  -19.0462   23.2575 C.ar    1  UNL1        0.0384
     21 C         -11.9969  -19.1111   24.5915 C.ar    1  UNL1        0.0145
     22 C         -13.3471  -18.4838   24.7739 C.ar    1  UNL1        0.0579
     23 CL        -14.0301  -18.5487   26.1078 Cl      1  UNL1       -0.0822
     24 C         -14.0142  -17.7915   23.6226 C.ar    1  UNL1        0.0145
     25 C         -13.3312  -17.7265   22.2887 C.ar    1  UNL1        0.0384
@<TRIPOS>UNITY_ATOM_ATTR
15 1
charge -1
@<TRIPOS>BOND
     1    15    16   ar
     2    16    17   ar
     3    16    14    1
     4    14    13    1
     5    13    12    1
     6    12     7    1
     7     7     8   ar
     8     8     9   ar
     9     9    10   ar
    10    10     1    1
    11     1     2   ar
    12     2     3   ar
    13     3     4   ar
    14     4    18    1
    15    18    19    1
    16    19    20   ar
    17    20    21   ar
    18    21    22   ar
    19    22    23    1
    20    22    24   ar
    21    24    25   ar
    22     4     5   ar
    23     5     6   ar
    24    10    11   ar
    25    11     7   ar
    26     6     1   ar
    27    25    19   ar
@<TRIPOS>MOLECULE
*****
 25 27 0 0 0
SMALL
GASTEIGER

@<TRIPOS>ATOM
      1 C          -8.1065  -19.6919   22.2177 C.ar    1  UNL1        0.0395
      2 C          -7.0385  -20.6410   22.6743 C.ar    1  UNL1        0.0063
      3 C          -5.8365  -20.8886   21.8118 C.ar    1  UNL1        0.0376
      4 C          -5.7026  -20.1872   20.4927 C.ar    1  UNL1        0.1453
      5 C          -6.7707  -19.2381   20.0361 C.ar    1  UNL1        0.0376
      6 C          -7.9726  -18.9905   20.8986 C.ar    1  UNL1        0.0063
      7 N         -11.5174  -18.7642   23.8211 N.ar    1  UNL1       -0.1509
      8 N         -10.7988  -19.3621   24.9942 N.ar    1  UNL1       -0.0451
      9 N          -9.4336  -19.7824   24.5363 N.ar    1  UNL1       -0.1077
     10 C          -9.3085  -19.4442   23.0803 C.ar    1  UNL1        0.2058
     11 N         -10.5963  -18.8149   22.6383 N.ar    1  UNL1       -0.1297
     12 C         -12.9122  -18.2124   23.8294 C.3     1  UNL1        0.1517
     13 C         -13.2965  -17.1305   22.8640 C.3     1  UNL1        0.0342
     14 C         -12.2974  -16.0807   22.4774 C.3     1  UNL1        0.0438
     15 O         -12.7038  -16.1537   19.9123 O.co2   1  UNL1       -0.5492
     16 C         -11.7650  -16.0319   21.0759 C.2     1  UNL1        0.0504
     17 O         -10.2939  -15.8613   20.8379 O.co2   1  UNL1       -0.5492
     18 O          -4.5006  -20.4348   19.6301 O.3     1  UNL1       -0.4535
     19 C          -3.2855  -19.5666   19.7699 C.ar    1  UNL1        0.1454
     20 C          -2.8800  -18.6577   18.6476 C.ar    1  UNL1        0.0384
     21 C          -1.6648  -17.7894   18.7874 C.ar    1  UNL1        0.0145
     22 C          -0.8551  -17.8301   20.0495 C.ar    1  UNL1        0.0579
     23 CL          0.3600  -16.9619   20.1892 Cl      1  UNL1       -0.0822
     24 C          -1.2606  -18.7391   21.1717 C.ar    1  UNL1        0.0145
     25 C          -2.4757  -19.6073   21.0319 C.ar    1  UNL1        0.0384
@<TRIPOS>UNITY_ATOM_ATTR
15 1
charge -1
@<TRIPOS>BOND
     1    15    16   ar
     2    16    17   ar
     3    16    14    1
     4    14    13    1
     5    13    12    1
     6    12     7    1
     7     7     8   ar
     8     8     9   ar
     9     9    10   ar
    10    10     1    1
    11     1     2   ar
    12     2     3   ar
    13     3     4   ar
    14     4    18    1
    15    18    19    1
    16    19    20   ar
    17    20    21   ar
    18    21    22   ar
    19    22    23    1
    20    22    24   ar
    21    24    25   ar
    22     4     5   ar
    23     5     6   ar
    24    10    11   ar
    25    11     7   ar
    26     6     1   ar
    27    25    19   ar
@<TRIPOS>MOLECULE
*****
 25 27 0 0 0
SMALL
GASTEIGER

@<TRIPOS>ATOM
      1 C          -8.6019  -18.8031   20.6910 C.ar    1  UNL1        0.0395
      2 C          -7.5566  -18.5329   21.7323 C.ar    1  UNL1        0.0063
      3 C          -6.1908  -19.1384   21.5985 C.ar    1  UNL1        0.0376
      4 C          -5.8703  -20.0140   20.4236 C.ar    1  UNL1        0.1453
      5 C          -6.9156  -20.2842   19.3823 C.ar    1  UNL1        0.0376
      6 C          -8.2815  -19.6787   19.5161 C.ar    1  UNL1        0.0063
      7 N         -12.0412  -17.3657   21.7733 N.ar    1  UNL1       -0.1509
      8 N         -12.0982  -17.1663   20.2876 N.ar    1  UNL1       -0.0451
      9 N         -10.8168  -17.6804   19.7015 N.ar    1  UNL1       -0.1077
     10 C          -9.9679  -18.1977   20.8248 C.ar    1  UNL1        0.2058
     11 N         -10.7246  -18.0032   22.1052 N.ar    1  UNL1       -0.1297
     12 C         -13.1127  -16.9932   22.7546 C.3     1  UNL1        0.1517
     13 C         -13.6740  -18.0301   23.6818 C.3     1  UNL1        0.0342
     14 C         -12.8957  -18.4543   24.8919 C.3     1  UNL1        0.0438
     15 O         -11.2840  -20.3035   24.0360 O.co2   1  UNL1       -0.5492
     16 C         -11.5057  -18.9964   24.7375 C.2     1  UNL1        0.0504
     17 O         -10.3373  -18.2313   25.2846 O.co2   1  UNL1       -0.5492
     18 O          -4.5044  -20.6195   20.2899 O.3     1  UNL1       -0.4535
     19 C          -3.2935  -19.7355   20.2427 C.ar    1  UNL1        0.1454
     20 C          -2.4094  -19.6096   21.4479 C.ar    1  UNL1        0.0384
     21 C          -1.1984  -18.7256   21.4006 C.ar    1  UNL1        0.0145
     22 C          -0.8717  -17.9674   20.1483 C.ar    1  UNL1        0.0579
     23 CL          0.3392  -17.0834   20.1011 Cl      1  UNL1       -0.0822
     24 C          -1.7559  -18.0932   18.9431 C.ar    1  UNL1        0.0145
     25 C          -2.9668  -18.9772   18.9903 C.ar    1  UNL1        0.0384
@<TRIPOS>UNITY_ATOM_ATTR
15 1
charge -1
@<TRIPOS>BOND
     1    15    16   ar
     2    16    17   ar
     3    16    14    1
     4    14    13    1
     5    13    12    1
     6    12     7    1
     7     7     8   ar
     8     8     9   ar
     9     9    10   ar
    10    10     1    1
    11     1     2   ar
    12     2     3   ar
    13     3     4   ar
    14     4    18    1
    15    18    19    1
    16    19    20   ar
    17    20    21   ar
    18    21    22   ar
    19    22    23    1
    20    22    24   ar
    21    24    25   ar
    22     4     5   ar
    23     5     6   ar
    24    10    11   ar
    25    11     7   ar
    26     6     1   ar
    27    25    19   ar
@<TRIPOS>MOLECULE
*****
 25 27 0 0 0
SMALL
GASTEIGER

@<TRIPOS>ATOM
      1 C          -8.1181  -18.9421   21.1637 C.ar    1  UNL1        0.0395
      2 C          -7.4453  -18.2805   22.3297 C.ar    1  UNL1        0.0063
      3 C          -6.0025  -18.5663   22.6240 C.ar    1  UNL1        0.0376
      4 C          -5.2326  -19.5136   21.7523 C.ar    1  UNL1        0.1453
      5 C          -5.9054  -20.1751   20.5863 C.ar    1  UNL1        0.0376
      6 C          -7.3482  -19.8893   20.2920 C.ar    1  UNL1        0.0063
      7 N         -11.8253  -17.7991   21.0378 N.ar    1  UNL1       -0.1509
      8 N         -11.7372  -18.6343   19.7949 N.ar    1  UNL1       -0.0451
      9 N         -10.3377  -19.1641   19.6908 N.ar    1  UNL1       -0.1077
     10 C          -9.5610  -18.6563   20.8694 C.ar    1  UNL1        0.2058
     11 N         -10.4804  -17.8127   21.7018 N.ar    1  UNL1       -0.1297
     12 C         -13.0444  -17.0770   21.5302 C.3     1  UNL1        0.1517
     13 C         -13.3147  -16.9792   23.0024 C.3     1  UNL1        0.0342
     14 C         -13.2456  -18.2073   23.8609 C.3     1  UNL1        0.0438
     15 O         -14.1556  -18.6252   26.2581 O.co2   1  UNL1       -0.5492
     16 C         -14.3833  -18.5465   24.7776 C.2     1  UNL1        0.0504
     17 O         -15.7486  -18.8071   24.2139 O.co2   1  UNL1       -0.5492
     18 O          -3.7897  -19.7993   22.0467 O.3     1  UNL1       -0.4535
     19 C          -2.7195  -18.9110   21.4851 C.ar    1  UNL1        0.1454
     20 C          -1.7936  -19.4300   20.4253 C.ar    1  UNL1        0.0384
     21 C          -0.7233  -18.5415   19.8637 C.ar    1  UNL1        0.0145
     22 C          -0.5790  -17.1341   20.3620 C.ar    1  UNL1        0.0579
     23 CL          0.4912  -16.2457   19.8005 Cl      1  UNL1       -0.0822
     24 C          -1.5049  -16.6151   21.4219 C.ar    1  UNL1        0.0145
     25 C          -2.5751  -17.5035   21.9834 C.ar    1  UNL1        0.0384
@<TRIPOS>UNITY_ATOM_ATTR
15 1
charge -1
@<TRIPOS>BOND
     1    15    16   ar
     2    16    17   ar
     3    16    14    1
     4    14    13    1
     5    13    12    1
     6    12     7    1
     7     7     8   ar
     8     8     9   ar
     9     9    10   ar
    10    10     1    1
    11     1     2   ar
    12     2     3   ar
    13     3     4   ar
    14     4    18    1
    15    18    19    1
    16    19    20   ar
    17    20    21   ar
    18    21    22   ar
    19    22    23    1
    20    22    24   ar
    21    24    25   ar
    22     4     5   ar
    23     5     6   ar
    24    10    11   ar
    25    11     7   ar
    26     6     1   ar
    27    25    19   ar
@<TRIPOS>MOLECULE
*****
 25 27 0 0 0
SMALL
GASTEIGER

@<TRIPOS>ATOM
      1 C          -8.0717  -19.7871   21.1516 C.ar    1  UNL1        0.0395
      2 C          -7.5983  -20.4698   19.9026 C.ar    1  UNL1        0.0063
      3 C          -6.1411  -20.7754   19.7214 C.ar    1  UNL1        0.0376
      4 C          -5.1572  -20.3985   20.7890 C.ar    1  UNL1        0.1453
      5 C          -5.6306  -19.7158   22.0379 C.ar    1  UNL1        0.0376
      6 C          -7.0879  -19.4102   22.2192 C.ar    1  UNL1        0.0063
      7 N         -11.6315  -18.7527   22.3019 N.ar    1  UNL1       -0.1509
      8 N         -11.9117  -19.2695   20.9218 N.ar    1  UNL1       -0.0451
      9 N         -10.6123  -19.7199   20.3230 N.ar    1  UNL1       -0.1077
     10 C          -9.5291  -19.4815   21.3329 C.ar    1  UNL1        0.2058
     11 N         -10.1590  -18.8837   22.5559 N.ar    1  UNL1       -0.1297
     12 C         -12.6459  -18.2016   23.2597 C.3     1  UNL1        0.1517
     13 C         -13.0417  -16.7567   23.1839 C.3     1  UNL1        0.0342
     14 C         -12.1369  -15.7655   22.5139 C.3     1  UNL1        0.0438
     15 O         -10.3549  -15.9078   20.6287 O.co2   1  UNL1       -0.5492
     16 C         -11.7904  -15.9271   21.0635 C.2     1  UNL1        0.0504
     17 O         -12.8792  -16.1080   20.0479 O.co2   1  UNL1       -0.5492
     18 O          -3.6999  -20.7041   20.6077 O.3     1  UNL1       -0.4535
     19 C          -2.7115  -19.5855   20.4607 C.ar    1  UNL1        0.1454
     20 C          -1.9713  -19.0760   21.6617 C.ar    1  UNL1        0.0384
     21 C          -0.9829  -17.9573   21.5147 C.ar    1  UNL1        0.0145
     22 C          -0.7348  -17.3480   20.1667 C.ar    1  UNL1        0.0579
     23 CL          0.2536  -16.2293   20.0197 Cl      1  UNL1       -0.0822
     24 C          -1.4751  -17.8574   18.9656 C.ar    1  UNL1        0.0145
     25 C          -2.4634  -18.9761   19.1126 C.ar    1  UNL1        0.0384
@<TRIPOS>UNITY_ATOM_ATTR
15 1
charge -1
@<TRIPOS>BOND
     1    15    16   ar
     2    16    17   ar
     3    16    14    1
     4    14    13    1
     5    13    12    1
     6    12     7    1
     7     7     8   ar
     8     8     9   ar
     9     9    10   ar
    10    10     1    1
    11     1     2   ar
    12     2     3   ar
    13     3     4   ar
    14     4    18    1
    15    18    19    1
    16    19    20   ar
    17    20    21   ar
    18    21    22   ar
    19    22    23    1
    20    22    24   ar
    21    24    25   ar
    22     4     5   ar
    23     5     6   ar
    24    10    11   ar
    25    11     7   ar
    26     6     1   ar
    27    25    19   ar
@<TRIPOS>MOLECULE
*****
 25 27 0 0 0
SMALL
GASTEIGER

@<TRIPOS>ATOM
      1 C           1.9677    0.8445   18.8930 C.ar    1  UNL1        0.0395
      2 C           0.9137    0.3964   19.8616 C.ar    1  UNL1        0.0063
      3 C          -0.0932    1.3789   20.3818 C.ar    1  UNL1        0.0376
      4 C          -0.0462    2.8096   19.9334 C.ar    1  UNL1        0.1453
      5 C           1.0078    3.2576   18.9647 C.ar    1  UNL1        0.0376
      6 C           2.0147    2.2751   18.4445 C.ar    1  UNL1        0.0063
      7 N           4.4322   -2.0699   18.1868 N.ar    1  UNL1       -0.1509
      8 N           4.6163   -1.2302   16.9575 N.ar    1  UNL1       -0.0451
      9 N           3.7155   -0.0364   17.0724 N.ar    1  UNL1       -0.1077
     10 C           2.9747   -0.1381   18.3728 C.ar    1  UNL1        0.2058
     11 N           3.4176   -1.3949   19.0615 N.ar    1  UNL1       -0.1297
     12 C           5.1386   -3.3583   18.4885 C.3     1  UNL1        0.1517
     13 C           4.3551   -4.5558   18.9379 C.3     1  UNL1        0.0342
     14 C           3.9465   -4.6887   20.3750 C.3     1  UNL1        0.0438
     15 O           6.0679   -4.3962   21.8460 O.co2   1  UNL1       -0.5492
     16 C           4.6964   -3.9445   21.4398 C.2     1  UNL1        0.0504
     17 O           4.0749   -2.7488   22.0984 O.co2   1  UNL1       -0.5492
     18 O          -1.0532    3.7921   20.4536 O.3     1  UNL1       -0.4535
     19 C          -2.4881    3.6917   20.0283 C.ar    1  UNL1        0.1454
     20 C          -2.8693    3.9684   18.6042 C.ar    1  UNL1        0.0384
     21 C          -4.3043    3.8680   18.1789 C.ar    1  UNL1        0.0145
     22 C          -5.3580    3.4909   19.1777 C.ar    1  UNL1        0.0579
     23 CL         -6.7929    3.3905   18.7524 Cl      1  UNL1       -0.0822
     24 C          -4.9767    3.2142   20.6018 C.ar    1  UNL1        0.0145
     25 C          -3.5418    3.3146   21.0271 C.ar    1  UNL1        0.0384
@<TRIPOS>UNITY_ATOM_ATTR
15 1
charge -1
@<TRIPOS>BOND
     1    15    16   ar
     2    16    17   ar
     3    16    14    1
     4    14    13    1
     5    13    12    1
     6    12     7    1
     7     7     8   ar
     8     8     9   ar
     9     9    10   ar
    10    10     1    1
    11     1     2   ar
    12     2     3   ar
    13     3     4   ar
    14     4    18    1
    15    18    19    1
    16    19    20   ar
    17    20    21   ar
    18    21    22   ar
    19    22    23    1
    20    22    24   ar
    21    24    25   ar
    22     4     5   ar
    23     5     6   ar
    24    10    11   ar
    25    11     7   ar
    26     6     1   ar
    27    25    19   ar
@<TRIPOS>MOLECULE
*****
 25 27 0 0 0
SMALL
GASTEIGER

@<TRIPOS>ATOM
      1 C           5.9536   -3.4114   20.6167 C.ar    1  UNL1        0.0395
      2 C           4.7997   -3.9957   19.8572 C.ar    1  UNL1        0.0063
      3 C           3.9081   -3.1041   19.0448 C.ar    1  UNL1        0.0376
      4 C           4.1704   -1.6281   18.9920 C.ar    1  UNL1        0.1453
      5 C           5.3243   -1.0438   19.7516 C.ar    1  UNL1        0.0376
      6 C           6.2159   -1.9355   20.5639 C.ar    1  UNL1        0.0063
      7 N           7.8373   -5.4907   23.2989 N.ar    1  UNL1       -0.1509
      8 N           8.5977   -5.8595   22.0595 N.ar    1  UNL1       -0.0451
      9 N           7.9845   -5.1255   20.9040 N.ar    1  UNL1       -0.1077
     10 C           6.8453   -4.3031   21.4291 C.ar    1  UNL1        0.2058
     11 N           6.7544   -4.5288   22.9092 N.ar    1  UNL1       -0.1297
     12 C           8.1118   -5.9953   24.6845 C.3     1  UNL1        0.1517
     13 C           8.0103   -7.4619   24.9825 C.3     1  UNL1        0.0342
     14 C           7.2595   -7.9309   26.1934 C.3     1  UNL1        0.0438
     15 O           7.8787   -9.9948   27.6449 O.co2   1  UNL1       -0.5492
     16 C           8.0021   -8.5290   27.3513 C.2     1  UNL1        0.0504
     17 O           8.8682   -7.6613   28.2155 O.co2   1  UNL1       -0.5492
     18 O           3.2787   -0.7365   18.1796 O.3     1  UNL1       -0.4535
     19 C           2.2212    0.0843   18.8564 C.ar    1  UNL1        0.1454
     20 C           1.3661   -0.5283   19.9257 C.ar    1  UNL1        0.0384
     21 C           0.3086    0.2925   20.6024 C.ar    1  UNL1        0.0145
     22 C           0.1062    1.7260   20.2098 C.ar    1  UNL1        0.0579
     23 CL         -0.9512    2.5468   20.8866 Cl      1  UNL1       -0.0822
     24 C           0.9613    2.3387   19.1405 C.ar    1  UNL1        0.0145
     25 C           2.0188    1.5179   18.4638 C.ar    1  UNL1        0.0384
@<TRIPOS>UNITY_ATOM_ATTR
15 1
charge -1
@<TRIPOS>BOND
     1    15    16   ar
     2    16    17   ar
     3    16    14    1
     4    14    13    1
     5    13    12    1
     6    12     7    1
     7     7     8   ar
     8     8     9   ar
     9     9    10   ar
    10    10     1    1
    11     1     2   ar
    12     2     3   ar
    13     3     4   ar
    14     4    18    1
    15    18    19    1
    16    19    20   ar
    17    20    21   ar
    18    21    22   ar
    19    22    23    1
    20    22    24   ar
    21    24    25   ar
    22     4     5   ar
    23     5     6   ar
    24    10    11   ar
    25    11     7   ar
    26     6     1   ar
    27    25    19   ar
@<TRIPOS>MOLECULE
*****
 25 27 0 0 0
SMALL
GASTEIGER

@<TRIPOS>ATOM
      1 C           0.2699    1.6756   20.3107 C.ar    1  UNL1        0.0395
      2 C           1.1516    2.3181   19.2812 C.ar    1  UNL1        0.0063
      3 C           2.1308    1.4858   18.5078 C.ar    1  UNL1        0.0376
      4 C           2.2285    0.0110   18.7638 C.ar    1  UNL1        0.1453
      5 C           1.3468   -0.6314   19.7933 C.ar    1  UNL1        0.0376
      6 C           0.3675    0.2009   20.5668 C.ar    1  UNL1        0.0063
      7 N          -2.7520    3.6207   21.7771 N.ar    1  UNL1       -0.1509
      8 N          -1.6807    3.9568   22.7718 N.ar    1  UNL1       -0.0451
      9 N          -0.4184    3.2690   22.3436 N.ar    1  UNL1       -0.1077
     10 C          -0.7094    2.5079   21.0842 C.ar    1  UNL1        0.2058
     11 N          -2.1517    2.7253   20.7341 N.ar    1  UNL1       -0.1297
     12 C          -4.1740    4.0965   21.8182 C.3     1  UNL1        0.1517
     13 C          -5.1909    3.3517   22.6313 C.3     1  UNL1        0.0342
     14 C          -6.1356    4.1032   23.5217 C.3     1  UNL1        0.0438
     15 O          -8.7116    4.2822   23.8084 O.co2   1  UNL1       -0.5492
     16 C          -7.4737    4.5360   23.0001 C.2     1  UNL1        0.0504
     17 O          -7.5740    5.2226   21.6703 O.co2   1  UNL1       -0.5492
     18 O           3.2078   -0.8213   17.9904 O.3     1  UNL1       -0.4535
     19 C           4.2255   -1.6503   18.7164 C.ar    1  UNL1        0.1454
     20 C           3.9658   -3.1061   18.9677 C.ar    1  UNL1        0.0384
     21 C           4.9835   -3.9351   19.6937 C.ar    1  UNL1        0.0145
     22 C           6.2608   -3.3082   20.1684 C.ar    1  UNL1        0.0579
     23 CL          7.2785   -4.1372   20.8945 Cl      1  UNL1       -0.0822
     24 C           6.5205   -1.8524   19.9172 C.ar    1  UNL1        0.0145
     25 C           5.5029   -1.0234   19.1911 C.ar    1  UNL1        0.0384
@<TRIPOS>UNITY_ATOM_ATTR
15 1
charge -1
@<TRIPOS>BOND
     1    15    16   ar
     2    16    17   ar
     3    16    14    1
     4    14    13    1
     5    13    12    1
     6    12     7    1
     7     7     8   ar
     8     8     9   ar
     9     9    10   ar
    10    10     1    1
    11     1     2   ar
    12     2     3   ar
    13     3     4   ar
    14     4    18    1
    15    18    19    1
    16    19    20   ar
    17    20    21   ar
    18    21    22   ar
    19    22    23    1
    20    22    24   ar
    21    24    25   ar
    22     4     5   ar
    23     5     6   ar
    24    10    11   ar
    25    11     7   ar
    26     6     1   ar
    27    25    19   ar
@<TRIPOS>MOLECULE
*****
 25 27 0 0 0
SMALL
GASTEIGER

@<TRIPOS>ATOM
      1 C           6.9271   -4.6684   25.1478 C.ar    1  UNL1        0.0395
      2 C           6.5883   -3.5691   26.1104 C.ar    1  UNL1        0.0063
      3 C           6.5110   -3.8570   27.5805 C.ar    1  UNL1        0.0376
      4 C           6.7724   -5.2441   28.0879 C.ar    1  UNL1        0.1453
      5 C           7.1112   -6.3434   27.1252 C.ar    1  UNL1        0.0376
      6 C           7.1885   -6.0555   25.6552 C.ar    1  UNL1        0.0063
      7 N           6.8381   -3.2543   21.5342 N.ar    1  UNL1       -0.1509
      8 N           7.4091   -4.6209   21.2966 N.ar    1  UNL1       -0.0451
      9 N           7.5120   -5.3169   22.6214 N.ar    1  UNL1       -0.1077
     10 C           7.0045   -4.3805   23.6776 C.ar    1  UNL1        0.2058
     11 N           6.5880   -3.1058   23.0057 N.ar    1  UNL1       -0.1297
     12 C           6.5651   -2.2182   20.4844 C.3     1  UNL1        0.1517
     13 C           6.7011   -2.5679   19.0321 C.3     1  UNL1        0.0342
     14 C           5.5157   -3.0821   18.2703 C.3     1  UNL1        0.0438
     15 O           3.2309   -3.3959   19.4665 O.co2   1  UNL1       -0.5492
     16 C           4.5160   -3.9709   18.9489 C.2     1  UNL1        0.0504
     17 O           4.8013   -5.4346   19.1100 O.co2   1  UNL1       -0.5492
     18 O           6.6950   -5.5320   29.5580 O.3     1  UNL1       -0.4535
     19 C           7.3677   -4.6169   30.5378 C.ar    1  UNL1        0.1454
     20 C           8.8607   -4.6385   30.6811 C.ar    1  UNL1        0.0384
     21 C           9.5334   -3.7234   31.6610 C.ar    1  UNL1        0.0145
     22 C           8.7131   -2.7868   32.4976 C.ar    1  UNL1        0.0579
     23 CL          9.3858   -1.8717   33.4774 Cl      1  UNL1       -0.0822
     24 C           7.2201   -2.7652   32.3543 C.ar    1  UNL1        0.0145
     25 C           6.5474   -3.6803   31.3744 C.ar    1  UNL1        0.0384
@<TRIPOS>UNITY_ATOM_ATTR
15 1
charge -1
@<TRIPOS>BOND
     1    15    16   ar
     2    16    17   ar
     3    16    14    1
     4    14    13    1
     5    13    12    1
     6    12     7    1
     7     7     8   ar
     8     8     9   ar
     9     9    10   ar
    10    10     1    1
    11     1     2   ar
    12     2     3   ar
    13     3     4   ar
    14     4    18    1
    15    18    19    1
    16    19    20   ar
    17    20    21   ar
    18    21    22   ar
    19    22    23    1
    20    22    24   ar
    21    24    25   ar
    22     4     5   ar
    23     5     6   ar
    24    10    11   ar
    25    11     7   ar
    26     6     1   ar
    27    25    19   ar
