@<TRIPOS>MOLECULE
*****
 27 29 0 0 0
SMALL
GASTEIGER

@<TRIPOS>ATOM
      1 C          -9.1893  -17.5570   23.1497 C.ar    1  UNL1        0.0615
      2 C          -9.8981  -16.7344   24.1845 C.ar    1  UNL1        0.0186
      3 C          -9.1154  -15.8266   25.0861 C.ar    1  UNL1        0.0398
      4 C          -7.6237  -15.7412   24.9530 C.ar    1  UNL1        0.1568
      5 C          -6.9149  -16.5638   23.9182 C.ar    1  UNL1        0.1242
      6 N          -5.4647  -16.6881   23.5556 N.ar    1  UNL1       -0.2208
      7 C          -5.3512  -17.6728   22.4298 C.ar    1  UNL1        0.1659
      8 S          -6.7312  -18.1571   22.0966 S.2     1  UNL1       -0.0500
      9 C          -7.6976  -17.4717   23.0166 C.ar    1  UNL1        0.0664
     10 N          -9.9721  -18.4649   22.2481 N.am    1  UNL1       -0.2581
     11 C         -10.4538  -17.9673   20.9175 C.2     1  UNL1        0.2298
     12 C         -11.2366  -18.8751   20.0158 C.3     1  UNL1        0.0952
     13 O         -10.1527  -16.5617   20.4887 O.2     1  UNL1       -0.2745
     14 C          -9.7433  -20.3860   23.9821 C.3     1  UNL1        0.0237
     15 C         -10.2731  -19.8704   22.6769 C.3     1  UNL1        0.0983
     16 N          -4.0807  -18.0985   21.7555 N.am    1  UNL1       -0.2594
     17 C          -2.9703  -17.1102   21.5554 C.2     1  UNL1        0.2683
     18 O          -3.1302  -15.6962   22.0296 O.2     1  UNL1       -0.2681
     19 H          -3.9757  -19.0266   21.4442 H       1  UNL1        0.1571
     20 C          -1.6998  -17.5360   20.8810 C.ar    1  UNL1        0.1330
     21 C          -0.5442  -16.6448   20.5342 C.ar    1  UNL1        0.0458
     22 C           0.5078  -17.4859   19.8740 C.ar    1  UNL1        0.1218
     23 N           0.0025  -18.8968   19.8127 N.ar    1  UNL1       -0.1675
     24 N          -1.3620  -18.9278   20.4352 N.ar    1  UNL1       -0.2443
     25 C          -2.2353  -20.1381   20.5854 C.3     1  UNL1        0.1539
     26 O          -6.8410  -14.8333   25.8548 O.3     1  UNL1       -0.4699
     27 C          -6.5747  -15.2346   27.2753 C.3     1  UNL1        0.2525
@<TRIPOS>BOND
     1    14    15    1
     2    15    10    1
     3    10    11   am
     4    11    12    1
     5    11    13    2
     6    10     1    1
     7     1     2   ar
     8     2     3   ar
     9     3     4   ar
    10     4    26    1
    11    26    27    1
    12     4     5   ar
    13     5     6   ar
    14     6     7   ar
    15     7    16    1
    16    16    17   am
    17    17    18    2
    18    17    20    1
    19    20    21   ar
    20    21    22   ar
    21    22    23   ar
    22    23    24   ar
    23    24    25    1
    24     7     8   ar
    25     8     9   ar
    26     9     1   ar
    27     9     5   ar
    28    24    20   ar
    29    16    19    1
@<TRIPOS>MOLECULE
*****
 27 29 0 0 0
SMALL
GASTEIGER

@<TRIPOS>ATOM
      1 C          -9.6743  -18.7685   21.9017 C.ar    1  UNL1        0.0615
      2 C         -10.8494  -19.2635   21.1117 C.ar    1  UNL1        0.0186
      3 C         -10.6368  -19.9002   19.7704 C.ar    1  UNL1        0.0398
      4 C          -9.2490  -20.0421   19.2190 C.ar    1  UNL1        0.1568
      5 C          -8.0739  -19.5471   20.0090 C.ar    1  UNL1        0.1242
      6 N          -6.6010  -19.5500   19.7255 N.ar    1  UNL1       -0.2208
      7 C          -5.9033  -18.9150   20.8917 C.ar    1  UNL1        0.1659
      8 S          -6.9450  -18.5196   21.8959 S.2     1  UNL1       -0.0500
      9 C          -8.2866  -18.9103   21.3503 C.ar    1  UNL1        0.0664
     10 N          -9.8870  -18.1317   23.2431 N.am    1  UNL1       -0.2581
     11 C          -9.7054  -18.9393   24.4940 C.2     1  UNL1        0.2298
     12 C          -9.9180  -18.3026   25.8353 C.3     1  UNL1        0.0952
     13 O          -9.3111  -20.3837   24.4034 O.2     1  UNL1       -0.2745
     14 C         -11.6169  -16.2407   22.8169 C.3     1  UNL1        0.0237
     15 C         -10.2813  -16.6872   23.3335 C.3     1  UNL1        0.0983
     16 N          -4.4236  -18.7111   21.0295 N.am    1  UNL1       -0.2594
     17 C          -3.6446  -18.0893   19.9086 C.2     1  UNL1        0.2683
     18 O          -4.3452  -17.6713   18.6498 O.2     1  UNL1       -0.2681
     19 H          -3.9637  -18.9855   21.8556 H       1  UNL1        0.1571
     20 C          -2.1649  -17.8854   20.0464 C.ar    1  UNL1        0.1330
     21 C          -1.0995  -18.6141   19.2824 C.ar    1  UNL1        0.0458
     22 C           0.2330  -18.0961   19.7364 C.ar    1  UNL1        0.1218
     23 N          -0.0088  -17.0472   20.7810 N.ar    1  UNL1       -0.1675
     24 N          -1.4909  -16.9170   20.9726 N.ar    1  UNL1       -0.2443
     25 C          -2.1782  -15.9824   21.9235 C.3     1  UNL1        0.1539
     26 O          -9.0364  -20.6790   17.8776 O.3     1  UNL1       -0.4699
     27 C          -8.6719  -22.1311   17.7861 C.3     1  UNL1        0.2525
@<TRIPOS>BOND
     1    14    15    1
     2    15    10    1
     3    10    11   am
     4    11    12    1
     5    11    13    2
     6    10     1    1
     7     1     2   ar
     8     2     3   ar
     9     3     4   ar
    10     4    26    1
    11    26    27    1
    12     4     5   ar
    13     5     6   ar
    14     6     7   ar
    15     7    16    1
    16    16    17   am
    17    17    18    2
    18    17    20    1
    19    20    21   ar
    20    21    22   ar
    21    22    23   ar
    22    23    24   ar
    23    24    25    1
    24     7     8   ar
    25     8     9   ar
    26     9     1   ar
    27     9     5   ar
    28    24    20   ar
    29    16    19    1
@<TRIPOS>MOLECULE
*****
 27 29 0 0 0
SMALL
GASTEIGER

@<TRIPOS>ATOM
      1 C          -9.1263  -17.2577   23.9865 C.ar    1  UNL1        0.0615
      2 C         -10.5878  -17.5914   23.9335 C.ar    1  UNL1        0.0186
      3 C         -11.1131  -18.4907   22.8542 C.ar    1  UNL1        0.0398
      4 C         -10.1770  -19.0566   21.8277 C.ar    1  UNL1        0.1568
      5 C          -8.7156  -18.7229   21.8806 C.ar    1  UNL1        0.1242
      6 N          -7.5615  -19.1284   21.0125 N.ar    1  UNL1       -0.2208
      7 C          -6.3228  -18.4795   21.5554 C.ar    1  UNL1        0.1659
      8 S          -6.7114  -17.6731   22.7590 S.2     1  UNL1       -0.0500
      9 C          -8.1902  -17.8235   22.9600 C.ar    1  UNL1        0.0664
     10 N          -8.6010  -16.3583   25.0658 N.am    1  UNL1       -0.2581
     11 C          -8.6845  -16.7825   26.5023 C.2     1  UNL1        0.2298
     12 C          -8.1592  -15.8832   27.5816 C.3     1  UNL1        0.0952
     13 O          -9.2934  -18.1061   26.8591 O.2     1  UNL1       -0.2745
     14 C          -6.5008  -14.8910   24.6342 C.3     1  UNL1        0.0237
     15 C          -7.9921  -15.0348   24.7089 C.3     1  UNL1        0.0983
     16 N          -4.9386  -18.6136   20.9934 N.am    1  UNL1       -0.2594
     17 C          -3.8262  -17.7611   21.5280 C.2     1  UNL1        0.2683
     18 O          -4.0980  -16.7745   22.6247 O.2     1  UNL1       -0.2681
     19 H          -4.7601  -19.2611   20.2735 H       1  UNL1        0.1571
     20 C          -2.4419  -17.8952   20.9659 C.ar    1  UNL1        0.1330
     21 C          -1.4512  -16.7833   20.7876 C.ar    1  UNL1        0.0458
     22 C          -0.2024  -17.3658   20.1949 C.ar    1  UNL1        0.1218
     23 N          -0.4213  -18.8377   20.0069 N.ar    1  UNL1       -0.1675
     24 N          -1.8055  -19.1649   20.4835 N.ar    1  UNL1       -0.2443
     25 C          -2.4416  -20.5234   20.4784 C.3     1  UNL1        0.1539
     26 O         -10.7025  -19.9560   20.7483 O.3     1  UNL1       -0.4699
     27 C         -10.5437  -19.5705   19.3075 C.3     1  UNL1        0.2525
@<TRIPOS>BOND
     1    14    15    1
     2    15    10    1
     3    10    11   am
     4    11    12    1
     5    11    13    2
     6    10     1    1
     7     1     2   ar
     8     2     3   ar
     9     3     4   ar
    10     4    26    1
    11    26    27    1
    12     4     5   ar
    13     5     6   ar
    14     6     7   ar
    15     7    16    1
    16    16    17   am
    17    17    18    2
    18    17    20    1
    19    20    21   ar
    20    21    22   ar
    21    22    23   ar
    22    23    24   ar
    23    24    25    1
    24     7     8   ar
    25     8     9   ar
    26     9     1   ar
    27     9     5   ar
    28    24    20   ar
    29    16    19    1
@<TRIPOS>MOLECULE
*****
 27 29 0 0 0
SMALL
GASTEIGER

@<TRIPOS>ATOM
      1 C           4.8978   -0.0912   34.5610 C.ar    1  UNL1        0.0615
      2 C           5.0955   -0.0676   36.0477 C.ar    1  UNL1        0.0186
      3 C           4.2297    0.8065   36.9056 C.ar    1  UNL1        0.0398
      4 C           3.1661    1.6571   36.2769 C.ar    1  UNL1        0.1568
      5 C           2.9684    1.6336   34.7902 C.ar    1  UNL1        0.1242
      6 N           2.0083    2.3578   33.8937 N.ar    1  UNL1       -0.2208
      7 C           2.2808    1.9313   32.4817 C.ar    1  UNL1        0.1659
      8 S           3.4093    0.9434   32.5055 S.2     1  UNL1       -0.0500
      9 C           3.8343    0.7594   33.9322 C.ar    1  UNL1        0.0664
     10 N           5.7637   -0.9654   33.7030 N.am    1  UNL1       -0.2581
     11 C           5.2603   -2.3025   33.2460 C.2     1  UNL1        0.2298
     12 C           6.1261   -3.1766   32.3881 C.3     1  UNL1        0.0952
     13 O           3.8910   -2.7653   33.6471 O.2     1  UNL1       -0.2745
     14 C           8.2651   -0.5707   34.2837 C.3     1  UNL1        0.0237
     15 C           7.1330   -0.5025   33.3020 C.3     1  UNL1        0.0983
     16 N           1.5526    2.4088   31.2603 N.am    1  UNL1       -0.2594
     17 C           1.0682    1.4201   30.2416 C.2     1  UNL1        0.2683
     18 O           1.3119   -0.0460   30.4441 O.2     1  UNL1       -0.2681
     19 H           1.3927    3.3710   31.1274 H       1  UNL1        0.1571
     20 C           0.3400    1.8977   29.0202 C.ar    1  UNL1        0.1330
     21 C           0.6099    3.1707   28.2742 C.ar    1  UNL1        0.0458
     22 C          -0.3492    3.2458   27.1234 C.ar    1  UNL1        0.1218
     23 N          -1.2119    2.0192   27.1580 N.ar    1  UNL1       -0.1675
     24 N          -0.7859    1.1860   28.3304 N.ar    1  UNL1       -0.2443
     25 C          -1.3812   -0.1282   28.7408 C.3     1  UNL1        0.1539
     26 O           2.3002    2.5313   37.1349 O.3     1  UNL1       -0.4699
     27 C           2.1011    2.1987   38.5840 C.3     1  UNL1        0.2525
@<TRIPOS>BOND
     1    14    15    1
     2    15    10    1
     3    10    11   am
     4    11    12    1
     5    11    13    2
     6    10     1    1
     7     1     2   ar
     8     2     3   ar
     9     3     4   ar
    10     4    26    1
    11    26    27    1
    12     4     5   ar
    13     5     6   ar
    14     6     7   ar
    15     7    16    1
    16    16    17   am
    17    17    18    2
    18    17    20    1
    19    20    21   ar
    20    21    22   ar
    21    22    23   ar
    22    23    24   ar
    23    24    25    1
    24     7     8   ar
    25     8     9   ar
    26     9     1   ar
    27     9     5   ar
    28    24    20   ar
    29    16    19    1
@<TRIPOS>MOLECULE
*****
 27 29 0 0 0
SMALL
GASTEIGER

@<TRIPOS>ATOM
      1 C         -10.2769  -17.7682   23.6936 C.ar    1  UNL1        0.0615
      2 C         -11.6907  -17.3817   23.3746 C.ar    1  UNL1        0.0186
      3 C         -12.1078  -17.1737   21.9490 C.ar    1  UNL1        0.0398
      4 C         -11.1112  -17.3522   20.8421 C.ar    1  UNL1        0.1568
      5 C          -9.6974  -17.7387   21.1611 C.ar    1  UNL1        0.1242
      6 N          -8.5028  -17.9847   20.2880 N.ar    1  UNL1       -0.2208
      7 C          -7.3473  -18.3447   21.1741 C.ar    1  UNL1        0.1659
      8 S          -7.8278  -18.3212   22.5949 S.2     1  UNL1       -0.0500
      9 C          -9.2802  -17.9467   22.5869 C.ar    1  UNL1        0.0664
     10 N          -9.8597  -17.9762   25.1193 N.am    1  UNL1       -0.2581
     11 C          -9.1757  -16.8717   25.8694 C.2     1  UNL1        0.2298
     12 C          -8.7585  -17.0796   27.2951 C.3     1  UNL1        0.0952
     13 O          -8.9090  -15.5594   25.1936 O.2     1  UNL1       -0.2745
     14 C         -10.0077  -20.5681   25.0214 C.3     1  UNL1        0.0237
     15 C         -10.1264  -19.2885   25.7950 C.3     1  UNL1        0.0983
     16 N          -5.9557  -18.6709   20.7193 N.am    1  UNL1       -0.2594
     17 C          -4.7825  -18.3254   21.5877 C.2     1  UNL1        0.2683
     18 O          -5.0009  -17.6538   22.9110 O.2     1  UNL1       -0.2681
     19 H          -5.8123  -19.1118   19.8508 H       1  UNL1        0.1571
     20 C          -3.3908  -18.6517   21.1329 C.ar    1  UNL1        0.1330
     21 C          -2.9349  -19.9602   20.5586 C.ar    1  UNL1        0.0458
     22 C          -1.4731  -19.8438   20.2432 C.ar    1  UNL1        0.1218
     23 N          -1.0254  -18.4634   20.6226 N.ar    1  UNL1       -0.1675
     24 N          -2.2107  -17.7266   21.1724 N.ar    1  UNL1       -0.2443
     25 C          -2.2151  -16.3129   21.6738 C.3     1  UNL1        0.1539
     26 O         -11.5285  -17.1442   19.4164 O.3     1  UNL1       -0.4699
     27 C         -11.7881  -15.7580   18.9055 C.3     1  UNL1        0.2525
@<TRIPOS>BOND
     1    14    15    1
     2    15    10    1
     3    10    11   am
     4    11    12    1
     5    11    13    2
     6    10     1    1
     7     1     2   ar
     8     2     3   ar
     9     3     4   ar
    10     4    26    1
    11    26    27    1
    12     4     5   ar
    13     5     6   ar
    14     6     7   ar
    15     7    16    1
    16    16    17   am
    17    17    18    2
    18    17    20    1
    19    20    21   ar
    20    21    22   ar
    21    22    23   ar
    22    23    24   ar
    23    24    25    1
    24     7     8   ar
    25     8     9   ar
    26     9     1   ar
    27     9     5   ar
    28    24    20   ar
    29    16    19    1
@<TRIPOS>MOLECULE
*****
 27 29 0 0 0
SMALL
GASTEIGER

@<TRIPOS>ATOM
      1 C          -0.6561    2.0748   26.6314 C.ar    1  UNL1        0.0615
      2 C          -1.8017    2.9945   26.9341 C.ar    1  UNL1        0.0186
      3 C          -2.4352    3.7912   25.8325 C.ar    1  UNL1        0.0398
      4 C          -1.9230    3.6683   24.4279 C.ar    1  UNL1        0.1568
      5 C          -0.7774    2.7487   24.1252 C.ar    1  UNL1        0.1242
      6 N          -0.0629    2.4224   22.8473 N.ar    1  UNL1       -0.2208
      7 C           1.0122    1.4240   23.1593 C.ar    1  UNL1        0.1659
      8 S           0.9621    1.1332   24.6300 S.2     1  UNL1       -0.0500
      9 C          -0.1439    1.9519   25.2269 C.ar    1  UNL1        0.0664
     10 N          -0.0226    1.2781   27.7332 N.am    1  UNL1       -0.2581
     11 C           1.2361    1.7686   28.3853 C.2     1  UNL1        0.2298
     12 C           1.8696    0.9719   29.4870 C.3     1  UNL1        0.0952
     13 O           1.8612    3.0559   27.9355 O.2     1  UNL1       -0.2745
     14 C          -1.7490    0.0075   29.2012 C.3     1  UNL1        0.0237
     15 C          -0.6477   -0.0091   28.1829 C.3     1  UNL1        0.0983
     16 N           1.9693    0.8220   22.1736 N.am    1  UNL1       -0.2594
     17 C           1.4486    0.1371   20.9449 C.2     1  UNL1        0.2683
     18 O          -0.0292    0.0542   20.7017 O.2     1  UNL1       -0.2681
     19 H           2.9393    0.8764   22.3332 H       1  UNL1        0.1571
     20 C           2.4059   -0.4648   19.9593 C.ar    1  UNL1        0.1330
     21 C           2.9141   -1.8759   19.9729 C.ar    1  UNL1        0.0458
     22 C           3.8453   -2.0445   18.8090 C.ar    1  UNL1        0.1218
     23 N           3.9125   -0.7375   18.0760 N.ar    1  UNL1       -0.1675
     24 N           3.0228    0.2388   18.7870 N.ar    1  UNL1       -0.2443
     25 C           2.7909    1.6679   18.3945 C.3     1  UNL1        0.1539
     26 O          -2.5566    4.4652   23.3262 O.3     1  UNL1       -0.4699
     27 C          -3.4534    3.7892   22.3318 C.3     1  UNL1        0.2525
@<TRIPOS>BOND
     1    14    15    1
     2    15    10    1
     3    10    11   am
     4    11    12    1
     5    11    13    2
     6    10     1    1
     7     1     2   ar
     8     2     3   ar
     9     3     4   ar
    10     4    26    1
    11    26    27    1
    12     4     5   ar
    13     5     6   ar
    14     6     7   ar
    15     7    16    1
    16    16    17   am
    17    17    18    2
    18    17    20    1
    19    20    21   ar
    20    21    22   ar
    21    22    23   ar
    22    23    24   ar
    23    24    25    1
    24     7     8   ar
    25     8     9   ar
    26     9     1   ar
    27     9     5   ar
    28    24    20   ar
    29    16    19    1
@<TRIPOS>MOLECULE
*****
 27 29 0 0 0
SMALL
GASTEIGER

@<TRIPOS>ATOM
      1 C           1.1631    1.1972   30.1808 C.ar    1  UNL1        0.0615
      2 C           0.4659    2.1849   31.0687 C.ar    1  UNL1        0.0186
      3 C           1.0170    2.4890   32.4302 C.ar    1  UNL1        0.0398
      4 C           2.2654    1.8054   32.9039 C.ar    1  UNL1        0.1568
      5 C           2.9626    0.8177   32.0160 C.ar    1  UNL1        0.1242
      6 N           4.2012   -0.0060   32.2093 N.ar    1  UNL1       -0.2208
      7 C           4.4155   -0.8192   30.9673 C.ar    1  UNL1        0.1659
      8 S           3.3094   -0.4981   30.0063 S.2     1  UNL1       -0.0500
      9 C           2.4114    0.5136   30.6545 C.ar    1  UNL1        0.0664
     10 N           0.6120    0.8931   28.8193 N.am    1  UNL1       -0.2581
     11 C           1.0423    1.7092   27.6365 C.2     1  UNL1        0.2298
     12 C           0.4912    1.4051   26.2750 C.3     1  UNL1        0.0952
     13 O           2.0238    2.8293   27.8154 O.2     1  UNL1       -0.2745
     14 C          -1.7554   -0.1067   29.2018 C.3     1  UNL1        0.0237
     15 C          -0.3695   -0.2271   28.6405 C.3     1  UNL1        0.0983
     16 N           5.5388   -1.7841   30.7281 N.am    1  UNL1       -0.2594
     17 C           5.8633   -2.8271   31.7561 C.2     1  UNL1        0.2683
     18 O           5.0646   -2.9052   33.0234 O.2     1  UNL1       -0.2681
     19 H           6.0631   -1.7329   29.8964 H       1  UNL1        0.1571
     20 C           6.9866   -3.7920   31.5169 C.ar    1  UNL1        0.1330
     21 C           6.8763   -5.1207   30.8296 C.ar    1  UNL1        0.0458
     22 C           8.2390   -5.7474   30.8109 C.ar    1  UNL1        0.1218
     23 N           9.1915   -4.8061   31.4866 N.ar    1  UNL1       -0.1675
     24 N           8.4174   -3.5975   31.9229 N.ar    1  UNL1       -0.2443
     25 C           8.9762   -2.4040   32.6395 C.3     1  UNL1        0.1539
     26 O           2.8165    2.1096   34.2655 O.3     1  UNL1       -0.4699
     27 C           3.9342    3.0982   34.4185 C.3     1  UNL1        0.2525
@<TRIPOS>BOND
     1    14    15    1
     2    15    10    1
     3    10    11   am
     4    11    12    1
     5    11    13    2
     6    10     1    1
     7     1     2   ar
     8     2     3   ar
     9     3     4   ar
    10     4    26    1
    11    26    27    1
    12     4     5   ar
    13     5     6   ar
    14     6     7   ar
    15     7    16    1
    16    16    17   am
    17    17    18    2
    18    17    20    1
    19    20    21   ar
    20    21    22   ar
    21    22    23   ar
    22    23    24   ar
    23    24    25    1
    24     7     8   ar
    25     8     9   ar
    26     9     1   ar
    27     9     5   ar
    28    24    20   ar
    29    16    19    1
@<TRIPOS>MOLECULE
*****
 27 29 0 0 0
SMALL
GASTEIGER

@<TRIPOS>ATOM
      1 C           4.6269   -1.7496   19.4063 C.ar    1  UNL1        0.0615
      2 C           4.6140   -1.1776   18.0197 C.ar    1  UNL1        0.0186
      3 C           3.8104    0.0538   17.7238 C.ar    1  UNL1        0.0398
      4 C           3.0195    0.7134   18.8145 C.ar    1  UNL1        0.1568
      5 C           3.0323    0.1414   20.2011 C.ar    1  UNL1        0.1242
      6 N           2.3567    0.5700   21.4699 N.ar    1  UNL1       -0.2208
      7 C           2.7429   -0.3966   22.5500 C.ar    1  UNL1        0.1659
      8 S           3.6571   -1.4226   21.9487 S.2     1  UNL1       -0.0500
      9 C           3.8360   -1.0901   20.4970 C.ar    1  UNL1        0.0664
     10 N           5.4305   -2.9811   19.7022 N.am    1  UNL1       -0.2581
     11 C           6.7258   -2.8695   20.4507 C.2     1  UNL1        0.2298
     12 C           7.5294   -4.1009   20.7466 C.3     1  UNL1        0.0952
     13 O           7.2171   -1.5265   20.9031 O.2     1  UNL1       -0.2745
     14 C           3.4788   -4.6563   19.3358 C.3     1  UNL1        0.0237
     15 C           4.9391   -4.3241   19.2497 C.3     1  UNL1        0.0983
     16 N           2.2937   -0.3461   23.9802 N.am    1  UNL1       -0.2594
     17 C           3.1228    0.3744   25.0018 C.2     1  UNL1        0.2683
     18 O           4.4010    1.0445   24.5931 O.2     1  UNL1       -0.2681
     19 H           1.4547   -0.7858   24.2485 H       1  UNL1        0.1571
     20 C           2.6735    0.4249   26.4320 C.ar    1  UNL1        0.1330
     21 C           1.6708    1.3801   27.0080 C.ar    1  UNL1        0.0458
     22 C           1.5257    1.0745   28.4694 C.ar    1  UNL1        0.1218
     23 N           2.4387   -0.0697   28.7966 N.ar    1  UNL1       -0.1675
     24 N           3.1482   -0.4712   27.5373 N.ar    1  UNL1       -0.2443
     25 C           4.1554   -1.5750   27.4065 C.3     1  UNL1        0.1539
     26 O           2.2158    1.9449   18.5185 O.3     1  UNL1       -0.4699
     27 C           0.7228    1.8568   18.4047 C.3     1  UNL1        0.2525
@<TRIPOS>BOND
     1    14    15    1
     2    15    10    1
     3    10    11   am
     4    11    12    1
     5    11    13    2
     6    10     1    1
     7     1     2   ar
     8     2     3   ar
     9     3     4   ar
    10     4    26    1
    11    26    27    1
    12     4     5   ar
    13     5     6   ar
    14     6     7   ar
    15     7    16    1
    16    16    17   am
    17    17    18    2
    18    17    20    1
    19    20    21   ar
    20    21    22   ar
    21    22    23   ar
    22    23    24   ar
    23    24    25    1
    24     7     8   ar
    25     8     9   ar
    26     9     1   ar
    27     9     5   ar
    28    24    20   ar
    29    16    19    1
@<TRIPOS>MOLECULE
*****
 27 29 0 0 0
SMALL
GASTEIGER

@<TRIPOS>ATOM
      1 C           1.4791    2.0178   30.8197 C.ar    1  UNL1        0.0615
      2 C           1.0269    3.1705   31.6662 C.ar    1  UNL1        0.0186
      3 C           1.4358    3.2486   33.1072 C.ar    1  UNL1        0.0398
      4 C           2.2971    2.1740   33.7018 C.ar    1  UNL1        0.1568
      5 C           2.7493    1.0212   32.8552 C.ar    1  UNL1        0.1242
      6 N           3.5969   -0.1777   33.1622 N.ar    1  UNL1       -0.2208
      7 C           3.7117   -0.9967   31.9108 C.ar    1  UNL1        0.1659
      8 S           2.9351   -0.3041   30.8305 S.2     1  UNL1       -0.0500
      9 C           2.3403    0.9431   31.4142 C.ar    1  UNL1        0.0664
     10 N           1.0701    1.9397   29.3786 N.am    1  UNL1       -0.2581
     11 C          -0.1506    1.1609   28.9866 C.2     1  UNL1        0.2298
     12 C          -0.5596    1.0828   27.5456 C.3     1  UNL1        0.0952
     13 O          -0.9621    0.4603   30.0357 O.2     1  UNL1       -0.2745
     14 C           3.3622    2.8004   28.5097 C.3     1  UNL1        0.0237
     15 C           1.8817    2.6403   28.3296 C.3     1  UNL1        0.0983
     16 N           4.4701   -2.2827   31.7653 N.am    1  UNL1       -0.2594
     17 C           5.7199   -2.3268   30.9371 C.2     1  UNL1        0.2683
     18 O           6.2114   -1.0850   30.2543 O.2     1  UNL1       -0.2681
     19 H           4.1475   -3.0978   32.2134 H       1  UNL1        0.1571
     20 C           6.4782   -3.6129   30.7916 C.ar    1  UNL1        0.1330
     21 C           7.1209   -4.3880   31.9032 C.ar    1  UNL1        0.0458
     22 C           7.7668   -5.6037   31.3075 C.ar    1  UNL1        0.1218
     23 N           7.5232   -5.5800   29.8277 N.ar    1  UNL1       -0.1675
     24 N           6.7268   -4.3495   29.5088 N.ar    1  UNL1       -0.2443
     25 C           6.2608   -3.9294   28.1463 C.3     1  UNL1        0.1539
     26 O           2.7060    2.2521   35.1429 O.3     1  UNL1       -0.4699
     27 C           2.4722    3.5127   35.9215 C.3     1  UNL1        0.2525
@<TRIPOS>BOND
     1    14    15    1
     2    15    10    1
     3    10    11   am
     4    11    12    1
     5    11    13    2
     6    10     1    1
     7     1     2   ar
     8     2     3   ar
     9     3     4   ar
    10     4    26    1
    11    26    27    1
    12     4     5   ar
    13     5     6   ar
    14     6     7   ar
    15     7    16    1
    16    16    17   am
    17    17    18    2
    18    17    20    1
    19    20    21   ar
    20    21    22   ar
    21    22    23   ar
    22    23    24   ar
    23    24    25    1
    24     7     8   ar
    25     8     9   ar
    26     9     1   ar
    27     9     5   ar
    28    24    20   ar
    29    16    19    1
