@<TRIPOS>MOLECULE
*****
 33 37 0 0 0
SMALL
GASTEIGER

@<TRIPOS>ATOM
      1 C          -7.6808  -19.7174   20.7839 C.3     1  UNL1        0.0920
      2 C          -8.2062  -20.1685   19.4533 C.3     1  UNL1        0.0429
      3 C          -9.4465  -19.3801   19.1532 C.3     1  UNL1        0.0985
      4 N          -9.6877  -18.4418   20.2983 N.am    1  UNL1       -0.2443
      5 C         -10.8212  -17.4662   20.4152 C.2     1  UNL1        0.4048
      6 O         -11.8429  -17.3691   19.3212 O.2     1  UNL1       -0.2262
      7 C          -8.5965  -18.6502   21.3063 C.3     1  UNL1        0.1162
      8 N          -6.4551  -20.2415   21.4716 N.pl3   1  UNL1       -0.3180
      9 H          -6.5305  -20.9833   22.1144 H       1  UNL1        0.1482
     10 C          -2.4330  -18.4232   20.5961 C.ar    1  UNL1        0.0877
     11 C          -2.7978  -18.7951   22.0027 C.ar    1  UNL1        0.0147
     12 C          -4.1385  -19.4013   22.2946 C.ar    1  UNL1        0.0348
     13 C          -5.1144  -19.6354   21.1797 C.ar    1  UNL1        0.1286
     14 N          -4.7496  -19.2634   19.7731 N.ar    1  UNL1       -0.2287
     15 C          -3.4090  -18.6573   19.4813 C.ar    1  UNL1        0.1105
     16 N           0.2484  -17.2109   20.0124 N.1     1  UNL1       -0.1908
     17 C          -1.0923  -17.8170   20.3043 C.1     1  UNL1        0.1020
     18 O         -10.9329  -16.5879   21.6259 O.3     1  UNL1       -0.4383
     19 C         -10.5748  -17.1269   22.9792 C.3     1  UNL1        0.1702
     20 C          -9.6071  -16.3827   23.8509 C.3     1  UNL1        0.0407
     21 C         -10.2167  -17.6658   24.3324 C.3     1  UNL1        0.0036
     22 C          -9.8585  -18.2048   25.6857 C.3     1  UNL1        0.0007
     23 C         -10.8262  -18.9490   24.8140 C.3     1  UNL1        0.0036
     24 C         -11.1843  -18.4100   23.4608 C.3     1  UNL1        0.0407
     25 C          -9.1919  -17.3479   25.8506 C.3     1  UNL1        0.0122
     26 C          -8.2813  -16.1774   26.0757 C.3     1  UNL1        0.0688
     27 C          -8.8909  -17.4606   26.5573 C.3     1  UNL1        0.0086
     28 C          -8.6395  -15.6385   24.7225 C.3     1  UNL1        0.0122
     29 C          -7.3137  -15.4332   26.9474 C.2     1  UNL1        0.2184
     30 N          -7.8182  -14.4288   27.9406 N.am    1  UNL1       -0.3288
     31 O          -5.8414  -15.6935   26.8258 O.2     1  UNL1       -0.2754
     32 H          -8.7845  -14.2580   28.0204 H       1  UNL1        0.1449
     33 H          -7.1831  -13.9403   28.5127 H       1  UNL1        0.1449
@<TRIPOS>BOND
     1    16    17    3
     2    17    10    1
     3    10    11   ar
     4    11    12   ar
     5    12    13   ar
     6    13     8    1
     7     1     8    1
     8     1     2    1
     9     2     3    1
    10     3     4    1
    11     4     5   am
    12     5     6    2
    13     5    18    1
    14    19    18    1
    15    19    20    1
    16    20    21    1
    17    21    22    1
    18    22    23    1
    19    23    24    1
    20    24    25    1
    21    25    26    1
    22    26    29    1
    23    29    30   am
    24    29    31    2
    25    26    27    1
    26    26    28    1
    27     4     7    1
    28    13    14   ar
    29    14    15   ar
    30    15    10   ar
    31     7     1    1
    32    24    19    1
    33    28    20    1
    34    27    22    1
    35     8     9    1
    36    30    32    1
    37    30    33    1
@<TRIPOS>MOLECULE
*****
 33 37 0 0 0
SMALL
GASTEIGER

@<TRIPOS>ATOM
      1 C          -9.4593  -18.5947   20.2625 C.3     1  UNL1        0.0920
      2 C          -9.4025  -19.3941   18.9945 C.3     1  UNL1        0.0429
      3 C          -8.1860  -20.2697   19.0526 C.3     1  UNL1        0.0985
      4 N          -7.4908  -20.0114   20.3564 N.am    1  UNL1       -0.2443
      5 C          -6.2300  -20.6723   20.8295 C.2     1  UNL1        0.4048
      6 O          -5.5505  -21.6950   19.9679 O.2     1  UNL1       -0.2262
      7 C          -8.2777  -18.9762   21.1043 C.3     1  UNL1        0.1162
      8 N         -10.5126  -17.5902   20.6251 N.pl3   1  UNL1       -0.3180
      9 H         -10.6302  -16.7807   20.0772 H       1  UNL1        0.1482
     10 C         -13.1349  -18.2765   24.2170 C.ar    1  UNL1        0.0877
     11 C         -13.7401  -17.8191   22.9230 C.ar    1  UNL1        0.0147
     12 C         -12.8660  -17.5903   21.7257 C.ar    1  UNL1        0.0348
     13 C         -11.3867  -17.8190   21.8225 C.ar    1  UNL1        0.1286
     14 N         -10.7815  -18.2764   23.1164 N.ar    1  UNL1       -0.2287
     15 C         -11.6555  -18.5052   24.3137 C.ar    1  UNL1        0.1105
     16 N         -14.8831  -18.7341   26.6117 N.1     1  UNL1       -0.1908
     17 C         -14.0090  -18.5053   25.4144 C.1     1  UNL1        0.1020
     18 O          -5.6488  -20.3104   22.1641 O.3     1  UNL1       -0.4383
     19 C          -4.7207  -19.1381   22.2850 C.3     1  UNL1        0.1702
     20 C          -3.4797  -19.0742   21.4449 C.3     1  UNL1        0.0407
     21 C          -3.7927  -17.9659   22.4059 C.3     1  UNL1        0.0036
     22 C          -2.8647  -16.7937   22.5268 C.3     1  UNL1        0.0007
     23 C          -4.1058  -16.8575   23.3669 C.3     1  UNL1        0.0036
     24 C          -5.0338  -18.0297   23.2460 C.3     1  UNL1        0.0407
     25 C          -2.2079  -17.2351   21.7656 C.3     1  UNL1        0.0122
     26 C          -1.3107  -17.8382   20.7257 C.3     1  UNL1        0.0688
     27 C          -1.6237  -16.7298   21.6867 C.3     1  UNL1        0.0086
     28 C          -2.2387  -19.0104   20.6048 C.3     1  UNL1        0.0122
     29 C          -0.0696  -17.7743   19.8857 C.2     1  UNL1        0.2184
     30 N          -0.1777  -17.7277   18.3903 N.am    1  UNL1       -0.3288
     31 O           1.2796  -17.7570   20.5409 O.2     1  UNL1       -0.2754
     32 H          -1.0632  -17.7390   17.9602 H       1  UNL1        0.1449
     33 H           0.6368  -17.6858   17.8390 H       1  UNL1        0.1449
@<TRIPOS>BOND
     1    16    17    3
     2    17    10    1
     3    10    11   ar
     4    11    12   ar
     5    12    13   ar
     6    13     8    1
     7     1     8    1
     8     1     2    1
     9     2     3    1
    10     3     4    1
    11     4     5   am
    12     5     6    2
    13     5    18    1
    14    19    18    1
    15    19    20    1
    16    20    21    1
    17    21    22    1
    18    22    23    1
    19    23    24    1
    20    24    25    1
    21    25    26    1
    22    26    29    1
    23    29    30   am
    24    29    31    2
    25    26    27    1
    26    26    28    1
    27     4     7    1
    28    13    14   ar
    29    14    15   ar
    30    15    10   ar
    31     7     1    1
    32    24    19    1
    33    28    20    1
    34    27    22    1
    35     8     9    1
    36    30    32    1
    37    30    33    1
@<TRIPOS>MOLECULE
*****
 33 37 0 0 0
SMALL
GASTEIGER

@<TRIPOS>ATOM
      1 C         -10.4879  -18.1918   22.0702 C.3     1  UNL1        0.0920
      2 C         -11.4630  -19.2509   21.6487 C.3     1  UNL1        0.0429
      3 C         -10.8659  -19.9969   20.4924 C.3     1  UNL1        0.0985
      4 N          -9.5218  -19.3989   20.1993 N.am    1  UNL1       -0.2443
      5 C          -8.5772  -19.8392   19.1205 C.2     1  UNL1        0.4048
      6 O          -8.9493  -20.9765   18.2160 O.2     1  UNL1       -0.2262
      7 C          -9.2882  -18.2833   21.1744 C.3     1  UNL1        0.1162
      8 N         -10.6790  -17.2131   23.1908 N.pl3   1  UNL1       -0.3180
      9 H         -11.5872  -16.9776   23.4891 H       1  UNL1        0.1482
     10 C          -7.1013  -15.3536   25.1887 C.ar    1  UNL1        0.0877
     11 C          -8.0564  -16.1897   25.9879 C.ar    1  UNL1        0.0147
     12 C          -9.2490  -16.8096   25.3220 C.ar    1  UNL1        0.0348
     13 C          -9.4864  -16.5933   23.8567 C.ar    1  UNL1        0.1286
     14 N          -8.5313  -15.7571   23.0575 N.ar    1  UNL1       -0.2287
     15 C          -7.3388  -15.1373   23.7235 C.ar    1  UNL1        0.1105
     16 N          -4.7161  -14.1139   26.5207 N.1     1  UNL1       -0.1908
     17 C          -5.9087  -14.7337   25.8547 C.1     1  UNL1        0.1020
     18 O          -7.2605  -19.1422   18.9461 O.3     1  UNL1       -0.4383
     19 C          -6.1691  -19.3370   19.9567 C.3     1  UNL1        0.1702
     20 C          -4.7764  -18.8676   19.6564 C.3     1  UNL1        0.0407
     21 C          -5.0778  -19.5318   20.9671 C.3     1  UNL1        0.0036
     22 C          -3.9864  -19.7266   21.9775 C.3     1  UNL1        0.0007
     23 C          -5.3791  -20.1960   22.2778 C.3     1  UNL1        0.0036
     24 C          -6.4704  -20.0012   21.2674 C.3     1  UNL1        0.0407
     25 C          -3.2704  -19.2475   21.2966 C.3     1  UNL1        0.0122
     26 C          -2.2925  -18.5930   20.3665 C.3     1  UNL1        0.0688
     27 C          -2.5938  -19.2572   21.6772 C.3     1  UNL1        0.0086
     28 C          -3.3838  -18.3982   19.3561 C.3     1  UNL1        0.0122
     29 C          -0.8998  -18.1236   20.0662 C.2     1  UNL1        0.2184
     30 N          -0.5717  -16.6613   20.1275 N.am    1  UNL1       -0.3288
     31 O           0.1647  -19.1166   19.7046 O.2     1  UNL1       -0.2754
     32 H          -1.2703  -16.0095   20.3649 H       1  UNL1        0.1449
     33 H           0.3424  -16.3532   19.9304 H       1  UNL1        0.1449
@<TRIPOS>BOND
     1    16    17    3
     2    17    10    1
     3    10    11   ar
     4    11    12   ar
     5    12    13   ar
     6    13     8    1
     7     1     8    1
     8     1     2    1
     9     2     3    1
    10     3     4    1
    11     4     5   am
    12     5     6    2
    13     5    18    1
    14    19    18    1
    15    19    20    1
    16    20    21    1
    17    21    22    1
    18    22    23    1
    19    23    24    1
    20    24    25    1
    21    25    26    1
    22    26    29    1
    23    29    30   am
    24    29    31    2
    25    26    27    1
    26    26    28    1
    27     4     7    1
    28    13    14   ar
    29    14    15   ar
    30    15    10   ar
    31     7     1    1
    32    24    19    1
    33    28    20    1
    34    27    22    1
    35     8     9    1
    36    30    32    1
    37    30    33    1
@<TRIPOS>MOLECULE
*****
 33 37 0 0 0
SMALL
GASTEIGER

@<TRIPOS>ATOM
      1 C          -9.3725  -19.5823   20.7725 C.3     1  UNL1        0.0920
      2 C         -10.3740  -20.5567   21.3181 C.3     1  UNL1        0.0429
      3 C         -11.0852  -19.8983   22.4630 C.3     1  UNL1        0.0985
      4 N         -10.5232  -18.5170   22.6250 N.am    1  UNL1       -0.2443
      5 C         -10.9456  -17.5081   23.6516 C.2     1  UNL1        0.4048
      6 O         -12.0241  -17.8475   24.6373 O.2     1  UNL1       -0.2262
      7 C          -9.4647  -18.3216   21.5803 C.3     1  UNL1        0.1162
      8 N          -8.4422  -19.8257   19.6213 N.pl3   1  UNL1       -0.3180
      9 H          -8.8048  -20.0563   18.7356 H       1  UNL1        0.1482
     10 C          -3.9935  -19.5025   20.2165 C.ar    1  UNL1        0.0877
     11 C          -4.6484  -20.8513   20.1740 C.ar    1  UNL1        0.0147
     12 C          -6.1313  -20.9590   19.9756 C.ar    1  UNL1        0.0348
     13 C          -6.9592  -19.7179   19.8197 C.ar    1  UNL1        0.1286
     14 N          -6.3043  -18.3692   19.8623 N.ar    1  UNL1       -0.2287
     15 C          -4.8215  -18.2614   20.0607 C.ar    1  UNL1        0.1105
     16 N          -1.0276  -19.2869   20.6133 N.1     1  UNL1       -0.1908
     17 C          -2.5105  -19.3947   20.4149 C.1     1  UNL1        0.1020
     18 O         -10.2895  -16.1599   23.6924 O.3     1  UNL1       -0.4383
     19 C          -9.0082  -15.9719   24.4494 C.3     1  UNL1        0.1702
     20 C          -7.6938  -16.2349   23.7763 C.3     1  UNL1        0.0407
     21 C          -7.7270  -15.7839   25.2064 C.3     1  UNL1        0.0036
     22 C          -6.4458  -15.5959   25.9634 C.3     1  UNL1        0.0007
     23 C          -7.7602  -15.3328   26.6366 C.3     1  UNL1        0.0036
     24 C          -9.0414  -15.5208   25.8796 C.3     1  UNL1        0.0407
     25 C          -5.8762  -15.8977   25.0745 C.3     1  UNL1        0.0122
     26 C          -5.0982  -16.3100   23.8601 C.3     1  UNL1        0.0688
     27 C          -5.1314  -15.8590   25.2903 C.3     1  UNL1        0.0086
     28 C          -6.3794  -16.4980   23.1031 C.3     1  UNL1        0.0122
     29 C          -3.7838  -16.5731   23.1869 C.2     1  UNL1        0.2184
     30 N          -3.0225  -17.8287   23.4930 N.am    1  UNL1       -0.3288
     31 O          -3.2308  -15.5806   22.2077 O.2     1  UNL1       -0.2754
     32 H          -3.3855  -18.4802   24.1357 H       1  UNL1        0.1449
     33 H          -2.1598  -18.0014   23.0512 H       1  UNL1        0.1449
@<TRIPOS>BOND
     1    16    17    3
     2    17    10    1
     3    10    11   ar
     4    11    12   ar
     5    12    13   ar
     6    13     8    1
     7     1     8    1
     8     1     2    1
     9     2     3    1
    10     3     4    1
    11     4     5   am
    12     5     6    2
    13     5    18    1
    14    19    18    1
    15    19    20    1
    16    20    21    1
    17    21    22    1
    18    22    23    1
    19    23    24    1
    20    24    25    1
    21    25    26    1
    22    26    29    1
    23    29    30   am
    24    29    31    2
    25    26    27    1
    26    26    28    1
    27     4     7    1
    28    13    14   ar
    29    14    15   ar
    30    15    10   ar
    31     7     1    1
    32    24    19    1
    33    28    20    1
    34    27    22    1
    35     8     9    1
    36    30    32    1
    37    30    33    1
@<TRIPOS>MOLECULE
*****
 33 37 0 0 0
SMALL
GASTEIGER

@<TRIPOS>ATOM
      1 C          -4.8278  -16.8116   24.1833 C.3     1  UNL1        0.0920
      2 C          -4.8228  -15.3215   24.3550 C.3     1  UNL1        0.0429
      3 C          -6.2076  -14.8948   24.7424 C.3     1  UNL1        0.0985
      4 N          -7.0686  -16.1212   24.8101 N.am    1  UNL1       -0.2443
      5 C          -8.5264  -16.1567   25.1617 C.2     1  UNL1        0.4048
      6 O          -9.2509  -14.8840   25.4862 O.2     1  UNL1       -0.2262
      7 C          -6.2159  -17.3059   24.4646 C.3     1  UNL1        0.1162
      8 N          -3.6515  -17.6588   23.7979 N.pl3   1  UNL1       -0.3180
      9 H          -3.1864  -18.1949   24.4802 H       1  UNL1        0.1482
     10 C          -2.2481  -17.7495   19.5234 C.ar    1  UNL1        0.0877
     11 C          -1.5987  -16.8210   20.5064 C.ar    1  UNL1        0.0147
     12 C          -2.0665  -16.7908   21.9313 C.ar    1  UNL1        0.0348
     13 C          -3.1837  -17.6890   22.3730 C.ar    1  UNL1        0.1286
     14 N          -3.8330  -18.6174   21.3900 N.ar    1  UNL1       -0.2287
     15 C          -3.3653  -18.6477   19.9652 C.ar    1  UNL1        0.1105
     16 N          -1.3125  -17.8100   16.6736 N.1     1  UNL1       -0.1908
     17 C          -1.7803  -17.7797   18.0985 C.1     1  UNL1        0.1020
     18 O          -9.2597  -17.4649   25.1888 O.3     1  UNL1       -0.4383
     19 C          -9.9025  -17.9905   23.9394 C.3     1  UNL1        0.1702
     20 C         -10.2870  -17.0459   22.8395 C.3     1  UNL1        0.0407
     21 C         -10.5452  -18.5159   22.6901 C.3     1  UNL1        0.0036
     22 C         -11.1879  -19.0413   21.4408 C.3     1  UNL1        0.0007
     23 C         -10.8034  -19.9859   22.5408 C.3     1  UNL1        0.0036
     24 C         -10.1607  -19.4605   23.7901 C.3     1  UNL1        0.0407
     25 C         -11.2413  -18.0208   21.0390 C.3     1  UNL1        0.0122
     26 C         -11.3143  -16.6268   20.4902 C.3     1  UNL1        0.0688
     27 C         -11.5725  -18.0968   20.3409 C.3     1  UNL1        0.0086
     28 C         -10.6716  -16.1013   21.7395 C.3     1  UNL1        0.0122
     29 C         -11.6988  -15.6822   19.3902 C.2     1  UNL1        0.2184
     30 N         -13.1452  -15.4749   19.0511 N.am    1  UNL1       -0.3288
     31 O         -10.6370  -14.9449   18.6294 O.2     1  UNL1       -0.2754
     32 H         -13.8421  -15.9588   19.5504 H       1  UNL1        0.1449
     33 H         -13.3975  -14.8550   18.3292 H       1  UNL1        0.1449
@<TRIPOS>BOND
     1    16    17    3
     2    17    10    1
     3    10    11   ar
     4    11    12   ar
     5    12    13   ar
     6    13     8    1
     7     1     8    1
     8     1     2    1
     9     2     3    1
    10     3     4    1
    11     4     5   am
    12     5     6    2
    13     5    18    1
    14    19    18    1
    15    19    20    1
    16    20    21    1
    17    21    22    1
    18    22    23    1
    19    23    24    1
    20    24    25    1
    21    25    26    1
    22    26    29    1
    23    29    30   am
    24    29    31    2
    25    26    27    1
    26    26    28    1
    27     4     7    1
    28    13    14   ar
    29    14    15   ar
    30    15    10   ar
    31     7     1    1
    32    24    19    1
    33    28    20    1
    34    27    22    1
    35     8     9    1
    36    30    32    1
    37    30    33    1
@<TRIPOS>MOLECULE
*****
 33 37 0 0 0
SMALL
GASTEIGER

@<TRIPOS>ATOM
      1 C         -10.4550  -18.7075   22.0803 C.3     1  UNL1        0.0920
      2 C         -11.1012  -18.1959   20.8270 C.3     1  UNL1        0.0429
      3 C         -10.3122  -18.7052   19.6574 C.3     1  UNL1        0.0985
      4 N          -9.1783  -19.5317   20.1878 N.am    1  UNL1       -0.2443
      5 C          -8.1387  -20.2335   19.3652 C.2     1  UNL1        0.4048
      6 O          -8.1785  -20.1413   17.8685 O.2     1  UNL1       -0.2262
      7 C          -9.2665  -19.5331   21.6852 C.3     1  UNL1        0.1162
      8 N         -10.9162  -18.4405   23.4824 N.pl3   1  UNL1       -0.3180
      9 H         -11.7753  -18.8051   23.7959 H       1  UNL1        0.1482
     10 C          -8.3731  -15.9728   26.2560 C.ar    1  UNL1        0.0877
     11 C          -8.8667  -17.3207   26.6911 C.ar    1  UNL1        0.0147
     12 C          -9.7144  -18.1433   25.7666 C.ar    1  UNL1        0.0348
     13 C         -10.0685  -17.6179   24.4069 C.ar    1  UNL1        0.1286
     14 N          -9.5748  -16.2699   23.9718 N.ar    1  UNL1       -0.2287
     15 C          -8.7272  -15.4473   24.8963 C.ar    1  UNL1        0.1105
     16 N          -6.6777  -14.3275   28.1051 N.1     1  UNL1       -0.1908
     17 C          -7.5254  -15.1501   27.1805 C.1     1  UNL1        0.1020
     18 O          -7.0593  -21.0275   20.0392 O.3     1  UNL1       -0.4383
     19 C          -5.8206  -20.3409   20.5336 C.3     1  UNL1        0.1702
     20 C          -5.9278  -19.2343   21.5407 C.3     1  UNL1        0.0407
     21 C          -4.5821  -19.6542   21.0280 C.3     1  UNL1        0.0036
     22 C          -3.3436  -18.9675   21.5225 C.3     1  UNL1        0.0007
     23 C          -3.2364  -20.0740   20.5154 C.3     1  UNL1        0.0036
     24 C          -4.4750  -20.7607   20.0210 C.3     1  UNL1        0.0407
     25 C          -3.9576  -18.3224   22.1648 C.3     1  UNL1        0.0122
     26 C          -4.7964  -17.4412   23.0421 C.3     1  UNL1        0.0688
     27 C          -3.4507  -17.8610   22.5295 C.3     1  UNL1        0.0086
     28 C          -6.0349  -18.1278   22.5477 C.3     1  UNL1        0.0122
     29 C          -4.9036  -16.3347   24.0492 C.2     1  UNL1        0.2184
     30 N          -4.7676  -16.6363   25.5122 N.am    1  UNL1       -0.3288
     31 O          -5.1467  -14.9265   23.5932 O.2     1  UNL1       -0.2754
     32 H          -4.6080  -17.5605   25.8115 H       1  UNL1        0.1449
     33 H          -4.8380  -15.9100   26.1732 H       1  UNL1        0.1449
@<TRIPOS>BOND
     1    16    17    3
     2    17    10    1
     3    10    11   ar
     4    11    12   ar
     5    12    13   ar
     6    13     8    1
     7     1     8    1
     8     1     2    1
     9     2     3    1
    10     3     4    1
    11     4     5   am
    12     5     6    2
    13     5    18    1
    14    19    18    1
    15    19    20    1
    16    20    21    1
    17    21    22    1
    18    22    23    1
    19    23    24    1
    20    24    25    1
    21    25    26    1
    22    26    29    1
    23    29    30   am
    24    29    31    2
    25    26    27    1
    26    26    28    1
    27     4     7    1
    28    13    14   ar
    29    14    15   ar
    30    15    10   ar
    31     7     1    1
    32    24    19    1
    33    28    20    1
    34    27    22    1
    35     8     9    1
    36    30    32    1
    37    30    33    1
@<TRIPOS>MOLECULE
*****
 33 37 0 0 0
SMALL
GASTEIGER

@<TRIPOS>ATOM
      1 C          -4.9208  -16.6439   24.0654 C.3     1  UNL1        0.0920
      2 C          -4.2910  -16.2153   25.3576 C.3     1  UNL1        0.0429
      3 C          -5.3786  -15.7083   26.2576 C.3     1  UNL1        0.0985
      4 N          -6.6806  -15.8236   25.5218 N.am    1  UNL1       -0.2443
      5 C          -8.0289  -15.4298   26.0483 C.2     1  UNL1        0.4048
      6 O          -8.1576  -14.8617   27.4306 O.2     1  UNL1       -0.2262
      7 C          -6.3978  -16.4018   24.1669 C.3     1  UNL1        0.1162
      8 N          -4.2003  -17.2144   22.8799 N.pl3   1  UNL1       -0.3180
      9 H          -3.2818  -16.9246   22.6759 H       1  UNL1        0.1482
     10 C          -6.2371  -20.2502   20.2561 C.ar    1  UNL1        0.0877
     11 C          -6.8812  -19.8153   21.5391 C.ar    1  UNL1        0.0147
     12 C          -6.2022  -18.8034   22.4137 C.ar    1  UNL1        0.0348
     13 C          -4.8792  -18.2264   22.0053 C.ar    1  UNL1        0.1286
     14 N          -4.2352  -18.6613   20.7223 N.ar    1  UNL1       -0.2287
     15 C          -4.9141  -19.6732   19.8477 C.ar    1  UNL1        0.1105
     16 N          -7.5950  -22.2742   18.5068 N.1     1  UNL1       -0.1908
     17 C          -6.9161  -21.2622   19.3815 C.1     1  UNL1        0.1020
     18 O          -9.2484  -15.6040   25.1925 O.3     1  UNL1       -0.4383
     19 C          -9.5993  -16.9594   24.6540 C.3     1  UNL1        0.1702
     20 C          -9.8513  -17.1410   23.1865 C.3     1  UNL1        0.0407
     21 C          -9.9502  -18.3146   24.1154 C.3     1  UNL1        0.0036
     22 C         -10.3011  -19.6699   23.5768 C.3     1  UNL1        0.0007
     23 C         -10.0491  -19.4882   25.0442 C.3     1  UNL1        0.0036
     24 C          -9.6982  -18.1330   25.5828 C.3     1  UNL1        0.0407
     25 C         -10.3658  -19.2507   22.5639 C.3     1  UNL1        0.0122
     26 C         -10.4542  -18.6780   21.1804 C.3     1  UNL1        0.0688
     27 C         -10.5531  -19.8515   22.1093 C.3     1  UNL1        0.0086
     28 C         -10.1033  -17.3227   21.7190 C.3     1  UNL1        0.0122
     29 C         -10.7062  -18.8596   19.7129 C.2     1  UNL1        0.2184
     30 N         -10.0545  -19.9909   18.9744 N.am    1  UNL1       -0.3288
     31 O         -11.6098  -17.9099   18.9839 O.2     1  UNL1       -0.2754
     32 H          -9.4614  -20.6143   19.4529 H       1  UNL1        0.1449
     33 H         -10.2199  -20.1102   18.0113 H       1  UNL1        0.1449
@<TRIPOS>BOND
     1    16    17    3
     2    17    10    1
     3    10    11   ar
     4    11    12   ar
     5    12    13   ar
     6    13     8    1
     7     1     8    1
     8     1     2    1
     9     2     3    1
    10     3     4    1
    11     4     5   am
    12     5     6    2
    13     5    18    1
    14    19    18    1
    15    19    20    1
    16    20    21    1
    17    21    22    1
    18    22    23    1
    19    23    24    1
    20    24    25    1
    21    25    26    1
    22    26    29    1
    23    29    30   am
    24    29    31    2
    25    26    27    1
    26    26    28    1
    27     4     7    1
    28    13    14   ar
    29    14    15   ar
    30    15    10   ar
    31     7     1    1
    32    24    19    1
    33    28    20    1
    34    27    22    1
    35     8     9    1
    36    30    32    1
    37    30    33    1
@<TRIPOS>MOLECULE
*****
 33 37 0 0 0
SMALL
GASTEIGER

@<TRIPOS>ATOM
      1 C          -5.1493  -16.8699   23.9738 C.3     1  UNL1        0.0920
      2 C          -5.0460  -15.4086   24.2965 C.3     1  UNL1        0.0429
      3 C          -6.4277  -14.8972   24.5779 C.3     1  UNL1        0.0985
      4 N          -7.3851  -16.0423   24.4290 N.am    1  UNL1       -0.2443
      5 C          -8.8716  -15.9794   24.6200 C.2     1  UNL1        0.4048
      6 O          -9.5253  -14.6825   24.9950 O.2     1  UNL1       -0.2262
      7 C          -6.5950  -17.2615   24.0557 C.3     1  UNL1        0.1162
      8 N          -4.0075  -17.7797   23.6296 N.pl3   1  UNL1       -0.3180
      9 H          -3.6210  -18.3669   24.3188 H       1  UNL1        0.1482
     10 C          -2.3488  -17.8251   19.4468 C.ar    1  UNL1        0.0877
     11 C          -1.6556  -17.0392   20.5200 C.ar    1  UNL1        0.0147
     12 C          -2.2085  -17.0241   21.9143 C.ar    1  UNL1        0.0348
     13 C          -3.4546  -17.7949   22.2353 C.ar    1  UNL1        0.1286
     14 N          -4.1478  -18.5808   21.1621 N.ar    1  UNL1       -0.2287
     15 C          -3.5950  -18.5959   19.7678 C.ar    1  UNL1        0.1105
     16 N          -1.2430  -17.8554   16.6581 N.1     1  UNL1       -0.1908
     17 C          -1.7959  -17.8403   18.0524 C.1     1  UNL1        0.1020
     18 O          -9.7043  -17.2133   24.4360 O.3     1  UNL1       -0.4383
     19 C         -10.2699  -17.5421   23.0861 C.3     1  UNL1        0.1702
     20 C          -9.4923  -18.4051   22.1371 C.3     1  UNL1        0.0407
     21 C         -10.8354  -17.8708   21.7363 C.3     1  UNL1        0.0036
     22 C         -11.4010  -18.1996   20.3865 C.3     1  UNL1        0.0007
     23 C         -12.1785  -17.3366   21.3355 C.3     1  UNL1        0.0036
     24 C         -11.6130  -17.0078   22.6853 C.3     1  UNL1        0.0407
     25 C         -10.5047  -18.7901   20.1547 C.3     1  UNL1        0.0122
     26 C          -9.2803  -19.5968   19.8382 C.3     1  UNL1        0.0688
     27 C         -10.6234  -19.0626   19.4374 C.3     1  UNL1        0.0086
     28 C          -8.7148  -19.2681   21.1880 C.3     1  UNL1        0.0122
     29 C          -8.5028  -20.4598   18.8892 C.2     1  UNL1        0.2184
     30 N          -7.0927  -20.8529   19.2165 N.am    1  UNL1       -0.3288
     31 O          -9.1353  -20.9298   17.6129 O.2     1  UNL1       -0.2754
     32 H          -6.6775  -20.5444   20.0542 H       1  UNL1        0.1449
     33 H          -6.5824  -21.4193   18.5936 H       1  UNL1        0.1449
@<TRIPOS>BOND
     1    16    17    3
     2    17    10    1
     3    10    11   ar
     4    11    12   ar
     5    12    13   ar
     6    13     8    1
     7     1     8    1
     8     1     2    1
     9     2     3    1
    10     3     4    1
    11     4     5   am
    12     5     6    2
    13     5    18    1
    14    19    18    1
    15    19    20    1
    16    20    21    1
    17    21    22    1
    18    22    23    1
    19    23    24    1
    20    24    25    1
    21    25    26    1
    22    26    29    1
    23    29    30   am
    24    29    31    2
    25    26    27    1
    26    26    28    1
    27     4     7    1
    28    13    14   ar
    29    14    15   ar
    30    15    10   ar
    31     7     1    1
    32    24    19    1
    33    28    20    1
    34    27    22    1
    35     8     9    1
    36    30    32    1
    37    30    33    1
@<TRIPOS>MOLECULE
*****
 33 37 0 0 0
SMALL
GASTEIGER

@<TRIPOS>ATOM
      1 C           5.5530   -2.1080   18.6615 C.3     1  UNL1        0.0920
      2 C           6.7413   -1.2191   18.4431 C.3     1  UNL1        0.0429
      3 C           7.8470   -1.6952   19.3380 C.3     1  UNL1        0.0985
      4 N           7.3421   -2.8784   20.1093 N.am    1  UNL1       -0.2443
      5 C           8.1186   -3.6679   21.1212 C.2     1  UNL1        0.4048
      6 O           9.5360   -3.2928   21.4380 O.2     1  UNL1       -0.2262
      7 C           5.9243   -3.1336   19.6913 C.3     1  UNL1        0.1162
      8 N           4.2263   -1.9919   17.9712 N.pl3   1  UNL1       -0.3180
      9 H           4.0629   -2.4818   17.1331 H       1  UNL1        0.1482
     10 C           0.9931    0.5959   19.7317 C.ar    1  UNL1        0.0877
     11 C           1.4383   -0.6422   20.4521 C.ar    1  UNL1        0.0147
     12 C           2.5160   -1.5048   19.8653 C.ar    1  UNL1        0.0348
     13 C           3.1485   -1.1293   18.5581 C.ar    1  UNL1        0.1286
     14 N           2.7034    0.1088   17.8376 N.ar    1  UNL1       -0.2287
     15 C           1.6257    0.9714   18.4244 C.ar    1  UNL1        0.1105
     16 N          -1.1625    2.3211   20.9054 N.1     1  UNL1       -0.1908
     17 C          -0.0847    1.4585   20.3186 C.1     1  UNL1        0.1020
     18 O           7.4778   -4.8325   21.8161 O.3     1  UNL1       -0.4383
     19 C           7.2815   -4.8033   23.3030 C.3     1  UNL1        0.1702
     20 C           7.6525   -5.9970   24.1321 C.3     1  UNL1        0.0407
     21 C           7.0854   -4.7741   24.7898 C.3     1  UNL1        0.0036
     22 C           6.8892   -4.7449   26.2766 C.3     1  UNL1        0.0007
     23 C           6.5182   -3.5512   25.4476 C.3     1  UNL1        0.0036
     24 C           6.7144   -3.5804   23.9608 C.3     1  UNL1        0.0407
     25 C           7.2857   -5.7664   26.3490 C.3     1  UNL1        0.0122
     26 C           7.8274   -7.1616   26.4479 C.3     1  UNL1        0.0688
     27 C           7.2602   -5.9387   27.1057 C.3     1  UNL1        0.0086
     28 C           8.0235   -7.1908   24.9611 C.3     1  UNL1        0.0122
     29 C           8.1984   -8.3554   27.2769 C.2     1  UNL1        0.2184
     30 N           7.2795   -9.5392   27.3405 N.am    1  UNL1       -0.3288
     31 O           9.4883   -8.3653   28.0424 O.2     1  UNL1       -0.2754
     32 H           6.4328   -9.5327   26.8381 H       1  UNL1        0.1449
     33 H           7.5230  -10.3227   27.8846 H       1  UNL1        0.1449
@<TRIPOS>BOND
     1    16    17    3
     2    17    10    1
     3    10    11   ar
     4    11    12   ar
     5    12    13   ar
     6    13     8    1
     7     1     8    1
     8     1     2    1
     9     2     3    1
    10     3     4    1
    11     4     5   am
    12     5     6    2
    13     5    18    1
    14    19    18    1
    15    19    20    1
    16    20    21    1
    17    21    22    1
    18    22    23    1
    19    23    24    1
    20    24    25    1
    21    25    26    1
    22    26    29    1
    23    29    30   am
    24    29    31    2
    25    26    27    1
    26    26    28    1
    27     4     7    1
    28    13    14   ar
    29    14    15   ar
    30    15    10   ar
    31     7     1    1
    32    24    19    1
    33    28    20    1
    34    27    22    1
    35     8     9    1
    36    30    32    1
    37    30    33    1
