@<TRIPOS>MOLECULE
*****
 25 27 0 0 0
SMALL
GASTEIGER

@<TRIPOS>ATOM
      1 N          -8.2367  -18.3203   20.9670 N.am    1  UNL1       -0.2969
      2 C          -7.2751  -19.3273   20.4094 C.2     1  UNL1        0.2461
      3 O          -7.7797  -20.4554   19.5591 O.2     1  UNL1       -0.2701
      4 H          -7.9055  -17.5799   21.5251 H       1  UNL1        0.1501
      5 C          -5.8088  -19.2064   20.7019 C.ar    1  UNL1        0.0540
      6 C          -5.2903  -19.5132   22.0756 C.ar    1  UNL1        0.0061
      7 C          -3.8241  -19.3923   22.3680 C.ar    1  UNL1        0.0198
      8 C          -2.8764  -18.9646   21.2869 C.ar    1  UNL1        0.0892
      9 N          -1.3907  -18.7581   21.2784 N.ar    1  UNL1       -0.2245
     10 C          -0.9910  -18.3237   19.8994 C.ar    1  UNL1        0.1567
     11 N           0.4027  -18.0069   19.4441 N.pl3   1  UNL1       -0.3375
     12 S          -2.2297  -18.2616   19.0557 S.2     1  UNL1       -0.0520
     13 C          -3.3949  -18.6577   19.9132 C.ar    1  UNL1        0.0498
     14 C          -4.8611  -18.7787   19.6207 C.ar    1  UNL1        0.0126
     15 H           1.1548  -18.0773   20.0754 H       1  UNL1        0.1442
     16 H           0.5653  -17.7285   18.5138 H       1  UNL1        0.1442
     17 C          -9.7030  -18.4412   20.6745 C.3     1  UNL1        0.1166
     18 C         -12.6716  -18.5345   24.0550 C.ar    1  UNL1        0.0684
     19 C         -11.3635  -19.2569   24.1855 C.ar    1  UNL1        0.0100
     20 C         -10.3739  -19.2258   23.0586 C.ar    1  UNL1       -0.0019
     21 C         -10.6925  -18.4723   21.8013 C.ar    1  UNL1       -0.0025
     22 C         -12.0006  -17.7499   21.6709 C.ar    1  UNL1       -0.0019
     23 C         -12.9902  -17.7810   22.7977 C.ar    1  UNL1        0.0100
     24 N         -14.6507  -18.5968   26.3087 N.1     1  UNL1       -0.1908
     25 C         -13.6612  -18.5657   25.1819 C.1     1  UNL1        0.1004
@<TRIPOS>BOND
     1    24    25    3
     2    25    18    1
     3    18    19   ar
     4    19    20   ar
     5    20    21   ar
     6    21    17    1
     7    17     1    1
     8     1     2   am
     9     2     3    2
    10     2     5    1
    11     5     6   ar
    12     6     7   ar
    13     7     8   ar
    14     8     9   ar
    15     9    10   ar
    16    10    11    1
    17    10    12   ar
    18    12    13   ar
    19    13    14   ar
    20    21    22   ar
    21    22    23   ar
    22    23    18   ar
    23    14     5   ar
    24    13     8   ar
    25     1     4    1
    26    11    15    1
    27    11    16    1
@<TRIPOS>MOLECULE
*****
 25 27 0 0 0
SMALL
GASTEIGER

@<TRIPOS>ATOM
      1 N          -7.3716  -20.2741   21.3654 N.am    1  UNL1       -0.2969
      2 C          -8.3609  -19.5230   20.5246 C.2     1  UNL1        0.2461
      3 O          -8.0658  -19.2550   19.0786 O.2     1  UNL1       -0.2701
      4 H          -7.5653  -20.4500   22.3144 H       1  UNL1        0.1501
      5 C          -9.6456  -19.0397   21.1299 C.ar    1  UNL1        0.0540
      6 C         -10.5811  -18.1886   20.3236 C.ar    1  UNL1        0.0061
      7 C         -11.8657  -17.7054   20.9289 C.ar    1  UNL1        0.0198
      8 C         -12.2147  -18.0734   22.3406 C.ar    1  UNL1        0.0892
      9 N         -13.4008  -17.7471   23.1989 N.ar    1  UNL1       -0.2245
     10 C         -13.1983  -18.3966   24.5357 C.ar    1  UNL1        0.1567
     11 N         -14.1414  -18.3301   25.7003 N.pl3   1  UNL1       -0.3375
     12 S         -11.8870  -19.1243   24.5036 S.2     1  UNL1       -0.0520
     13 C         -11.2791  -18.9246   23.1469 C.ar    1  UNL1        0.0498
     14 C          -9.9946  -19.4077   22.5416 C.ar    1  UNL1        0.0126
     15 H         -14.9827  -17.8245   25.6241 H       1  UNL1        0.1442
     16 H         -13.9191  -18.7921   26.5407 H       1  UNL1        0.1442
     17 C          -6.0869  -20.7573   20.7600 C.3     1  UNL1        0.1166
     18 C          -2.5095  -18.0321   20.6009 C.ar    1  UNL1        0.0684
     19 C          -2.9019  -18.8262   19.3903 C.ar    1  UNL1        0.0100
     20 C          -4.0944  -19.7346   19.4434 C.ar    1  UNL1       -0.0019
     21 C          -4.8945  -19.8489   20.7070 C.ar    1  UNL1       -0.0025
     22 C          -4.5022  -19.0549   21.9175 C.ar    1  UNL1       -0.0019
     23 C          -3.3097  -18.1464   21.8645 C.ar    1  UNL1        0.0100
     24 N          -0.1246  -16.2154   20.4948 N.1     1  UNL1       -0.1908
     25 C          -1.3171  -17.1237   20.5478 C.1     1  UNL1        0.1004
@<TRIPOS>BOND
     1    24    25    3
     2    25    18    1
     3    18    19   ar
     4    19    20   ar
     5    20    21   ar
     6    21    17    1
     7    17     1    1
     8     1     2   am
     9     2     3    2
    10     2     5    1
    11     5     6   ar
    12     6     7   ar
    13     7     8   ar
    14     8     9   ar
    15     9    10   ar
    16    10    11    1
    17    10    12   ar
    18    12    13   ar
    19    13    14   ar
    20    21    22   ar
    21    22    23   ar
    22    23    18   ar
    23    14     5   ar
    24    13     8   ar
    25     1     4    1
    26    11    15    1
    27    11    16    1
@<TRIPOS>MOLECULE
*****
 25 27 0 0 0
SMALL
GASTEIGER

@<TRIPOS>ATOM
      1 N          -6.5041  -19.2750   20.6683 N.am    1  UNL1       -0.2969
      2 C          -7.9819  -19.2458   20.4132 C.2     1  UNL1        0.2461
      3 O          -8.4999  -19.2286   19.0056 O.2     1  UNL1       -0.2701
      4 H          -6.1642  -19.2863   21.5922 H       1  UNL1        0.1501
      5 C          -8.9420  -19.2340   21.5658 C.ar    1  UNL1        0.0540
      6 C          -8.5566  -19.8681   22.8694 C.ar    1  UNL1        0.0061
      7 C          -9.5166  -19.8562   24.0219 C.ar    1  UNL1        0.0198
      8 C         -10.8619  -19.2103   23.8707 C.ar    1  UNL1        0.0892
      9 N         -12.0087  -19.0451   24.8235 N.ar    1  UNL1       -0.2245
     10 C         -13.1028  -18.3089   24.1087 C.ar    1  UNL1        0.1567
     11 N         -14.4338  -17.9291   24.6868 N.pl3   1  UNL1       -0.3375
     12 S         -12.6322  -18.0192   22.7142 S.2     1  UNL1       -0.0520
     13 C         -11.2473  -18.5763   22.5672 C.ar    1  UNL1        0.0498
     14 C         -10.2873  -18.5881   21.4147 C.ar    1  UNL1        0.0126
     15 H         -14.6516  -18.1649   25.6176 H       1  UNL1        0.1442
     16 H         -15.0896  -17.4441   24.1356 H       1  UNL1        0.1442
     17 C          -5.5441  -19.2868   19.5158 C.3     1  UNL1        0.1166
     18 C          -1.2032  -18.3136   20.1932 C.ar    1  UNL1        0.0684
     19 C          -1.9451  -17.6793   19.0542 C.ar    1  UNL1        0.0100
     20 C          -3.3921  -18.0037   18.8284 C.ar    1  UNL1       -0.0019
     21 C          -4.0972  -18.9624   19.7416 C.ar    1  UNL1       -0.0025
     22 C          -3.3552  -19.5967   20.8805 C.ar    1  UNL1       -0.0019
     23 C          -1.9082  -19.2723   21.1063 C.ar    1  UNL1        0.0100
     24 N           1.6908  -17.6648   20.6447 N.1     1  UNL1       -0.1908
     25 C           0.2438  -17.9892   20.4189 C.1     1  UNL1        0.1004
@<TRIPOS>BOND
     1    24    25    3
     2    25    18    1
     3    18    19   ar
     4    19    20   ar
     5    20    21   ar
     6    21    17    1
     7    17     1    1
     8     1     2   am
     9     2     3    2
    10     2     5    1
    11     5     6   ar
    12     6     7   ar
    13     7     8   ar
    14     8     9   ar
    15     9    10   ar
    16    10    11    1
    17    10    12   ar
    18    12    13   ar
    19    13    14   ar
    20    21    22   ar
    21    22    23   ar
    22    23    18   ar
    23    14     5   ar
    24    13     8   ar
    25     1     4    1
    26    11    15    1
    27    11    16    1
@<TRIPOS>MOLECULE
*****
 25 27 0 0 0
SMALL
GASTEIGER

@<TRIPOS>ATOM
      1 N          -5.9740  -17.8096   22.9856 N.am    1  UNL1       -0.2969
      2 C          -7.1115  -18.7031   22.5888 C.2     1  UNL1        0.2461
      3 O          -6.8381  -20.0996   22.1144 O.2     1  UNL1       -0.2701
      4 H          -6.1535  -16.8930   23.2970 H       1  UNL1        0.1501
      5 C          -8.5226  -18.2002   22.6663 C.ar    1  UNL1        0.0540
      6 C          -8.9218  -16.9667   21.9119 C.ar    1  UNL1        0.0061
      7 C         -10.3328  -16.4639   21.9895 C.ar    1  UNL1        0.0198
      8 C         -11.3447  -17.1945   22.8215 C.ar    1  UNL1        0.0892
      9 N         -12.7985  -16.9383   23.0878 N.ar    1  UNL1       -0.2245
     10 C         -13.2979  -18.0135   24.0068 C.ar    1  UNL1        0.1567
     11 N         -14.6968  -18.1450   24.5320 N.pl3   1  UNL1       -0.3375
     12 S         -12.1527  -18.9341   24.3085 S.2     1  UNL1       -0.0520
     13 C         -10.9456  -18.4280   23.5760 C.ar    1  UNL1        0.0498
     14 C          -9.5345  -18.9308   23.4984 C.ar    1  UNL1        0.0126
     15 H         -15.3828  -17.4871   24.2755 H       1  UNL1        0.1442
     16 H         -14.9290  -18.8893   25.1332 H       1  UNL1        0.1442
     17 C          -4.5629  -18.3125   22.9081 C.3     1  UNL1        0.1166
     18 C          -2.2944  -18.0607   19.0299 C.ar    1  UNL1        0.0684
     19 C          -3.4383  -19.0211   19.1687 C.ar    1  UNL1        0.0100
     20 C          -4.1944  -19.1050   20.4615 C.ar    1  UNL1       -0.0019
     21 C          -3.8068  -18.2286   21.6154 C.ar    1  UNL1       -0.0025
     22 C          -2.6629  -17.2682   21.4765 C.ar    1  UNL1       -0.0019
     23 C          -1.9067  -17.1843   20.1838 C.ar    1  UNL1        0.0100
     24 N          -0.7822  -17.8929   16.4444 N.1     1  UNL1       -0.1908
     25 C          -1.5383  -17.9768   17.7371 C.1     1  UNL1        0.1004
@<TRIPOS>BOND
     1    24    25    3
     2    25    18    1
     3    18    19   ar
     4    19    20   ar
     5    20    21   ar
     6    21    17    1
     7    17     1    1
     8     1     2   am
     9     2     3    2
    10     2     5    1
    11     5     6   ar
    12     6     7   ar
    13     7     8   ar
    14     8     9   ar
    15     9    10   ar
    16    10    11    1
    17    10    12   ar
    18    12    13   ar
    19    13    14   ar
    20    21    22   ar
    21    22    23   ar
    22    23    18   ar
    23    14     5   ar
    24    13     8   ar
    25     1     4    1
    26    11    15    1
    27    11    16    1
@<TRIPOS>MOLECULE
*****
 25 27 0 0 0
SMALL
GASTEIGER

@<TRIPOS>ATOM
      1 N           6.1410   -3.9080   23.1751 N.am    1  UNL1       -0.2969
      2 C           7.2341   -4.9059   23.4182 C.2     1  UNL1        0.2461
      3 O           8.0810   -5.3837   22.2760 O.2     1  UNL1       -0.2701
      4 H           5.5851   -3.5944   23.9247 H       1  UNL1        0.1501
      5 C           7.4804   -5.4261   24.8034 C.ar    1  UNL1        0.0540
      6 C           8.4267   -6.5700   25.0178 C.ar    1  UNL1        0.0061
      7 C           8.6729   -7.0901   26.4030 C.ar    1  UNL1        0.0198
      8 C           7.9729   -6.4663   27.5738 C.ar    1  UNL1        0.0892
      9 N           8.0162   -6.7629   29.0436 N.ar    1  UNL1       -0.2245
     10 C           7.0967   -5.8023   29.7376 C.ar    1  UNL1        0.1567
     11 N           6.8347   -5.7424   31.2134 N.pl3   1  UNL1       -0.3375
     12 S           6.4851   -4.9120   28.6967 S.2     1  UNL1       -0.0520
     13 C           7.0267   -5.3224   27.3594 C.ar    1  UNL1        0.0498
     14 C           6.7804   -4.8023   25.9743 C.ar    1  UNL1        0.0126
     15 H           7.2866   -6.3730   31.8195 H       1  UNL1        0.1442
     16 H           6.2109   -5.0725   31.5758 H       1  UNL1        0.1442
     17 C           5.8946   -3.3878   21.7899 C.3     1  UNL1        0.1166
     18 C           2.2516   -0.8866   20.9404 C.ar    1  UNL1        0.0684
     19 C           2.8484   -1.7348   19.8566 C.ar    1  UNL1        0.0100
     20 C           4.0627   -2.5685   20.1398 C.ar    1  UNL1       -0.0019
     21 C           4.6803   -2.5541   21.5067 C.ar    1  UNL1       -0.0025
     22 C           4.0835   -1.7060   22.5904 C.ar    1  UNL1       -0.0019
     23 C           2.8691   -0.8722   22.3073 C.ar    1  UNL1        0.0100
     24 N          -0.1771    0.7809   20.3741 N.1     1  UNL1       -0.1908
     25 C           1.0372   -0.0528   20.6572 C.1     1  UNL1        0.1004
@<TRIPOS>BOND
     1    24    25    3
     2    25    18    1
     3    18    19   ar
     4    19    20   ar
     5    20    21   ar
     6    21    17    1
     7    17     1    1
     8     1     2   am
     9     2     3    2
    10     2     5    1
    11     5     6   ar
    12     6     7   ar
    13     7     8   ar
    14     8     9   ar
    15     9    10   ar
    16    10    11    1
    17    10    12   ar
    18    12    13   ar
    19    13    14   ar
    20    21    22   ar
    21    22    23   ar
    22    23    18   ar
    23    14     5   ar
    24    13     8   ar
    25     1     4    1
    26    11    15    1
    27    11    16    1
@<TRIPOS>MOLECULE
*****
 25 27 0 0 0
SMALL
GASTEIGER

@<TRIPOS>ATOM
      1 N           5.2317   -3.5021   23.9134 N.am    1  UNL1       -0.2969
      2 C           6.5223   -3.5331   24.6771 C.2     1  UNL1        0.2461
      3 O           7.8252   -3.6521   23.9434 O.2     1  UNL1       -0.2701
      4 H           4.3765   -3.4241   24.3949 H       1  UNL1        0.1501
      5 C           6.5100   -3.4451   26.1745 C.ar    1  UNL1        0.0540
      6 C           6.2679   -2.1261   26.8463 C.ar    1  UNL1        0.0061
      7 C           6.2556   -2.0382   28.3437 C.ar    1  UNL1        0.0198
      8 C           6.4855   -3.2693   29.1692 C.ar    1  UNL1        0.0892
      9 N           6.5302   -3.4894   30.6523 N.ar    1  UNL1       -0.2245
     10 C           6.7999   -4.9444   30.8971 C.ar    1  UNL1        0.1567
     11 N           6.9256   -5.6045   32.2382 N.pl3   1  UNL1       -0.3375
     12 S           6.9220   -5.6237   29.5652 S.2     1  UNL1       -0.0520
     13 C           6.7277   -4.5884   28.4973 C.ar    1  UNL1        0.0498
     14 C           6.7399   -4.6763   27.0000 C.ar    1  UNL1        0.0126
     15 H           6.8292   -5.0714   33.0602 H       1  UNL1        0.1442
     16 H           7.1045   -6.5709   32.2964 H       1  UNL1        0.1442
     17 C           5.2439   -3.5901   22.4160 C.3     1  UNL1        0.1166
     18 C           2.5698   -0.9109   19.9827 C.ar    1  UNL1        0.0684
     19 C           3.2897   -2.0503   19.3241 C.ar    1  UNL1        0.0100
     20 C           4.1810   -2.9433   20.1352 C.ar    1  UNL1       -0.0019
     21 C           4.3526   -2.6971   21.6049 C.ar    1  UNL1       -0.0025
     22 C           3.6327   -1.5578   22.2635 C.ar    1  UNL1       -0.0019
     23 C           2.7413   -0.6647   21.4524 C.ar    1  UNL1        0.0100
     24 N           0.7870    0.8752   18.3606 N.1     1  UNL1       -0.1908
     25 C           1.6784   -0.0179   19.1716 C.1     1  UNL1        0.1004
@<TRIPOS>BOND
     1    24    25    3
     2    25    18    1
     3    18    19   ar
     4    19    20   ar
     5    20    21   ar
     6    21    17    1
     7    17     1    1
     8     1     2   am
     9     2     3    2
    10     2     5    1
    11     5     6   ar
    12     6     7   ar
    13     7     8   ar
    14     8     9   ar
    15     9    10   ar
    16    10    11    1
    17    10    12   ar
    18    12    13   ar
    19    13    14   ar
    20    21    22   ar
    21    22    23   ar
    22    23    18   ar
    23    14     5   ar
    24    13     8   ar
    25     1     4    1
    26    11    15    1
    27    11    16    1
@<TRIPOS>MOLECULE
*****
 25 27 0 0 0
SMALL
GASTEIGER

@<TRIPOS>ATOM
      1 N          -6.1339  -19.7269   20.5430 N.am    1  UNL1       -0.2969
      2 C          -7.4023  -20.2313   19.9212 C.2     1  UNL1        0.2461
      3 O          -7.3898  -21.4926   19.1095 O.2     1  UNL1       -0.2701
      4 H          -6.1421  -18.8991   21.0757 H       1  UNL1        0.1501
      5 C          -8.6834  -19.4743   20.1111 C.ar    1  UNL1        0.0540
      6 C          -9.8551  -19.7462   19.2150 C.ar    1  UNL1        0.0061
      7 C         -11.1361  -18.9893   19.4049 C.ar    1  UNL1        0.0198
      8 C         -11.2453  -17.9604   20.4910 C.ar    1  UNL1        0.0892
      9 N         -12.3708  -17.0638   20.9147 N.ar    1  UNL1       -0.2245
     10 C         -11.8946  -16.2378   22.0726 C.ar    1  UNL1        0.1567
     11 N         -12.6973  -15.2067   22.8094 N.pl3   1  UNL1       -0.3375
     12 S         -10.4748  -16.6239   22.3646 S.2     1  UNL1       -0.0520
     13 C         -10.0736  -17.6885   21.3871 C.ar    1  UNL1        0.0498
     14 C          -8.7926  -18.4454   21.1971 C.ar    1  UNL1        0.0126
     15 H         -13.6267  -15.0229   22.5418 H       1  UNL1        0.1442
     16 H         -12.2946  -14.7138   23.5605 H       1  UNL1        0.1442
     17 C          -4.8529  -20.4839   20.3530 C.3     1  UNL1        0.1166
     18 C          -0.9366  -18.2736   20.1881 C.ar    1  UNL1        0.0684
     19 C          -1.8513  -18.2686   18.9992 C.ar    1  UNL1        0.0100
     20 C          -3.1567  -19.0054   19.0542 C.ar    1  UNL1       -0.0019
     21 C          -3.5475  -19.7472   20.2980 C.ar    1  UNL1       -0.0025
     22 C          -2.6328  -19.7522   21.4868 C.ar    1  UNL1       -0.0019
     23 C          -1.3273  -19.0154   21.4319 C.ar    1  UNL1        0.0100
     24 N           1.6742  -16.8002   20.0780 N.1     1  UNL1       -0.1908
     25 C           0.3688  -17.5369   20.1330 C.1     1  UNL1        0.1004
@<TRIPOS>BOND
     1    24    25    3
     2    25    18    1
     3    18    19   ar
     4    19    20   ar
     5    20    21   ar
     6    21    17    1
     7    17     1    1
     8     1     2   am
     9     2     3    2
    10     2     5    1
    11     5     6   ar
    12     6     7   ar
    13     7     8   ar
    14     8     9   ar
    15     9    10   ar
    16    10    11    1
    17    10    12   ar
    18    12    13   ar
    19    13    14   ar
    20    21    22   ar
    21    22    23   ar
    22    23    18   ar
    23    14     5   ar
    24    13     8   ar
    25     1     4    1
    26    11    15    1
    27    11    16    1
@<TRIPOS>MOLECULE
*****
 25 27 0 0 0
SMALL
GASTEIGER

@<TRIPOS>ATOM
      1 N          -0.8213    2.2163   20.4706 N.am    1  UNL1       -0.2969
      2 C          -1.8021    3.3502   20.5192 C.2     1  UNL1        0.2461
      3 O          -1.7987    4.3916   19.4396 O.2     1  UNL1       -0.2701
      4 H          -0.8236    1.5328   21.1792 H       1  UNL1        0.1501
      5 C          -2.7864    3.4427   21.6474 C.ar    1  UNL1        0.0540
      6 C          -4.2217    3.0694   21.4230 C.ar    1  UNL1        0.0061
      7 C          -5.2059    3.1619   22.5511 C.ar    1  UNL1        0.0198
      8 C          -4.7547    3.6277   23.9037 C.ar    1  UNL1        0.0892
      9 N          -5.4911    3.8189   25.1965 N.ar    1  UNL1       -0.2245
     10 C          -4.5107    4.3103   26.2200 C.ar    1  UNL1        0.1567
     11 N          -4.8185    4.6326   27.6523 N.pl3   1  UNL1       -0.3375
     12 S          -3.1686    4.4228   25.5597 S.2     1  UNL1       -0.0520
     13 C          -3.3194    4.0010   24.1281 C.ar    1  UNL1        0.0498
     14 C          -2.3352    3.9085   23.0000 C.ar    1  UNL1        0.0126
     15 H          -5.7353    4.5262   27.9948 H       1  UNL1        0.1442
     16 H          -4.1036    4.9506   28.2499 H       1  UNL1        0.1442
     17 C           0.1630    2.1239   19.3424 C.3     1  UNL1        0.1166
     18 C           3.1637   -1.2281   19.2434 C.ar    1  UNL1        0.0684
     19 C           2.0381   -1.2581   20.2346 C.ar    1  UNL1        0.0100
     20 C           1.0379   -0.1408   20.2676 C.ar    1  UNL1       -0.0019
     21 C           1.1632    1.0065   19.3095 C.ar    1  UNL1       -0.0025
     22 C           2.2887    1.0365   18.3184 C.ar    1  UNL1       -0.0019
     23 C           3.2890   -0.0808   18.2853 C.ar    1  UNL1        0.0100
     24 N           5.1641   -3.4628   19.1775 N.1     1  UNL1       -0.1908
     25 C           4.1639   -2.3455   19.2105 C.1     1  UNL1        0.1004
@<TRIPOS>BOND
     1    24    25    3
     2    25    18    1
     3    18    19   ar
     4    19    20   ar
     5    20    21   ar
     6    21    17    1
     7    17     1    1
     8     1     2   am
     9     2     3    2
    10     2     5    1
    11     5     6   ar
    12     6     7   ar
    13     7     8   ar
    14     8     9   ar
    15     9    10   ar
    16    10    11    1
    17    10    12   ar
    18    12    13   ar
    19    13    14   ar
    20    21    22   ar
    21    22    23   ar
    22    23    18   ar
    23    14     5   ar
    24    13     8   ar
    25     1     4    1
    26    11    15    1
    27    11    16    1
@<TRIPOS>MOLECULE
*****
 25 27 0 0 0
SMALL
GASTEIGER

@<TRIPOS>ATOM
      1 N           1.0784    0.9133   24.1860 N.am    1  UNL1       -0.2969
      2 C           1.7170    1.7130   25.2827 C.2     1  UNL1        0.2461
      3 O           2.8771    2.6132   24.9766 O.2     1  UNL1       -0.2701
      4 H           0.3170    0.3225   24.3870 H       1  UNL1        0.1501
      5 C           1.1955    1.6124   26.6856 C.ar    1  UNL1        0.0540
      6 C          -0.2199    1.1805   26.9304 C.ar    1  UNL1        0.0061
      7 C          -0.7414    1.0799   28.3332 C.ar    1  UNL1        0.0198
      8 C           0.1527    1.4112   29.4912 C.ar    1  UNL1        0.0892
      9 N          -0.0802    1.4044   30.9731 N.ar    1  UNL1       -0.2245
     10 C           1.1914    1.8320   31.6440 C.ar    1  UNL1        0.1567
     11 N           1.4065    1.9652   33.1226 N.pl3   1  UNL1       -0.3375
     12 S           2.2101    2.1031   30.5769 S.2     1  UNL1       -0.0520
     13 C           1.5681    1.8430   29.2464 C.ar    1  UNL1        0.0498
     14 C           2.0895    1.9436   27.8436 C.ar    1  UNL1        0.0126
     15 H           0.6726    1.7635   33.7470 H       1  UNL1        0.1442
     16 H           2.2817    2.2544   33.4686 H       1  UNL1        0.1442
     17 C           1.5999    1.0139   22.7831 C.3     1  UNL1        0.1166
     18 C           3.8268   -2.4438   20.9571 C.ar    1  UNL1        0.0684
     19 C           4.0340   -2.0972   22.4017 C.ar    1  UNL1        0.0100
     20 C           3.2917   -0.9446   23.0104 C.ar    1  UNL1       -0.0019
     21 C           2.3422   -0.1386   22.1745 C.ar    1  UNL1       -0.0025
     22 C           2.1349   -0.4852   20.7299 C.ar    1  UNL1       -0.0019
     23 C           2.8773   -1.6379   20.1212 C.ar    1  UNL1        0.0100
     24 N           5.3114   -4.7490   19.7398 N.1     1  UNL1       -0.1908
     25 C           4.5691   -3.5964   20.3484 C.1     1  UNL1        0.1004
@<TRIPOS>BOND
     1    24    25    3
     2    25    18    1
     3    18    19   ar
     4    19    20   ar
     5    20    21   ar
     6    21    17    1
     7    17     1    1
     8     1     2   am
     9     2     3    2
    10     2     5    1
    11     5     6   ar
    12     6     7   ar
    13     7     8   ar
    14     8     9   ar
    15     9    10   ar
    16    10    11    1
    17    10    12   ar
    18    12    13   ar
    19    13    14   ar
    20    21    22   ar
    21    22    23   ar
    22    23    18   ar
    23    14     5   ar
    24    13     8   ar
    25     1     4    1
    26    11    15    1
    27    11    16    1
