@<TRIPOS>MOLECULE
*****
 28 31 0 0 0
SMALL
GASTEIGER

@<TRIPOS>ATOM
      1 N          -8.9625  -17.1580   25.1221 N.3     1  UNL1       -0.2723
      2 C          -8.8406  -17.2904   26.6113 C.3     1  UNL1        0.0614
      3 C          -8.0279  -16.1344   27.1145 C.3     1  UNL1        0.0175
      4 C          -7.6475  -15.2876   25.9363 C.3     1  UNL1        0.0175
      5 C          -8.2251  -15.9201   24.7049 C.3     1  UNL1        0.0614
      6 C          -8.9126  -16.7639   23.6588 C.3     1  UNL1        0.0595
      7 C          -9.6076  -17.9675   24.2232 C.3     1  UNL1        0.1686
      8 C          -9.5716  -18.2307   25.6994 C.3     1  UNL1        0.0595
      9 C          -9.6934  -18.0983   24.2103 C.3     1  UNL1        0.0861
     10 C          -8.9895  -19.2984   23.6497 C.3     1  UNL1        0.0228
     11 C         -14.9618  -18.4151   24.0531 C.3     1  UNL1        0.0381
     12 C         -13.5500  -17.9841   23.7867 C.ar    1  UNL1        0.0073
     13 C         -13.1231  -16.8933   22.8498 C.ar    1  UNL1        0.0024
     14 C         -11.6265  -16.8033   22.8944 C.ar    1  UNL1        0.0037
     15 C         -11.1284  -17.8385   23.8589 C.ar    1  UNL1        0.0214
     16 S         -12.3172  -18.5683   24.4104 S.2     1  UNL1       -0.0943
     17 O         -10.3385  -18.9078   23.3112 O.3     1  UNL1       -0.4791
     18 C          -9.8104  -19.1787   21.9336 C.ar    1  UNL1        0.1385
     19 C         -10.7601  -19.3268   20.7820 C.ar    1  UNL1        0.0369
     20 C         -10.2320  -19.5976   19.4045 C.ar    1  UNL1        0.0033
     21 C          -8.7542  -19.7205   19.1785 C.ar    1  UNL1        0.0047
     22 C          -7.8046  -19.5725   20.3301 C.ar    1  UNL1        0.0561
     23 C          -8.3327  -19.3015   21.7077 C.ar    1  UNL1        0.0414
     24 C          -6.3268  -19.6953   20.1041 C.2     1  UNL1        0.2428
     25 N          -5.5226  -18.4864   19.7275 N.am    1  UNL1       -0.3253
     26 O          -5.6532  -21.0271   20.2547 O.2     1  UNL1       -0.2704
     27 H          -5.9647  -17.6123   19.6286 H       1  UNL1        0.1453
     28 H          -4.5527  -18.5671   19.5792 H       1  UNL1        0.1453
@<TRIPOS>BOND
     1    11    12    1
     2    12    13   ar
     3    13    14   ar
     4    14    15   ar
     5    15     9    1
     6     9    10    1
     7     9     1    1
     8     1     2    1
     9     2     3    1
    10     3     4    1
    11     5     4    1
    12     5     6    1
    13     6     7    1
    14     7    17    1
    15    17    18    1
    16    18    19   ar
    17    19    20   ar
    18    20    21   ar
    19    21    22   ar
    20    22    24    1
    21    24    25   am
    22    24    26    2
    23    22    23   ar
    24     7     8    1
    25    15    16   ar
    26    16    12   ar
    27     5     1    1
    28    23    18   ar
    29     8     2    1
    30    25    27    1
    31    25    28    1
@<TRIPOS>MOLECULE
*****
 28 31 0 0 0
SMALL
GASTEIGER

@<TRIPOS>ATOM
      1 N         -10.6057  -17.7554   22.5635 N.3     1  UNL1       -0.2723
      2 C         -11.8219  -18.1879   23.3276 C.3     1  UNL1        0.0614
      3 C         -13.0327  -17.7672   22.5485 C.3     1  UNL1        0.0175
      4 C         -12.5647  -17.0748   21.3029 C.3     1  UNL1        0.0175
      5 C         -11.0648  -17.0675   21.3122 C.3     1  UNL1        0.0614
      6 C          -9.5864  -17.2058   21.5847 C.3     1  UNL1        0.0595
      7 C          -9.2790  -17.9141   22.8707 C.3     1  UNL1        0.1686
      8 C         -10.3968  -18.4052   23.7422 C.3     1  UNL1        0.0595
      9 C          -9.1806  -17.9727   22.9781 C.3     1  UNL1        0.0861
     10 C          -8.4822  -19.2513   22.6210 C.3     1  UNL1        0.0228
     11 C          -7.0860  -15.2001   26.9539 C.3     1  UNL1        0.0381
     12 C          -7.4911  -15.6370   25.5773 C.ar    1  UNL1        0.0073
     13 C          -7.1799  -14.9195   24.2974 C.ar    1  UNL1        0.0024
     14 C          -7.7749  -15.7071   23.1679 C.ar    1  UNL1        0.0037
     15 C          -8.4538  -16.9114   23.7498 C.ar    1  UNL1        0.0214
     16 S          -8.2784  -16.8681   25.2389 S.2     1  UNL1       -0.0943
     17 O          -7.8538  -18.1314   23.2852 O.3     1  UNL1       -0.4791
     18 C          -6.8228  -18.5012   22.2604 C.ar    1  UNL1        0.1385
     19 C          -7.2401  -18.8032   20.8517 C.ar    1  UNL1        0.0369
     20 C          -6.2091  -19.1730   19.8269 C.ar    1  UNL1        0.0033
     21 C          -4.7607  -19.2408   20.2109 C.ar    1  UNL1        0.0047
     22 C          -4.3433  -18.9389   21.6196 C.ar    1  UNL1        0.0561
     23 C          -5.3744  -18.5691   22.6444 C.ar    1  UNL1        0.0414
     24 C          -2.8949  -19.0067   22.0036 C.2     1  UNL1        0.2428
     25 N          -2.2698  -17.8818   22.7743 N.am    1  UNL1       -0.3253
     26 O          -2.0715  -20.1995   21.6169 O.2     1  UNL1       -0.2704
     27 H          -2.8102  -17.0990   23.0281 H       1  UNL1        0.1453
     28 H          -1.3191  -17.9264   23.0263 H       1  UNL1        0.1453
@<TRIPOS>BOND
     1    11    12    1
     2    12    13   ar
     3    13    14   ar
     4    14    15   ar
     5    15     9    1
     6     9    10    1
     7     9     1    1
     8     1     2    1
     9     2     3    1
    10     3     4    1
    11     5     4    1
    12     5     6    1
    13     6     7    1
    14     7    17    1
    15    17    18    1
    16    18    19   ar
    17    19    20   ar
    18    20    21   ar
    19    21    22   ar
    20    22    24    1
    21    24    25   am
    22    24    26    2
    23    22    23   ar
    24     7     8    1
    25    15    16   ar
    26    16    12   ar
    27     5     1    1
    28    23    18   ar
    29     8     2    1
    30    25    27    1
    31    25    28    1
@<TRIPOS>MOLECULE
*****
 28 31 0 0 0
SMALL
GASTEIGER

@<TRIPOS>ATOM
      1 N         -10.7701  -17.4841   22.2687 N.3     1  UNL1       -0.2723
      2 C         -11.6805  -17.4738   21.0766 C.3     1  UNL1        0.0614
      3 C         -13.0768  -17.7369   21.5573 C.3     1  UNL1        0.0175
      4 C         -13.0294  -17.9098   23.0465 C.3     1  UNL1        0.0175
      5 C         -11.6038  -17.7536   23.4862 C.3     1  UNL1        0.0614
      6 C         -10.1149  -17.5528   23.6344 C.3     1  UNL1        0.0595
      7 C          -9.4141  -17.2929   22.3339 C.3     1  UNL1        0.1686
      8 C         -10.1969  -17.2533   21.0550 C.3     1  UNL1        0.0595
      9 C          -9.2866  -17.2636   22.2471 C.3     1  UNL1        0.0861
     10 C          -8.7324  -15.8765   22.3838 C.3     1  UNL1        0.0228
     11 C          -5.4983  -20.4539   20.4162 C.3     1  UNL1        0.0381
     12 C          -6.6159  -19.8967   21.2472 C.ar    1  UNL1        0.0073
     13 C          -7.2382  -20.5547   22.4429 C.ar    1  UNL1        0.0024
     14 C          -8.3143  -19.6484   22.9630 C.ar    1  UNL1        0.0037
     15 C          -8.3572  -18.4303   22.0887 C.ar    1  UNL1        0.0214
     16 S          -7.3075  -18.5838   21.0282 S.2     1  UNL1       -0.0943
     17 O          -7.9305  -17.0724   22.3123 O.3     1  UNL1       -0.4791
     18 C          -7.2441  -16.4722   23.5034 C.ar    1  UNL1        0.1385
     19 C          -5.8184  -16.0183   23.3976 C.ar    1  UNL1        0.0369
     20 C          -5.1320  -15.4182   24.5886 C.ar    1  UNL1        0.0033
     21 C          -5.8713  -15.2719   25.8855 C.ar    1  UNL1        0.0047
     22 C          -7.2970  -15.7257   25.9913 C.ar    1  UNL1        0.0561
     23 C          -7.9835  -16.3259   24.8002 C.ar    1  UNL1        0.0414
     24 C          -8.0364  -15.5794   27.2882 C.2     1  UNL1        0.2428
     25 N          -8.0447  -14.2602   28.0021 N.am    1  UNL1       -0.3253
     26 O          -8.7674  -16.7524   27.8713 O.2     1  UNL1       -0.2704
     27 H          -7.5650  -13.4904   27.6194 H       1  UNL1        0.1453
     28 H          -8.5300  -14.1642   28.8533 H       1  UNL1        0.1453
@<TRIPOS>BOND
     1    11    12    1
     2    12    13   ar
     3    13    14   ar
     4    14    15   ar
     5    15     9    1
     6     9    10    1
     7     9     1    1
     8     1     2    1
     9     2     3    1
    10     3     4    1
    11     5     4    1
    12     5     6    1
    13     6     7    1
    14     7    17    1
    15    17    18    1
    16    18    19   ar
    17    19    20   ar
    18    20    21   ar
    19    21    22   ar
    20    22    24    1
    21    24    25   am
    22    24    26    2
    23    22    23   ar
    24     7     8    1
    25    15    16   ar
    26    16    12   ar
    27     5     1    1
    28    23    18   ar
    29     8     2    1
    30    25    27    1
    31    25    28    1
@<TRIPOS>MOLECULE
*****
 28 31 0 0 0
SMALL
GASTEIGER

@<TRIPOS>ATOM
      1 N          -9.4082  -18.6123   20.5459 N.3     1  UNL1       -0.2723
      2 C         -10.2985  -18.9375   19.3833 C.3     1  UNL1        0.0614
      3 C          -9.5693  -19.9030   18.4968 C.3     1  UNL1        0.0175
      4 C          -8.2283  -20.1747   19.1115 C.3     1  UNL1        0.0175
      5 C          -8.1287  -19.3770   20.3780 C.3     1  UNL1        0.0614
      6 C          -8.3069  -18.4810   21.5799 C.3     1  UNL1        0.0595
      7 C          -9.6338  -17.7822   21.6134 C.3     1  UNL1        0.1686
      8 C         -10.6296  -18.0105   20.5152 C.3     1  UNL1        0.0595
      9 C          -9.7393  -17.6853   21.6778 C.3     1  UNL1        0.0861
     10 C          -9.2392  -16.2713   21.6599 C.3     1  UNL1        0.0228
     11 C         -13.7683  -18.3953   25.0161 C.3     1  UNL1        0.0381
     12 C         -12.4224  -18.4987   24.3619 C.ar    1  UNL1        0.0073
     13 C         -11.2767  -19.3453   24.8316 C.ar    1  UNL1        0.0024
     14 C         -10.1321  -19.1436   23.8832 C.ar    1  UNL1        0.0037
     15 C         -10.5704  -18.1724   22.8275 C.ar    1  UNL1        0.0214
     16 S         -11.9860  -17.7739   23.1234 S.2     1  UNL1       -0.0943
     17 O          -9.9648  -16.8552   22.7453 O.3     1  UNL1       -0.4791
     18 C          -8.8773  -16.3614   23.6529 C.ar    1  UNL1        0.1385
     19 C          -9.2111  -15.8958   25.0392 C.ar    1  UNL1        0.0369
     20 C          -8.1238  -15.4021   25.9467 C.ar    1  UNL1        0.0033
     21 C          -6.7025  -15.3740   25.4680 C.ar    1  UNL1        0.0047
     22 C          -6.3687  -15.8396   24.0817 C.ar    1  UNL1        0.0561
     23 C          -7.4561  -16.3333   23.1742 C.ar    1  UNL1        0.0414
     24 C          -4.9474  -15.8115   23.6030 C.2     1  UNL1        0.2428
     25 N          -4.0605  -17.0023   23.8161 N.am    1  UNL1       -0.3253
     26 O          -4.4129  -14.5925   22.9112 O.2     1  UNL1       -0.2704
     27 H          -4.4112  -17.8023   24.2702 H       1  UNL1        0.1453
     28 H          -3.1276  -16.9838   23.5019 H       1  UNL1        0.1453
@<TRIPOS>BOND
     1    11    12    1
     2    12    13   ar
     3    13    14   ar
     4    14    15   ar
     5    15     9    1
     6     9    10    1
     7     9     1    1
     8     1     2    1
     9     2     3    1
    10     3     4    1
    11     5     4    1
    12     5     6    1
    13     6     7    1
    14     7    17    1
    15    17    18    1
    16    18    19   ar
    17    19    20   ar
    18    20    21   ar
    19    21    22   ar
    20    22    24    1
    21    24    25   am
    22    24    26    2
    23    22    23   ar
    24     7     8    1
    25    15    16   ar
    26    16    12   ar
    27     5     1    1
    28    23    18   ar
    29     8     2    1
    30    25    27    1
    31    25    28    1
@<TRIPOS>MOLECULE
*****
 28 31 0 0 0
SMALL
GASTEIGER

@<TRIPOS>ATOM
      1 N          -7.1696  -15.9646   24.5151 N.3     1  UNL1       -0.2723
      2 C          -5.7447  -15.5380   24.7088 C.3     1  UNL1        0.0614
      3 C          -5.5540  -15.2029   26.1584 C.3     1  UNL1        0.0175
      4 C          -6.8612  -15.4223   26.8606 C.3     1  UNL1        0.0175
      5 C          -7.8597  -15.8931   25.8451 C.3     1  UNL1        0.0614
      6 C          -8.6338  -16.3418   24.6292 C.3     1  UNL1        0.0595
      7 C          -7.8144  -16.3636   23.3729 C.3     1  UNL1        0.1686
      8 C          -6.3698  -15.9617   23.4128 C.3     1  UNL1        0.0595
      9 C          -7.7948  -16.3883   23.2191 C.3     1  UNL1        0.0861
     10 C          -8.5823  -15.4020   22.4085 C.3     1  UNL1        0.0228
     11 C          -6.2862  -20.5824   20.3882 C.3     1  UNL1        0.0381
     12 C          -6.9389  -19.7261   21.4324 C.ar    1  UNL1        0.0073
     13 C          -7.8260  -20.2099   22.5410 C.ar    1  UNL1        0.0024
     14 C          -8.2546  -19.0184   23.3452 C.ar    1  UNL1        0.0037
     15 C          -7.6324  -17.7982   22.7337 C.ar    1  UNL1        0.0214
     16 S          -6.8192  -18.2356   21.5515 S.2     1  UNL1       -0.0943
     17 O          -8.4396  -16.7873   22.0769 O.3     1  UNL1       -0.4791
     18 C          -9.9326  -16.8668   21.9550 C.ar    1  UNL1        0.1385
     19 C         -10.6172  -16.3048   20.7445 C.ar    1  UNL1        0.0369
     20 C         -12.1101  -16.3843   20.6227 C.ar    1  UNL1        0.0033
     21 C         -12.9183  -17.0258   21.7113 C.ar    1  UNL1        0.0047
     22 C         -12.2337  -17.5878   22.9218 C.ar    1  UNL1        0.0561
     23 C         -10.7407  -17.5083   23.0437 C.ar    1  UNL1        0.0414
     24 C         -13.0419  -18.2293   24.0105 C.2     1  UNL1        0.2428
     25 N         -12.3524  -18.9427   25.1355 N.am    1  UNL1       -0.3253
     26 O         -14.5398  -18.1574   23.9742 O.2     1  UNL1       -0.2704
     27 H         -11.3693  -18.9899   25.1593 H       1  UNL1        0.1453
     28 H         -12.8829  -19.3638   25.8500 H       1  UNL1        0.1453
@<TRIPOS>BOND
     1    11    12    1
     2    12    13   ar
     3    13    14   ar
     4    14    15   ar
     5    15     9    1
     6     9    10    1
     7     9     1    1
     8     1     2    1
     9     2     3    1
    10     3     4    1
    11     5     4    1
    12     5     6    1
    13     6     7    1
    14     7    17    1
    15    17    18    1
    16    18    19   ar
    17    19    20   ar
    18    20    21   ar
    19    21    22   ar
    20    22    24    1
    21    24    25   am
    22    24    26    2
    23    22    23   ar
    24     7     8    1
    25    15    16   ar
    26    16    12   ar
    27     5     1    1
    28    23    18   ar
    29     8     2    1
    30    25    27    1
    31    25    28    1
@<TRIPOS>MOLECULE
*****
 28 31 0 0 0
SMALL
GASTEIGER

@<TRIPOS>ATOM
      1 N         -11.8240   -6.0336   18.1084 N.3     1  UNL1       -0.2723
      2 C         -10.7572   -5.3127   17.3388 C.3     1  UNL1        0.0614
      3 C          -9.4409   -5.9591   17.6543 C.3     1  UNL1        0.0175
      4 C          -9.6942   -7.0796   18.6189 C.3     1  UNL1        0.0175
      5 C         -11.1670   -7.1256   18.8996 C.3     1  UNL1        0.0614
      6 C         -12.6621   -6.9376   18.9912 C.3     1  UNL1        0.0595
      7 C         -13.1759   -5.8095   18.1466 C.3     1  UNL1        0.1686
      8 C         -12.2234   -4.9970   17.3204 C.3     1  UNL1        0.0595
      9 C         -13.2902   -5.7179   18.0900 C.3     1  UNL1        0.0861
     10 C         -14.2004   -6.4369   17.1389 C.3     1  UNL1        0.0228
     11 C         -15.6424   -1.3653   19.9350 C.3     1  UNL1        0.0381
     12 C         -14.9275   -2.6824   19.8708 C.ar    1  UNL1        0.0073
     13 C         -14.4767   -3.4990   21.0455 C.ar    1  UNL1        0.0024
     14 C         -13.8085   -4.7355   20.5214 C.ar    1  UNL1        0.0037
     15 C         -13.8463   -4.6831   19.0228 C.ar    1  UNL1        0.0214
     16 S         -14.5379   -3.4142   18.6207 S.2     1  UNL1       -0.0943
     17 O         -14.6423   -5.4938   18.1283 O.3     1  UNL1       -0.4791
     18 C         -15.6351   -6.5145   18.5998 C.ar    1  UNL1        0.1385
     19 C         -16.8650   -6.0786   19.3396 C.ar    1  UNL1        0.0369
     20 C         -17.8578   -7.0993   19.8111 C.ar    1  UNL1        0.0033
     21 C         -17.6208   -8.5560   19.5429 C.ar    1  UNL1        0.0047
     22 C         -16.3909   -8.9919   18.8031 C.ar    1  UNL1        0.0561
     23 C         -15.3981   -7.9711   18.3316 C.ar    1  UNL1        0.0414
     24 C         -16.1539  -10.4485   18.5348 C.2     1  UNL1        0.2428
     25 N         -17.1930  -11.4604   18.9173 N.am    1  UNL1       -0.3253
     26 O         -14.8777  -10.8933   17.8840 O.2     1  UNL1       -0.2704
     27 H         -18.0306  -11.1685   19.3445 H       1  UNL1        0.1453
     28 H         -17.0375  -12.4164   18.7413 H       1  UNL1        0.1453
@<TRIPOS>BOND
     1    11    12    1
     2    12    13   ar
     3    13    14   ar
     4    14    15   ar
     5    15     9    1
     6     9    10    1
     7     9     1    1
     8     1     2    1
     9     2     3    1
    10     3     4    1
    11     5     4    1
    12     5     6    1
    13     6     7    1
    14     7    17    1
    15    17    18    1
    16    18    19   ar
    17    19    20   ar
    18    20    21   ar
    19    21    22   ar
    20    22    24    1
    21    24    25   am
    22    24    26    2
    23    22    23   ar
    24     7     8    1
    25    15    16   ar
    26    16    12   ar
    27     5     1    1
    28    23    18   ar
    29     8     2    1
    30    25    27    1
    31    25    28    1
@<TRIPOS>MOLECULE
*****
 28 31 0 0 0
SMALL
GASTEIGER

@<TRIPOS>ATOM
      1 N         -12.2173   -2.0117   17.8050 N.3     1  UNL1       -0.2723
      2 C         -11.1313   -0.9974   18.0094 C.3     1  UNL1        0.0614
      3 C         -11.2985    0.0758   16.9748 C.3     1  UNL1        0.0175
      4 C         -12.4880   -0.2753   16.1311 C.3     1  UNL1        0.0175
      5 C         -13.0558   -1.5653   16.6441 C.3     1  UNL1        0.0614
      6 C         -13.4020   -2.8477   17.3616 C.3     1  UNL1        0.0595
      7 C         -12.4772   -3.1650   18.4992 C.3     1  UNL1        0.1686
      8 C         -11.3418   -2.2398   18.8231 C.3     1  UNL1        0.0595
      9 C         -12.4279   -3.2541   18.6187 C.3     1  UNL1        0.0861
     10 C         -13.2913   -3.2105   19.8445 C.3     1  UNL1        0.0228
     11 C          -9.4620   -7.6223   18.6705 C.3     1  UNL1        0.0381
     12 C         -10.4117   -6.5480   18.2304 C.ar    1  UNL1        0.0073
     13 C         -11.1290   -6.4903   16.9143 C.ar    1  UNL1        0.0024
     14 C         -11.9715   -5.2493   16.8995 C.ar    1  UNL1        0.0037
     15 C         -11.7750   -4.5401   18.2066 C.ar    1  UNL1        0.0214
     16 S         -10.8110   -5.3427   19.0291 S.2     1  UNL1       -0.0943
     17 O         -12.6878   -4.4075   19.3128 O.3     1  UNL1       -0.4791
     18 C         -14.0502   -5.0302   19.3920 C.ar    1  UNL1        0.1385
     19 C         -15.2532   -4.1721   19.6497 C.ar    1  UNL1        0.0369
     20 C         -16.6155   -4.7948   19.7288 C.ar    1  UNL1        0.0033
     21 C         -16.7748   -6.2756   19.5502 C.ar    1  UNL1        0.0047
     22 C         -15.5718   -7.1336   19.2924 C.ar    1  UNL1        0.0561
     23 C         -14.2094   -6.5109   19.2133 C.ar    1  UNL1        0.0414
     24 C         -15.7311   -8.6144   19.1138 C.2     1  UNL1        0.2428
     25 N         -16.1154   -9.4737   20.2817 N.am    1  UNL1       -0.3253
     26 O         -15.5062   -9.2359   17.7672 O.2     1  UNL1       -0.2704
     27 H         -16.2631   -9.0658   21.1655 H       1  UNL1        0.1453
     28 H         -16.2200  -10.4456   20.1644 H       1  UNL1        0.1453
@<TRIPOS>BOND
     1    11    12    1
     2    12    13   ar
     3    13    14   ar
     4    14    15   ar
     5    15     9    1
     6     9    10    1
     7     9     1    1
     8     1     2    1
     9     2     3    1
    10     3     4    1
    11     5     4    1
    12     5     6    1
    13     6     7    1
    14     7    17    1
    15    17    18    1
    16    18    19   ar
    17    19    20   ar
    18    20    21   ar
    19    21    22   ar
    20    22    24    1
    21    24    25   am
    22    24    26    2
    23    22    23   ar
    24     7     8    1
    25    15    16   ar
    26    16    12   ar
    27     5     1    1
    28    23    18   ar
    29     8     2    1
    30    25    27    1
    31    25    28    1
@<TRIPOS>MOLECULE
*****
 28 31 0 0 0
SMALL
GASTEIGER

@<TRIPOS>ATOM
      1 N         -11.3279   -5.1108   17.7618 N.3     1  UNL1       -0.2723
      2 C          -9.9107   -5.2306   18.2384 C.3     1  UNL1        0.0614
      3 C          -9.0136   -4.6841   17.1676 C.3     1  UNL1        0.0175
      4 C          -9.8764   -4.2265   16.0291 C.3     1  UNL1        0.0175
      5 C         -11.3067   -4.4901   16.3963 C.3     1  UNL1        0.0614
      6 C         -12.6286   -4.8639   17.0225 C.3     1  UNL1        0.0595
      7 C         -12.4931   -5.4732   18.3865 C.3     1  UNL1        0.1686
      8 C         -11.1342   -5.6566   18.9945 C.3     1  UNL1        0.0595
      9 C         -12.5514   -5.5367   18.5178 C.3     1  UNL1        0.0861
     10 C         -12.9924   -6.9700   18.4846 C.3     1  UNL1        0.0228
     11 C         -15.4558   -1.3163   19.7957 C.3     1  UNL1        0.0381
     12 C         -14.6688   -2.5894   19.8945 C.ar    1  UNL1        0.0073
     13 C         -14.4068   -3.3688   21.1490 C.ar    1  UNL1        0.0024
     14 C         -13.5817   -4.5677   20.7860 C.ar    1  UNL1        0.0037
     15 C         -13.3338   -4.5293   19.3071 C.ar    1  UNL1        0.0214
     16 S         -14.0057   -3.3066   18.7561 S.2     1  UNL1       -0.0943
     17 O         -13.7167   -5.8992   19.1426 O.3     1  UNL1       -0.4791
     18 C         -14.7552   -6.7484   18.4715 C.ar    1  UNL1        0.1385
     19 C         -14.9951   -6.6145   16.9968 C.ar    1  UNL1        0.0369
     20 C         -16.0335   -7.4637   16.3258 C.ar    1  UNL1        0.0033
     21 C         -16.8321   -8.4469   17.1293 C.ar    1  UNL1        0.0047
     22 C         -16.5922   -8.5808   18.6039 C.ar    1  UNL1        0.0561
     23 C         -15.5537   -7.7315   19.2750 C.ar    1  UNL1        0.0414
     24 C         -17.3908   -9.5639   19.4074 C.2     1  UNL1        0.2428
     25 N         -17.0251  -11.0186   19.3911 N.am    1  UNL1       -0.3253
     26 O         -18.5551   -9.0924   20.2272 O.2     1  UNL1       -0.2704
     27 H         -16.2609  -11.3281   18.8530 H       1  UNL1        0.1453
     28 H         -17.5492  -11.6639   19.9185 H       1  UNL1        0.1453
@<TRIPOS>BOND
     1    11    12    1
     2    12    13   ar
     3    13    14   ar
     4    14    15   ar
     5    15     9    1
     6     9    10    1
     7     9     1    1
     8     1     2    1
     9     2     3    1
    10     3     4    1
    11     5     4    1
    12     5     6    1
    13     6     7    1
    14     7    17    1
    15    17    18    1
    16    18    19   ar
    17    19    20   ar
    18    20    21   ar
    19    21    22   ar
    20    22    24    1
    21    24    25   am
    22    24    26    2
    23    22    23   ar
    24     7     8    1
    25    15    16   ar
    26    16    12   ar
    27     5     1    1
    28    23    18   ar
    29     8     2    1
    30    25    27    1
    31    25    28    1
@<TRIPOS>MOLECULE
*****
 28 31 0 0 0
SMALL
GASTEIGER

@<TRIPOS>ATOM
      1 N         -11.9360   -4.4200   18.1070 N.3     1  UNL1       -0.2723
      2 C         -10.5715   -3.8936   18.4403 C.3     1  UNL1        0.0614
      3 C          -9.6337   -4.3110   17.3465 C.3     1  UNL1        0.0175
      4 C         -10.4186   -5.0954   16.3373 C.3     1  UNL1        0.0175
      5 C         -11.8415   -5.1628   16.8073 C.3     1  UNL1        0.0614
      6 C         -13.1720   -5.0682   17.5143 C.3     1  UNL1        0.0595
      7 C         -13.1128   -4.2969   18.7994 C.3     1  UNL1        0.1686
      8 C         -11.8125   -3.7096   19.2624 C.3     1  UNL1        0.0595
      9 C         -13.1770   -4.2360   18.9292 C.3     1  UNL1        0.0861
     10 C         -13.5057   -5.2119   20.0199 C.3     1  UNL1        0.0228
     11 C         -16.0256    0.1644   19.5640 C.3     1  UNL1        0.0381
     12 C         -15.3987   -1.0533   18.9525 C.ar    1  UNL1        0.0073
     13 C         -15.5878   -1.5285   17.5424 C.ar    1  UNL1        0.0024
     14 C         -14.7786   -2.7786   17.3620 C.ar    1  UNL1        0.0037
     15 C         -14.0893   -3.0760   18.6606 C.ar    1  UNL1        0.0214
     16 S         -14.4726   -2.0097   19.6436 S.2     1  UNL1       -0.0943
     17 O         -14.3539   -4.1128   19.6216 O.3     1  UNL1       -0.4791
     18 C         -15.4522   -5.1326   19.5603 C.ar    1  UNL1        0.1385
     19 C         -16.8860   -4.6920   19.5675 C.ar    1  UNL1        0.0369
     20 C         -17.9843   -5.7118   19.5061 C.ar    1  UNL1        0.0033
     21 C         -17.6488   -7.1722   19.4376 C.ar    1  UNL1        0.0047
     22 C         -16.2150   -7.6127   19.4303 C.ar    1  UNL1        0.0561
     23 C         -15.1167   -6.5929   19.4917 C.ar    1  UNL1        0.0414
     24 C         -15.8795   -9.0731   19.3618 C.2     1  UNL1        0.2428
     25 N         -14.5505   -9.5129   18.8229 N.am    1  UNL1       -0.3253
     26 O         -16.8731  -10.0938   19.8320 O.2     1  UNL1       -0.2704
     27 H         -13.8984   -8.8430   18.5143 H       1  UNL1        0.1453
     28 H         -14.3303  -10.4714   18.7779 H       1  UNL1        0.1453
@<TRIPOS>BOND
     1    11    12    1
     2    12    13   ar
     3    13    14   ar
     4    14    15   ar
     5    15     9    1
     6     9    10    1
     7     9     1    1
     8     1     2    1
     9     2     3    1
    10     3     4    1
    11     5     4    1
    12     5     6    1
    13     6     7    1
    14     7    17    1
    15    17    18    1
    16    18    19   ar
    17    19    20   ar
    18    20    21   ar
    19    21    22   ar
    20    22    24    1
    21    24    25   am
    22    24    26    2
    23    22    23   ar
    24     7     8    1
    25    15    16   ar
    26    16    12   ar
    27     5     1    1
    28    23    18   ar
    29     8     2    1
    30    25    27    1
    31    25    28    1
