@<TRIPOS>MOLECULE
*****
 16 17 0 0 0
SMALL
GASTEIGER

@<TRIPOS>ATOM
      1 CL         -5.1956  -15.1861   26.2442 Cl      1  UNL1       -0.0814
      2 C          -6.3801  -15.5340   25.3924 C.ar    1  UNL1        0.0682
      3 C          -6.1949  -15.8230   23.9322 C.ar    1  UNL1        0.0119
      4 C          -7.3796  -16.1710   23.0803 C.ar    1  UNL1       -0.0033
      5 C          -8.7493  -16.2300   23.6887 C.ar    1  UNL1       -0.0199
      6 C          -8.9345  -15.9411   25.1489 C.ar    1  UNL1        0.0080
      7 C          -7.7500  -15.5931   26.0008 C.ar    1  UNL1        0.0679
      8 CL         -7.9352  -15.3042   27.4610 Cl      1  UNL1       -0.0814
      9 C          -9.9340  -16.5780   22.8369 C.3     1  UNL1        0.0424
     10 C         -10.9917  -17.4086   23.5013 C.3     1  UNL1        0.0315
     11 C         -12.2810  -17.9158   22.9262 C.2     1  UNL1       -0.0289
     12 C         -12.8309  -17.7176   21.5449 C.2     1  UNL1       -0.0136
     13 C         -12.2275  -16.9633   20.3973 C.3     1  UNL1        0.0950
     14 N         -10.9250  -16.2209   20.3477 N.3     1  UNL1       -0.2935
     15 C          -9.9043  -16.0495   21.4335 C.3     1  UNL1        0.0735
     16 H         -11.1832  -15.2692   20.0871 H       1  UNL1        0.1236
@<TRIPOS>BOND
     1     1     2    1
     2     2     3   ar
     3     3     4   ar
     4     4     5   ar
     5     9     5    1
     6     9    10    1
     7    10    11    1
     8    11    12    2
     9    12    13    1
    10    13    14    1
    11    14    15    1
    12     5     6   ar
    13     6     7   ar
    14     7     8    1
    15     7     2   ar
    16    15     9    1
    17    14    16    1
@<TRIPOS>MOLECULE
*****
 16 17 0 0 0
SMALL
GASTEIGER

@<TRIPOS>ATOM
      1 CL         -1.8559  -19.6386   21.0107 Cl      1  UNL1       -0.0814
      2 C          -3.3532  -19.6288   21.0994 C.ar    1  UNL1        0.0682
      3 C          -4.1659  -20.4658   20.1567 C.ar    1  UNL1        0.0119
      4 C          -5.6633  -20.4560   20.2455 C.ar    1  UNL1       -0.0033
      5 C          -6.3479  -19.6091   21.2770 C.ar    1  UNL1       -0.0199
      6 C          -5.5351  -18.7721   22.2198 C.ar    1  UNL1        0.0080
      7 C          -4.0378  -18.7819   22.1311 C.ar    1  UNL1        0.0679
      8 CL         -3.2250  -17.9449   23.0738 Cl      1  UNL1       -0.0814
      9 C          -7.8452  -19.5993   21.3659 C.3     1  UNL1        0.0424
     10 C          -8.5735  -19.4567   20.0622 C.3     1  UNL1        0.0315
     11 C         -10.0528  -19.4130   19.8173 C.2     1  UNL1       -0.0289
     12 C         -11.1689  -19.5009   20.8155 C.2     1  UNL1       -0.0136
     13 C         -11.0817  -19.6543   22.3051 C.3     1  UNL1        0.0950
     14 N          -9.8566  -19.7577   23.1644 N.3     1  UNL1       -0.2935
     15 C          -8.4162  -19.7332   22.7463 C.3     1  UNL1        0.0735
     16 H          -9.9645  -20.6440   23.6576 H       1  UNL1        0.1236
@<TRIPOS>BOND
     1     1     2    1
     2     2     3   ar
     3     3     4   ar
     4     4     5   ar
     5     9     5    1
     6     9    10    1
     7    10    11    1
     8    11    12    2
     9    12    13    1
    10    13    14    1
    11    14    15    1
    12     5     6   ar
    13     6     7   ar
    14     7     8    1
    15     7     2   ar
    16    15     9    1
    17    14    16    1
@<TRIPOS>MOLECULE
*****
 16 17 0 0 0
SMALL
GASTEIGER

@<TRIPOS>ATOM
      1 CL        -12.9228  -18.0490   21.2725 Cl      1  UNL1       -0.0814
      2 C         -11.7757  -17.5852   22.1203 C.ar    1  UNL1        0.0682
      3 C         -11.5494  -18.1923   23.4731 C.ar    1  UNL1        0.0119
      4 C         -10.4022  -17.7284   24.3210 C.ar    1  UNL1       -0.0033
      5 C          -9.4813  -16.6575   23.8159 C.ar    1  UNL1       -0.0199
      6 C          -9.7075  -16.0505   22.4630 C.ar    1  UNL1        0.0080
      7 C         -10.8547  -16.5143   21.6152 C.ar    1  UNL1        0.0679
      8 CL        -11.0810  -15.9072   20.2623 Cl      1  UNL1       -0.0814
      9 C          -8.3341  -16.1937   24.6637 C.3     1  UNL1        0.0424
     10 C          -8.5425  -16.2838   26.1465 C.3     1  UNL1        0.0315
     11 C          -7.5984  -15.9035   27.2484 C.2     1  UNL1       -0.0289
     12 C          -6.2130  -15.3393   27.1397 C.2     1  UNL1       -0.0136
     13 C          -5.4292  -15.0159   25.9024 C.3     1  UNL1        0.0950
     14 N          -5.8374  -15.1769   24.4680 N.3     1  UNL1       -0.2935
     15 C          -7.1302  -15.7011   23.9168 C.3     1  UNL1        0.0735
     16 H          -5.1232  -15.7840   24.0657 H       1  UNL1        0.1236
@<TRIPOS>BOND
     1     1     2    1
     2     2     3   ar
     3     3     4   ar
     4     4     5   ar
     5     9     5    1
     6     9    10    1
     7    10    11    1
     8    11    12    2
     9    12    13    1
    10    13    14    1
    11    14    15    1
    12     5     6   ar
    13     6     7   ar
    14     7     8    1
    15     7     2   ar
    16    15     9    1
    17    14    16    1
@<TRIPOS>MOLECULE
*****
 16 17 0 0 0
SMALL
GASTEIGER

@<TRIPOS>ATOM
      1 CL         -3.1720  -20.0525   21.1963 Cl      1  UNL1       -0.0814
      2 C          -4.5971  -19.5949   21.2943 C.ar    1  UNL1        0.0682
      3 C          -5.6263  -20.1389   20.3484 C.ar    1  UNL1        0.0119
      4 C          -7.0515  -19.6812   20.4465 C.ar    1  UNL1       -0.0033
      5 C          -7.4473  -18.6796   21.4905 C.ar    1  UNL1       -0.0199
      6 C          -6.4182  -18.1356   22.4364 C.ar    1  UNL1        0.0080
      7 C          -4.9930  -18.5933   22.3384 C.ar    1  UNL1        0.0679
      8 CL         -3.9638  -18.0493   23.2844 Cl      1  UNL1       -0.0814
      9 C          -8.8724  -18.2219   21.5886 C.3     1  UNL1        0.0424
     10 C          -9.9049  -19.2033   21.1185 C.3     1  UNL1        0.0315
     11 C         -11.3967  -19.0486   21.0876 C.2     1  UNL1       -0.0289
     12 C         -12.2242  -17.8743   21.5190 C.2     1  UNL1       -0.0136
     13 C         -11.7646  -16.5647   22.0880 C.3     1  UNL1        0.0950
     14 N         -10.3637  -16.1060   22.3660 N.3     1  UNL1       -0.2935
     15 C          -9.0767  -16.8436   22.1437 C.3     1  UNL1        0.0735
     16 H         -10.3611  -15.8816   23.3610 H       1  UNL1        0.1236
@<TRIPOS>BOND
     1     1     2    1
     2     2     3   ar
     3     3     4   ar
     4     4     5   ar
     5     9     5    1
     6     9    10    1
     7    10    11    1
     8    11    12    2
     9    12    13    1
    10    13    14    1
    11    14    15    1
    12     5     6   ar
    13     6     7   ar
    14     7     8    1
    15     7     2   ar
    16    15     9    1
    17    14    16    1
@<TRIPOS>MOLECULE
*****
 16 17 0 0 0
SMALL
GASTEIGER

@<TRIPOS>ATOM
      1 CL        -12.2253  -18.2281   21.2503 Cl      1  UNL1       -0.0814
      2 C         -10.7452  -18.4704   21.2704 C.ar    1  UNL1        0.0682
      3 C         -10.0731  -19.1055   20.0893 C.ar    1  UNL1        0.0119
      4 C          -8.5928  -19.3478   20.1094 C.ar    1  UNL1       -0.0033
      5 C          -7.7848  -18.9548   21.3104 C.ar    1  UNL1       -0.0199
      6 C          -8.4569  -18.3197   22.4915 C.ar    1  UNL1        0.0080
      7 C          -9.9370  -18.0774   22.4715 C.ar    1  UNL1        0.0679
      8 CL        -10.6091  -17.4422   23.6525 Cl      1  UNL1       -0.0814
      9 C          -6.3046  -19.1970   21.3305 C.3     1  UNL1        0.0424
     10 C          -5.7782  -20.0993   20.2540 C.3     1  UNL1        0.0315
     11 C          -4.3636  -20.5324   20.0055 C.2     1  UNL1       -0.0289
     12 C          -3.1264  -20.1701   20.7721 C.2     1  UNL1       -0.0136
     13 C          -2.9978  -19.2854   21.9766 C.3     1  UNL1        0.0950
     14 N          -4.0749  -18.5444   22.7119 N.3     1  UNL1       -0.2935
     15 C          -5.5466  -18.5051   22.4243 C.3     1  UNL1        0.0735
     16 H          -3.7819  -17.5679   22.6784 H       1  UNL1        0.1236
@<TRIPOS>BOND
     1     1     2    1
     2     2     3   ar
     3     3     4   ar
     4     4     5   ar
     5     9     5    1
     6     9    10    1
     7    10    11    1
     8    11    12    2
     9    12    13    1
    10    13    14    1
    11    14    15    1
    12     5     6   ar
    13     6     7   ar
    14     7     8    1
    15     7     2   ar
    16    15     9    1
    17    14    16    1
@<TRIPOS>MOLECULE
*****
 16 17 0 0 0
SMALL
GASTEIGER

@<TRIPOS>ATOM
      1 CL        -11.7622  -19.4725   21.2117 Cl      1  UNL1       -0.0814
      2 C         -10.2630  -19.4566   21.2555 C.ar    1  UNL1        0.0682
      3 C          -9.4770  -19.3174   19.9855 C.ar    1  UNL1        0.0119
      4 C          -7.9776  -19.3014   20.0293 C.ar    1  UNL1       -0.0033
      5 C          -7.2644  -19.4248   21.3431 C.ar    1  UNL1       -0.0199
      6 C          -8.0504  -19.5640   22.6130 C.ar    1  UNL1        0.0080
      7 C          -9.5497  -19.5799   22.5693 C.ar    1  UNL1        0.0679
      8 CL        -10.3356  -19.7191   23.8393 Cl      1  UNL1       -0.0814
      9 C          -5.7651  -19.4089   21.3869 C.3     1  UNL1        0.0424
     10 C          -5.1548  -18.5864   22.4830 C.3     1  UNL1        0.0315
     11 C          -3.7030  -18.3695   22.7918 C.2     1  UNL1       -0.0289
     12 C          -2.5031  -18.9213   22.0809 C.2     1  UNL1       -0.0136
     13 C          -2.4584  -19.8264   20.8856 C.3     1  UNL1        0.0950
     14 N          -3.6027  -20.4032   20.1059 N.3     1  UNL1       -0.2935
     15 C          -5.0744  -20.2173   20.3291 C.3     1  UNL1        0.0735
     16 H          -3.4623  -21.4123   20.1548 H       1  UNL1        0.1236
@<TRIPOS>BOND
     1     1     2    1
     2     2     3   ar
     3     3     4   ar
     4     4     5   ar
     5     9     5    1
     6     9    10    1
     7    10    11    1
     8    11    12    2
     9    12    13    1
    10    13    14    1
    11    14    15    1
    12     5     6   ar
    13     6     7   ar
    14     7     8    1
    15     7     2   ar
    16    15     9    1
    17    14    16    1
@<TRIPOS>MOLECULE
*****
 16 17 0 0 0
SMALL
GASTEIGER

@<TRIPOS>ATOM
      1 CL         -3.4062  -19.6668   21.9405 Cl      1  UNL1       -0.0814
      2 C          -4.8421  -19.2345   21.9082 C.ar    1  UNL1        0.0682
      3 C          -5.2976  -18.0822   22.7536 C.ar    1  UNL1        0.0119
      4 C          -6.7337  -17.6498   22.7213 C.ar    1  UNL1       -0.0033
      5 C          -7.7141  -18.3698   21.8437 C.ar    1  UNL1       -0.0199
      6 C          -7.2586  -19.5221   20.9983 C.ar    1  UNL1        0.0080
      7 C          -5.8226  -19.9545   21.0305 C.ar    1  UNL1        0.0679
      8 CL         -5.3672  -21.1068   20.1852 Cl      1  UNL1       -0.0814
      9 C          -9.1501  -17.9375   21.8114 C.3     1  UNL1        0.0424
     10 C         -10.1290  -18.9672   21.3301 C.3     1  UNL1        0.0315
     11 C         -11.6170  -18.8464   21.1832 C.2     1  UNL1       -0.0289
     12 C         -12.4933  -17.6662   21.4812 C.2     1  UNL1       -0.0136
     13 C         -12.0985  -16.3152   21.9998 C.3     1  UNL1        0.0950
     14 N         -10.7295  -15.8108   22.3484 N.3     1  UNL1       -0.2935
     15 C          -9.4174  -16.5329   22.2645 C.3     1  UNL1        0.0735
     16 H         -10.8029  -15.5269   23.3253 H       1  UNL1        0.1236
@<TRIPOS>BOND
     1     1     2    1
     2     2     3   ar
     3     3     4   ar
     4     4     5   ar
     5     9     5    1
     6     9    10    1
     7    10    11    1
     8    11    12    2
     9    12    13    1
    10    13    14    1
    11    14    15    1
    12     5     6   ar
    13     6     7   ar
    14     7     8    1
    15     7     2   ar
    16    15     9    1
    17    14    16    1
@<TRIPOS>MOLECULE
*****
 16 17 0 0 0
SMALL
GASTEIGER

@<TRIPOS>ATOM
      1 CL        -13.0653  -17.9861   21.4873 Cl      1  UNL1       -0.0814
      2 C         -11.8269  -17.5207   22.1942 C.ar    1  UNL1        0.0682
      3 C         -10.8839  -16.5751   21.5111 C.ar    1  UNL1        0.0119
      4 C          -9.6455  -16.1097   22.2181 C.ar    1  UNL1       -0.0033
      5 C          -9.3501  -16.5899   23.6081 C.ar    1  UNL1       -0.0199
      6 C         -10.2931  -17.5355   24.2912 C.ar    1  UNL1        0.0080
      7 C         -11.5315  -18.0009   23.5843 C.ar    1  UNL1        0.0679
      8 CL        -12.4745  -18.9465   24.2674 Cl      1  UNL1       -0.0814
      9 C          -8.1117  -16.1245   24.3151 C.3     1  UNL1        0.0424
     10 C          -6.8462  -16.1732   23.5112 C.3     1  UNL1        0.0315
     11 C          -5.4590  -15.7814   23.9261 C.2     1  UNL1       -0.0289
     12 C          -4.9947  -15.2442   25.2473 C.2     1  UNL1       -0.0136
     13 C          -5.8028  -14.9660   26.4801 C.3     1  UNL1        0.0950
     14 N          -7.2749  -15.1565   26.6959 N.3     1  UNL1       -0.2935
     15 C          -8.3025  -15.6721   25.7324 C.3     1  UNL1        0.0735
     16 H          -7.6157  -14.2328   26.9628 H       1  UNL1        0.1236
@<TRIPOS>BOND
     1     1     2    1
     2     2     3   ar
     3     3     4   ar
     4     4     5   ar
     5     9     5    1
     6     9    10    1
     7    10    11    1
     8    11    12    2
     9    12    13    1
    10    13    14    1
    11    14    15    1
    12     5     6   ar
    13     6     7   ar
    14     7     8    1
    15     7     2   ar
    16    15     9    1
    17    14    16    1
@<TRIPOS>MOLECULE
*****
 16 17 0 0 0
SMALL
GASTEIGER

@<TRIPOS>ATOM
      1 CL         -2.2673  -19.3575   21.7024 Cl      1  UNL1       -0.0814
      2 C          -3.7615  -19.2263   21.7102 C.ar    1  UNL1        0.0682
      3 C          -4.4323  -18.3516   22.7275 C.ar    1  UNL1        0.0119
      4 C          -5.9266  -18.2205   22.7353 C.ar    1  UNL1       -0.0033
      5 C          -6.7500  -18.9640   21.7258 C.ar    1  UNL1       -0.0199
      6 C          -6.0792  -19.8386   20.7085 C.ar    1  UNL1        0.0080
      7 C          -4.5849  -19.9698   20.7006 C.ar    1  UNL1        0.0679
      8 CL         -3.9141  -20.8445   19.6833 Cl      1  UNL1       -0.0814
      9 C          -8.2442  -18.8328   21.7335 C.3     1  UNL1        0.0424
     10 C          -8.8501  -18.3699   23.0253 C.3     1  UNL1        0.0315
     11 C         -10.2965  -18.1417   23.3511 C.2     1  UNL1       -0.0289
     12 C         -11.4940  -18.3202   22.4657 C.2     1  UNL1       -0.0136
     13 C         -11.5411  -18.7709   21.0357 C.3     1  UNL1        0.0950
     14 N         -10.4021  -19.1544   20.1381 N.3     1  UNL1       -0.2935
     15 C          -8.9349  -19.1820   20.4487 C.3     1  UNL1        0.0735
     16 H         -10.4826  -18.5244   19.3399 H       1  UNL1        0.1236
@<TRIPOS>BOND
     1     1     2    1
     2     2     3   ar
     3     3     4   ar
     4     4     5   ar
     5     9     5    1
     6     9    10    1
     7    10    11    1
     8    11    12    2
     9    12    13    1
    10    13    14    1
    11    14    15    1
    12     5     6   ar
    13     6     7   ar
    14     7     8    1
    15     7     2   ar
    16    15     9    1
    17    14    16    1
