@<TRIPOS>MOLECULE
*****
 33 37 0 0 0
SMALL
GASTEIGER

@<TRIPOS>ATOM
      1 C          -8.4367  -19.5646   20.6392 C.ar    1  UNL1        0.0990
      2 C          -9.4087  -19.5094   19.4981 C.ar    1  UNL1        0.0207
      3 C         -10.7828  -18.9463   19.7099 C.ar    1  UNL1        0.0032
      4 C         -11.1848  -18.4384   21.0628 C.ar    1  UNL1        0.0207
      5 C         -12.5589  -17.8753   21.2746 C.ar    1  UNL1        0.0017
      6 C         -12.9609  -17.3674   22.6276 C.ar    1  UNL1        0.0032
      7 C         -11.9888  -17.4225   23.7687 C.ar    1  UNL1        0.0385
      8 C         -10.6148  -17.9856   23.5568 C.ar    1  UNL1        0.1559
      9 C         -10.2128  -18.4935   22.2039 C.ar    1  UNL1        0.1151
     10 N          -8.8388  -19.0566   21.9921 N.ar    1  UNL1       -0.2408
     11 C          -2.9567  -18.8753   21.7026 C.ar    1  UNL1        0.1432
     12 C          -4.0828  -17.9915   22.1508 C.ar    1  UNL1        0.0560
     13 C          -5.4953  -18.3273   21.7739 C.ar    1  UNL1        0.0846
     14 N          -5.7817  -19.5468   20.9488 N.ar    1  UNL1       -0.2872
     15 C          -7.0626  -20.1277   20.4274 C.ar    1  UNL1        0.1021
     16 C          -6.7282  -21.3704   19.6569 C.ar    1  UNL1        0.1195
     17 N          -5.2406  -21.5577   19.7022 N.ar    1  UNL1       -0.2247
     18 C          -4.6556  -20.4305   20.5007 C.ar    1  UNL1        0.1509
     19 C          -3.2432  -20.0948   20.8776 C.ar    1  UNL1        0.0743
     20 O          -1.5442  -18.5395   22.0795 O.3     1  UNL1       -0.4726
     21 C          -0.7631  -17.5552   21.2603 C.3     1  UNL1        0.2373
     22 C          -0.1202  -17.9907   19.9768 C.3     1  UNL1        0.1894
     23 C          -2.2303  -17.4125   18.5758 C.3     1  UNL1        0.1743
     24 O          -0.9570  -18.1865   18.7475 O.3     1  UNL1       -0.3471
     25 O          -9.6428  -18.0408   24.6979 O.3     1  UNL1       -0.4747
     26 C          -8.6883  -16.9063   24.9256 C.3     1  UNL1        0.2010
     27 C          -8.0709  -16.1993   23.7556 C.3     1  UNL1        0.0635
     28 C          -7.1165  -15.0647   23.9834 C.3     1  UNL1        0.0725
     29 N          -6.7794  -14.6372   25.3810 N.3     1  UNL1       -0.2950
     30 C          -7.3968  -15.3443   26.5511 C.3     1  UNL1        0.1081
     31 C          -8.3513  -16.4788   26.3234 C.3     1  UNL1        0.2161
     32 F          -8.9686  -17.1858   27.4934 F       1  UNL1       -0.2319
     33 H          -7.0408  -13.6544   25.4595 H       1  UNL1        0.1233
@<TRIPOS>BOND
     1    23    24    1
     2    24    22    1
     3    22    21    1
     4    21    20    1
     5    20    11    1
     6    11    12   ar
     7    12    13   ar
     8    13    14   ar
     9    14    15   ar
    10    15     1    1
    11     1     2   ar
    12     2     3   ar
    13     3     4   ar
    14     4     5   ar
    15     5     6   ar
    16     6     7   ar
    17     7     8   ar
    18     8    25    1
    19    26    25    1
    20    26    27    1
    21    27    28    1
    22    28    29    1
    23    29    30    1
    24    30    31    1
    25    31    32    1
    26     8     9   ar
    27     9    10   ar
    28    15    16   ar
    29    16    17   ar
    30    17    18   ar
    31    18    19   ar
    32    19    11   ar
    33    18    14   ar
    34    10     1   ar
    35     9     4   ar
    36    31    26    1
    37    29    33    1
@<TRIPOS>MOLECULE
*****
 33 37 0 0 0
SMALL
GASTEIGER

@<TRIPOS>ATOM
      1 C          -6.3313  -19.5434   20.7298 C.ar    1  UNL1        0.0990
      2 C          -5.4415  -20.7063   20.4046 C.ar    1  UNL1        0.0207
      3 C          -3.9825  -20.6536   20.7489 C.ar    1  UNL1        0.0032
      4 C          -3.4134  -19.4379   21.4185 C.ar    1  UNL1        0.0207
      5 C          -1.9544  -19.3852   21.7629 C.ar    1  UNL1        0.0017
      6 C          -1.3853  -18.1696   22.4325 C.ar    1  UNL1        0.0032
      7 C          -2.2752  -17.0067   22.7577 C.ar    1  UNL1        0.0385
      8 C          -3.7342  -17.0594   22.4133 C.ar    1  UNL1        0.1559
      9 C          -4.3033  -18.2750   21.7438 C.ar    1  UNL1        0.1151
     10 N          -5.7622  -18.3278   21.3994 N.ar    1  UNL1       -0.2408
     11 C         -11.5589  -18.8513   22.6869 C.ar    1  UNL1        0.1432
     12 C         -10.2782  -18.6783   23.4483 C.ar    1  UNL1        0.0560
     13 C          -8.9626  -18.9053   22.7645 C.ar    1  UNL1        0.0846
     14 N          -8.9277  -19.3053   21.3192 N.ar    1  UNL1       -0.2872
     15 C          -7.7904  -19.5961   20.3854 C.ar    1  UNL1        0.1021
     16 C          -8.3682  -19.9489   19.0469 C.ar    1  UNL1        0.1195
     17 N          -9.8626  -19.8761   19.1534 N.ar    1  UNL1       -0.2247
     18 C         -10.2084  -19.4783   20.5578 C.ar    1  UNL1        0.1509
     19 C         -11.5240  -19.2513   21.2416 C.ar    1  UNL1        0.0743
     20 O         -12.8745  -18.6243   23.3707 O.3     1  UNL1       -0.4726
     21 C         -13.4951  -17.2586   23.3685 C.3     1  UNL1        0.2373
     22 C         -12.7411  -16.0930   22.8003 C.3     1  UNL1        0.1894
     23 C         -11.1311  -15.7854   20.7846 C.3     1  UNL1        0.1743
     24 O         -12.5163  -15.9947   21.3205 O.3     1  UNL1       -0.3471
     25 O          -4.6240  -15.8965   22.7386 O.3     1  UNL1       -0.4747
     26 C          -5.4728  -15.9244   23.9750 C.3     1  UNL1        0.2010
     27 C          -4.8266  -15.9207   25.3286 C.3     1  UNL1        0.0635
     28 C          -5.6755  -15.9486   26.5650 C.3     1  UNL1        0.0725
     29 N          -7.1705  -15.9802   26.4478 N.3     1  UNL1       -0.2950
     30 C          -7.8168  -15.9840   25.0941 C.3     1  UNL1        0.1081
     31 C          -6.9680  -15.9560   23.8577 C.3     1  UNL1        0.2161
     32 F          -7.6142  -15.9598   22.5041 F       1  UNL1       -0.2319
     33 H          -7.5219  -15.1586   26.9396 H       1  UNL1        0.1233
@<TRIPOS>BOND
     1    23    24    1
     2    24    22    1
     3    22    21    1
     4    21    20    1
     5    20    11    1
     6    11    12   ar
     7    12    13   ar
     8    13    14   ar
     9    14    15   ar
    10    15     1    1
    11     1     2   ar
    12     2     3   ar
    13     3     4   ar
    14     4     5   ar
    15     5     6   ar
    16     6     7   ar
    17     7     8   ar
    18     8    25    1
    19    26    25    1
    20    26    27    1
    21    27    28    1
    22    28    29    1
    23    29    30    1
    24    30    31    1
    25    31    32    1
    26     8     9   ar
    27     9    10   ar
    28    15    16   ar
    29    16    17   ar
    30    17    18   ar
    31    18    19   ar
    32    19    11   ar
    33    18    14   ar
    34    10     1   ar
    35     9     4   ar
    36    31    26    1
    37    29    33    1
@<TRIPOS>MOLECULE
*****
 33 37 0 0 0
SMALL
GASTEIGER

@<TRIPOS>ATOM
      1 C          -2.4191    3.3885   25.5705 C.ar    1  UNL1        0.0990
      2 C          -3.0705    4.2126   26.6413 C.ar    1  UNL1        0.0207
      3 C          -4.4510    4.7601   26.4307 C.ar    1  UNL1        0.0032
      4 C          -5.1801    4.4835   25.1493 C.ar    1  UNL1        0.0207
      5 C          -6.5607    5.0311   24.9388 C.ar    1  UNL1        0.0017
      6 C          -7.2898    4.7546   23.6574 C.ar    1  UNL1        0.0032
      7 C          -6.6384    3.9305   22.5866 C.ar    1  UNL1        0.0385
      8 C          -5.2579    3.3830   22.7972 C.ar    1  UNL1        0.1559
      9 C          -4.5287    3.6595   24.0786 C.ar    1  UNL1        0.1151
     10 N          -3.1482    3.1120   24.2891 N.ar    1  UNL1       -0.2408
     11 C           0.8275    0.2210   28.8968 C.ar    1  UNL1        0.1432
     12 C          -0.6290    0.5282   29.0820 C.ar    1  UNL1        0.0560
     13 C          -1.3441    1.3976   28.0907 C.ar    1  UNL1        0.0846
     14 N          -0.6028    1.9599   26.9142 N.ar    1  UNL1       -0.2872
     15 C          -1.0385    2.8410   25.7811 C.ar    1  UNL1        0.1021
     16 C           0.1487    3.0783   24.8955 C.ar    1  UNL1        0.1195
     17 N           1.3181    2.3440   25.4813 N.ar    1  UNL1       -0.2247
     18 C           0.8537    1.6527   26.7289 C.ar    1  UNL1        0.1509
     19 C           1.5688    0.7833   27.7202 C.ar    1  UNL1        0.0743
     20 O           1.5426   -0.6483   29.8880 O.3     1  UNL1       -0.4726
     21 C           2.5963   -0.0599   30.7789 C.3     1  UNL1        0.2373
     22 C           3.7347   -0.9114   31.2577 C.3     1  UNL1        0.1894
     23 C           4.7231   -2.4497   33.1032 C.3     1  UNL1        0.1743
     24 O           3.5355   -1.8512   32.4097 O.3     1  UNL1       -0.3471
     25 O          -4.6065    2.5589   21.7264 O.3     1  UNL1       -0.4747
     26 C          -3.9811    3.2301   20.5397 C.3     1  UNL1        0.2010
     27 C          -2.5269    3.5970   20.5655 C.3     1  UNL1        0.0635
     28 C          -1.9015    4.2682   19.3788 C.3     1  UNL1        0.0725
     29 N          -2.7303    4.5726   18.1662 N.3     1  UNL1       -0.2950
     30 C          -4.1846    4.2057   18.1403 C.3     1  UNL1        0.1081
     31 C          -4.8100    3.5345   19.3270 C.3     1  UNL1        0.2161
     32 F          -6.2641    3.1676   19.3012 F       1  UNL1       -0.2319
     33 H          -2.2913    4.0916   17.3812 H       1  UNL1        0.1233
@<TRIPOS>BOND
     1    23    24    1
     2    24    22    1
     3    22    21    1
     4    21    20    1
     5    20    11    1
     6    11    12   ar
     7    12    13   ar
     8    13    14   ar
     9    14    15   ar
    10    15     1    1
    11     1     2   ar
    12     2     3   ar
    13     3     4   ar
    14     4     5   ar
    15     5     6   ar
    16     6     7   ar
    17     7     8   ar
    18     8    25    1
    19    26    25    1
    20    26    27    1
    21    27    28    1
    22    28    29    1
    23    29    30    1
    24    30    31    1
    25    31    32    1
    26     8     9   ar
    27     9    10   ar
    28    15    16   ar
    29    16    17   ar
    30    17    18   ar
    31    18    19   ar
    32    19    11   ar
    33    18    14   ar
    34    10     1   ar
    35     9     4   ar
    36    31    26    1
    37    29    33    1
@<TRIPOS>MOLECULE
*****
 33 37 0 0 0
SMALL
GASTEIGER

@<TRIPOS>ATOM
      1 C          -1.9531    3.3245   20.9113 C.ar    1  UNL1        0.0990
      2 C          -3.3467    3.1567   20.3825 C.ar    1  UNL1        0.0207
      3 C          -4.5178    3.2359   21.3164 C.ar    1  UNL1        0.0032
      4 C          -4.2953    3.4829   22.7791 C.ar    1  UNL1        0.0207
      5 C          -5.4665    3.5621   23.7130 C.ar    1  UNL1        0.0017
      6 C          -5.2441    3.8091   25.1757 C.ar    1  UNL1        0.0032
      7 C          -3.8504    3.9769   25.7045 C.ar    1  UNL1        0.0385
      8 C          -2.6793    3.8977   24.7706 C.ar    1  UNL1        0.1559
      9 C          -2.9017    3.6507   23.3079 C.ar    1  UNL1        0.1151
     10 N          -1.7306    3.5714   22.3740 N.ar    1  UNL1       -0.2408
     11 C           2.2059    0.0567   18.9979 C.ar    1  UNL1        0.1432
     12 C           1.1725   -0.3032   20.0238 C.ar    1  UNL1        0.0560
     13 C           0.1280    0.6981   20.4195 C.ar    1  UNL1        0.0846
     14 N           0.1170    2.0592   19.7892 N.ar    1  UNL1       -0.2872
     15 C          -0.7819    3.2452   19.9774 C.ar    1  UNL1        0.1021
     16 C          -0.3040    4.3380   19.0679 C.ar    1  UNL1        0.1195
     17 N           0.8902    3.8275   18.3175 N.ar    1  UNL1       -0.2247
     18 C           1.1505    2.4191   18.7633 C.ar    1  UNL1        0.1509
     19 C           2.1949    1.4178   18.3677 C.ar    1  UNL1        0.0743
     20 O           3.2503   -0.9446   18.6023 O.3     1  UNL1       -0.4726
     21 C           3.9660   -0.8037   17.2915 C.3     1  UNL1        0.2373
     22 C           5.3584   -0.2470   17.2533 C.3     1  UNL1        0.1894
     23 C           6.7829   -2.2076   18.1895 C.3     1  UNL1        0.1743
     24 O           6.5330   -1.1722   17.1334 O.3     1  UNL1       -0.3471
     25 O          -1.2857    4.0654   25.2994 O.3     1  UNL1       -0.4747
     26 C          -0.5404    2.8806   25.8386 C.3     1  UNL1        0.2010
     27 C          -1.0466    2.1670   27.0570 C.3     1  UNL1        0.0635
     28 C          -0.3013    0.9822   27.5961 C.3     1  UNL1        0.0725
     29 N           0.9503    0.5109   26.9169 N.3     1  UNL1       -0.2950
     30 C           1.4566    1.2245   25.6985 C.3     1  UNL1        0.1081
     31 C           0.7113    2.4093   25.1593 C.3     1  UNL1        0.2161
     32 F           1.2176    3.1229   23.9410 F       1  UNL1       -0.2319
     33 H           0.7903   -0.4590   26.6449 H       1  UNL1        0.1233
@<TRIPOS>BOND
     1    23    24    1
     2    24    22    1
     3    22    21    1
     4    21    20    1
     5    20    11    1
     6    11    12   ar
     7    12    13   ar
     8    13    14   ar
     9    14    15   ar
    10    15     1    1
    11     1     2   ar
    12     2     3   ar
    13     3     4   ar
    14     4     5   ar
    15     5     6   ar
    16     6     7   ar
    17     7     8   ar
    18     8    25    1
    19    26    25    1
    20    26    27    1
    21    27    28    1
    22    28    29    1
    23    29    30    1
    24    30    31    1
    25    31    32    1
    26     8     9   ar
    27     9    10   ar
    28    15    16   ar
    29    16    17   ar
    30    17    18   ar
    31    18    19   ar
    32    19    11   ar
    33    18    14   ar
    34    10     1   ar
    35     9     4   ar
    36    31    26    1
    37    29    33    1
@<TRIPOS>MOLECULE
*****
 33 37 0 0 0
SMALL
GASTEIGER

@<TRIPOS>ATOM
      1 C         -12.3761   -2.7483   18.4649 C.ar    1  UNL1        0.0990
      2 C         -10.9003   -2.6379   18.7095 C.ar    1  UNL1        0.0207
      3 C         -10.0244   -3.8475   18.5694 C.ar    1  UNL1        0.0032
      4 C         -10.6243   -5.1674   18.1848 C.ar    1  UNL1        0.0207
      5 C          -9.7483   -6.3770   18.0447 C.ar    1  UNL1        0.0017
      6 C         -10.3481   -7.6969   17.6601 C.ar    1  UNL1        0.0032
      7 C         -11.8240   -7.8072   17.4154 C.ar    1  UNL1        0.0385
      8 C         -12.6999   -6.5977   17.5555 C.ar    1  UNL1        0.1559
      9 C         -12.1000   -5.2778   17.9402 C.ar    1  UNL1        0.1151
     10 N         -12.9760   -4.0682   18.0802 N.ar    1  UNL1       -0.2408
     11 C         -17.4294   -0.8762   20.0765 C.ar    1  UNL1        0.1432
     12 C         -16.9359   -2.2922   20.1132 C.ar    1  UNL1        0.0560
     13 C         -15.5494   -2.6157   19.6411 C.ar    1  UNL1        0.0846
     14 N         -14.6563   -1.5233   19.1323 N.ar    1  UNL1       -0.2872
     15 C         -13.2521   -1.5387   18.6050 C.ar    1  UNL1        0.1021
     16 C         -12.8777   -0.1321   18.2424 C.ar    1  UNL1        0.1195
     17 N         -14.0505    0.7525   18.5455 N.ar    1  UNL1       -0.2247
     18 C         -15.1498   -0.1073   19.0955 C.ar    1  UNL1        0.1509
     19 C         -16.5362    0.2163   19.5676 C.ar    1  UNL1        0.0743
     20 O         -18.8158   -0.5527   20.5486 O.3     1  UNL1       -0.4726
     21 C         -19.3095    0.8634   20.5113 C.3     1  UNL1        0.2373
     22 C         -19.7607    1.5338   21.7750 C.3     1  UNL1        0.1894
     23 C         -17.4041    2.1360   22.6879 C.3     1  UNL1        0.1743
     24 O         -18.8119    1.6774   22.9279 O.3     1  UNL1       -0.3471
     25 O         -14.1757   -6.7080   17.3109 O.3     1  UNL1       -0.4747
     26 C         -14.9812   -7.7431   18.0387 C.3     1  UNL1        0.2010
     27 C         -15.0574   -9.1440   17.5079 C.3     1  UNL1        0.0635
     28 C         -15.8629  -10.1791   18.2357 C.3     1  UNL1        0.0725
     29 N         -16.5923   -9.8133   19.4943 N.3     1  UNL1       -0.2950
     30 C         -16.5161   -8.4124   20.0252 C.3     1  UNL1        0.1081
     31 C         -15.7106   -7.3773   19.2974 C.3     1  UNL1        0.2161
     32 F         -15.6344   -5.9765   19.8283 F       1  UNL1       -0.2319
     33 H         -16.2379  -10.4262   20.2286 H       1  UNL1        0.1233
@<TRIPOS>BOND
     1    23    24    1
     2    24    22    1
     3    22    21    1
     4    21    20    1
     5    20    11    1
     6    11    12   ar
     7    12    13   ar
     8    13    14   ar
     9    14    15   ar
    10    15     1    1
    11     1     2   ar
    12     2     3   ar
    13     3     4   ar
    14     4     5   ar
    15     5     6   ar
    16     6     7   ar
    17     7     8   ar
    18     8    25    1
    19    26    25    1
    20    26    27    1
    21    27    28    1
    22    28    29    1
    23    29    30    1
    24    30    31    1
    25    31    32    1
    26     8     9   ar
    27     9    10   ar
    28    15    16   ar
    29    16    17   ar
    30    17    18   ar
    31    18    19   ar
    32    19    11   ar
    33    18    14   ar
    34    10     1   ar
    35     9     4   ar
    36    31    26    1
    37    29    33    1
@<TRIPOS>MOLECULE
*****
 33 37 0 0 0
SMALL
GASTEIGER

@<TRIPOS>ATOM
      1 C          -0.3975    2.5787   20.6407 C.ar    1  UNL1        0.0990
      2 C           0.0526    3.2986   19.4042 C.ar    1  UNL1        0.0207
      3 C          -0.9470    4.0235   18.5526 C.ar    1  UNL1        0.0032
      4 C          -2.3967    4.0285   18.9375 C.ar    1  UNL1        0.0207
      5 C          -3.3963    4.7534   18.0858 C.ar    1  UNL1        0.0017
      6 C          -4.8461    4.7585   18.4707 C.ar    1  UNL1        0.0032
      7 C          -5.2963    4.0385   19.7073 C.ar    1  UNL1        0.0385
      8 C          -4.2967    3.3136   20.5589 C.ar    1  UNL1        0.1559
      9 C          -2.8469    3.3086   20.1740 C.ar    1  UNL1        0.1151
     10 N          -1.8473    2.5837   21.0256 N.ar    1  UNL1       -0.2408
     11 C           3.2646   -1.6861   20.8337 C.ar    1  UNL1        0.1432
     12 C           2.3988   -1.2897   19.6748 C.ar    1  UNL1        0.0560
     13 C           1.4723   -0.1164   19.7976 C.ar    1  UNL1        0.0846
     14 N           1.4117    0.6605   21.0793 N.ar    1  UNL1       -0.2872
     15 C           0.6021    1.8538   21.4924 C.ar    1  UNL1        0.1021
     16 C           0.9676    2.1948   22.9066 C.ar    1  UNL1        0.1195
     17 N           2.0030    1.2124   23.3676 N.ar    1  UNL1       -0.2247
     18 C           2.2775    0.2640   22.2382 C.ar    1  UNL1        0.1509
     19 C           3.2039   -0.9092   22.1155 C.ar    1  UNL1        0.0743
     20 O           4.1910   -2.8593   20.7109 O.3     1  UNL1       -0.4726
     21 C           5.4303   -2.7519   19.8725 C.3     1  UNL1        0.2373
     22 C           5.3863   -3.1180   18.4186 C.3     1  UNL1        0.1894
     23 C           5.5341   -0.6218   17.7139 C.3     1  UNL1        0.1743
     24 O           5.2141   -2.0488   17.3808 O.3     1  UNL1       -0.3471
     25 O          -4.7468    2.5937   21.7955 O.3     1  UNL1       -0.4747
     26 C          -4.9211    3.3474   23.0806 C.3     1  UNL1        0.2010
     27 C          -3.8124    3.3744   24.0905 C.3     1  UNL1        0.0635
     28 C          -3.9867    4.1281   25.3757 C.3     1  UNL1        0.0725
     29 N          -5.2697    4.8548   25.6509 N.3     1  UNL1       -0.2950
     30 C          -6.3785    4.8279   24.6409 C.3     1  UNL1        0.1081
     31 C          -6.2042    4.0742   23.3558 C.3     1  UNL1        0.2161
     32 F          -7.3129    4.0472   22.3458 F       1  UNL1       -0.2319
     33 H          -5.0276    5.8350   25.7962 H       1  UNL1        0.1233
@<TRIPOS>BOND
     1    23    24    1
     2    24    22    1
     3    22    21    1
     4    21    20    1
     5    20    11    1
     6    11    12   ar
     7    12    13   ar
     8    13    14   ar
     9    14    15   ar
    10    15     1    1
    11     1     2   ar
    12     2     3   ar
    13     3     4   ar
    14     4     5   ar
    15     5     6   ar
    16     6     7   ar
    17     7     8   ar
    18     8    25    1
    19    26    25    1
    20    26    27    1
    21    27    28    1
    22    28    29    1
    23    29    30    1
    24    30    31    1
    25    31    32    1
    26     8     9   ar
    27     9    10   ar
    28    15    16   ar
    29    16    17   ar
    30    17    18   ar
    31    18    19   ar
    32    19    11   ar
    33    18    14   ar
    34    10     1   ar
    35     9     4   ar
    36    31    26    1
    37    29    33    1
@<TRIPOS>MOLECULE
*****
 33 37 0 0 0
SMALL
GASTEIGER

@<TRIPOS>ATOM
      1 C           8.2789   -5.0476   22.4196 C.ar    1  UNL1        0.0990
      2 C           9.5331   -4.7706   21.6449 C.ar    1  UNL1        0.0207
      3 C           9.4967   -3.8459   20.4645 C.ar    1  UNL1        0.0032
      4 C           8.2060   -3.1981   20.0587 C.ar    1  UNL1        0.0207
      5 C           8.1696   -2.2733   18.8782 C.ar    1  UNL1        0.0017
      6 C           6.8790   -1.6256   18.4724 C.ar    1  UNL1        0.0032
      7 C           5.6247   -1.9026   19.2472 C.ar    1  UNL1        0.0385
      8 C           5.6612   -2.8273   20.4276 C.ar    1  UNL1        0.1559
      9 C           6.9518   -3.4751   20.8334 C.ar    1  UNL1        0.1151
     10 N           6.9883   -4.3998   22.0138 N.ar    1  UNL1       -0.2408
     11 C           6.9378   -5.6492   27.8488 C.ar    1  UNL1        0.1432
     12 C           6.6941   -4.4473   26.9852 C.ar    1  UNL1        0.0560
     13 C           7.1199   -4.4584   25.5469 C.ar    1  UNL1        0.0846
     14 N           7.7893   -5.6716   24.9723 N.ar    1  UNL1       -0.2872
     15 C           8.3153   -5.9724   23.6001 C.ar    1  UNL1        0.1021
     16 C           8.8841   -7.3602   23.6157 C.ar    1  UNL1        0.1195
     17 N           8.7096   -7.9172   24.9975 N.ar    1  UNL1       -0.2247
     18 C           8.0329   -6.8735   25.8359 C.ar    1  UNL1        0.1509
     19 C           7.6072   -6.8624   27.2741 C.ar    1  UNL1        0.0743
     20 O           6.5121   -5.6381   29.2870 O.3     1  UNL1       -0.4726
     21 C           7.5344   -5.7978   30.3731 C.3     1  UNL1        0.2373
     22 C           8.4001   -4.6371   30.7648 C.3     1  UNL1        0.1894
     23 C           6.4903   -3.6556   32.2273 C.3     1  UNL1        0.1743
     24 O           7.8177   -3.4974   31.5470 O.3     1  UNL1       -0.3471
     25 O           4.4070   -3.1043   21.2023 O.3     1  UNL1       -0.4747
     26 C           4.0070   -2.2000   22.3303 C.3     1  UNL1        0.2010
     27 C           4.5942   -2.3997   23.6960 C.3     1  UNL1        0.0635
     28 C           4.1942   -1.4954   24.8240 C.3     1  UNL1        0.0725
     29 N           3.2070   -0.3914   24.5862 N.3     1  UNL1       -0.2950
     30 C           2.6198   -0.1916   23.2204 C.3     1  UNL1        0.1081
     31 C           3.0198   -1.0959   22.0924 C.3     1  UNL1        0.2161
     32 F           2.4326   -0.8962   20.7267 F       1  UNL1       -0.2319
     33 H           3.6742    0.4802   24.8362 H       1  UNL1        0.1233
@<TRIPOS>BOND
     1    23    24    1
     2    24    22    1
     3    22    21    1
     4    21    20    1
     5    20    11    1
     6    11    12   ar
     7    12    13   ar
     8    13    14   ar
     9    14    15   ar
    10    15     1    1
    11     1     2   ar
    12     2     3   ar
    13     3     4   ar
    14     4     5   ar
    15     5     6   ar
    16     6     7   ar
    17     7     8   ar
    18     8    25    1
    19    26    25    1
    20    26    27    1
    21    27    28    1
    22    28    29    1
    23    29    30    1
    24    30    31    1
    25    31    32    1
    26     8     9   ar
    27     9    10   ar
    28    15    16   ar
    29    16    17   ar
    30    17    18   ar
    31    18    19   ar
    32    19    11   ar
    33    18    14   ar
    34    10     1   ar
    35     9     4   ar
    36    31    26    1
    37    29    33    1
@<TRIPOS>MOLECULE
*****
 33 37 0 0 0
SMALL
GASTEIGER

@<TRIPOS>ATOM
      1 C          -8.9171  -19.4455   20.6263 C.ar    1  UNL1        0.0990
      2 C         -10.2763  -19.9852   20.2927 C.ar    1  UNL1        0.0207
      3 C         -11.5053  -19.2604   20.7555 C.ar    1  UNL1        0.0032
      4 C         -11.3751  -17.9960   21.5519 C.ar    1  UNL1        0.0207
      5 C         -12.6042  -17.2712   22.0147 C.ar    1  UNL1        0.0017
      6 C         -12.4740  -16.0068   22.8111 C.ar    1  UNL1        0.0032
      7 C         -11.1147  -15.4671   23.1447 C.ar    1  UNL1        0.0385
      8 C          -9.8857  -16.1919   22.6819 C.ar    1  UNL1        0.1559
      9 C         -10.0159  -17.4563   21.8855 C.ar    1  UNL1        0.1151
     10 N          -8.7869  -18.1810   21.4227 N.ar    1  UNL1       -0.2408
     11 C          -3.3017  -19.6338   20.8888 C.ar    1  UNL1        0.1432
     12 C          -4.2062  -18.6511   21.5714 C.ar    1  UNL1        0.0560
     13 C          -5.6921  -18.7481   21.3902 C.ar    1  UNL1        0.0846
     14 N          -6.2734  -19.8278   20.5263 N.ar    1  UNL1       -0.2872
     15 C          -7.6880  -20.1702   20.1635 C.ar    1  UNL1        0.1021
     16 C          -7.6577  -21.3646   19.2565 C.ar    1  UNL1        0.1195
     17 N          -6.2244  -21.7604   19.0589 N.ar    1  UNL1       -0.2247
     18 C          -5.3688  -20.8105   19.8437 C.ar    1  UNL1        0.1509
     19 C          -3.8831  -20.7135   20.0249 C.ar    1  UNL1        0.0743
     20 O          -1.8159  -19.5368   21.0700 O.3     1  UNL1       -0.4726
     21 C          -0.9919  -18.7450   20.0983 C.3     1  UNL1        0.2373
     22 C          -0.5630  -17.3492   20.4416 C.3     1  UNL1        0.1894
     23 C          -2.3671  -15.9665   21.6999 C.3     1  UNL1        0.1743
     24 O          -1.0589  -16.7003   21.6997 O.3     1  UNL1       -0.3471
     25 O          -8.5266  -15.6522   23.0155 O.3     1  UNL1       -0.4747
     26 C          -7.9953  -15.7697   24.4133 C.3     1  UNL1        0.2010
     27 C          -8.8764  -16.2917   25.5092 C.3     1  UNL1        0.0635
     28 C          -8.3452  -16.4092   26.9070 C.3     1  UNL1        0.0725
     29 N          -6.9327  -16.0047   27.2090 N.3     1  UNL1       -0.2950
     30 C          -6.0514  -15.4826   26.1131 C.3     1  UNL1        0.1081
     31 C          -6.5827  -15.3651   24.7153 C.3     1  UNL1        0.2161
     32 F          -5.7015  -14.8430   23.6194 F       1  UNL1       -0.2319
     33 H          -6.4673  -16.8261   27.5950 H       1  UNL1        0.1233
@<TRIPOS>BOND
     1    23    24    1
     2    24    22    1
     3    22    21    1
     4    21    20    1
     5    20    11    1
     6    11    12   ar
     7    12    13   ar
     8    13    14   ar
     9    14    15   ar
    10    15     1    1
    11     1     2   ar
    12     2     3   ar
    13     3     4   ar
    14     4     5   ar
    15     5     6   ar
    16     6     7   ar
    17     7     8   ar
    18     8    25    1
    19    26    25    1
    20    26    27    1
    21    27    28    1
    22    28    29    1
    23    29    30    1
    24    30    31    1
    25    31    32    1
    26     8     9   ar
    27     9    10   ar
    28    15    16   ar
    29    16    17   ar
    30    17    18   ar
    31    18    19   ar
    32    19    11   ar
    33    18    14   ar
    34    10     1   ar
    35     9     4   ar
    36    31    26    1
    37    29    33    1
@<TRIPOS>MOLECULE
*****
 33 37 0 0 0
SMALL
GASTEIGER

@<TRIPOS>ATOM
      1 C           7.2348   -3.2305   20.7034 C.ar    1  UNL1        0.0990
      2 C           8.3319   -2.7610   19.7947 C.ar    1  UNL1        0.0207
      3 C           8.0200   -1.8281   18.6623 C.ar    1  UNL1        0.0032
      4 C           6.6110   -1.3648   18.4386 C.ar    1  UNL1        0.0207
      5 C           6.2992   -0.4319   17.3060 C.ar    1  UNL1        0.0017
      6 C           4.8902    0.0314   17.0823 C.ar    1  UNL1        0.0032
      7 C           3.7930   -0.4382   17.9911 C.ar    1  UNL1        0.0385
      8 C           4.1049   -1.3710   19.1235 C.ar    1  UNL1        0.1559
      9 C           5.5139   -1.8343   19.3473 C.ar    1  UNL1        0.1151
     10 N           5.8258   -2.7672   20.4797 N.ar    1  UNL1       -0.2408
     11 C           6.7723   -4.0713   26.2457 C.ar    1  UNL1        0.1432
     12 C           6.2712   -2.8925   25.4652 C.ar    1  UNL1        0.0560
     13 C           6.4823   -2.8309   23.9814 C.ar    1  UNL1        0.0846
     14 N           7.1945   -3.9481   23.2781 N.ar    1  UNL1       -0.2872
     15 C           7.5466   -4.1634   21.8360 C.ar    1  UNL1        0.1021
     16 C           8.2653   -5.4754   21.7252 C.ar    1  UNL1        0.1195
     17 N           8.3573   -6.0709   23.0988 N.ar    1  UNL1       -0.2247
     18 C           7.6955   -5.1269   24.0586 C.ar    1  UNL1        0.1509
     19 C           7.4845   -5.1886   25.5423 C.ar    1  UNL1        0.0743
     20 O           6.5612   -4.1330   27.7294 O.3     1  UNL1       -0.4726
     21 C           6.4688   -5.4618   28.4193 C.3     1  UNL1        0.2373
     22 C           7.7074   -6.1161   28.9556 C.3     1  UNL1        0.1894
     23 C           6.9929   -5.5208   31.3815 C.3     1  UNL1        0.1743
     24 O           7.9075   -6.2425   30.4368 O.3     1  UNL1       -0.3471
     25 O           3.0077   -1.8406   20.0322 O.3     1  UNL1       -0.4747
     26 C           2.4606   -0.9220   21.0843 C.3     1  UNL1        0.2010
     27 C           3.0820   -0.8904   22.4491 C.3     1  UNL1        0.0635
     28 C           2.5348    0.0282   23.5012 C.3     1  UNL1        0.0725
     29 N           1.3663    0.9151   23.1884 N.3     1  UNL1       -0.2950
     30 C           0.7449    0.8835   21.8235 C.3     1  UNL1        0.1081
     31 C           1.2920   -0.0350   20.7715 C.3     1  UNL1        0.2161
     32 F           0.6707   -0.0667   19.4066 F       1  UNL1       -0.2319
     33 H           1.6731    1.8744   23.3501 H       1  UNL1        0.1233
@<TRIPOS>BOND
     1    23    24    1
     2    24    22    1
     3    22    21    1
     4    21    20    1
     5    20    11    1
     6    11    12   ar
     7    12    13   ar
     8    13    14   ar
     9    14    15   ar
    10    15     1    1
    11     1     2   ar
    12     2     3   ar
    13     3     4   ar
    14     4     5   ar
    15     5     6   ar
    16     6     7   ar
    17     7     8   ar
    18     8    25    1
    19    26    25    1
    20    26    27    1
    21    27    28    1
    22    28    29    1
    23    29    30    1
    24    30    31    1
    25    31    32    1
    26     8     9   ar
    27     9    10   ar
    28    15    16   ar
    29    16    17   ar
    30    17    18   ar
    31    18    19   ar
    32    19    11   ar
    33    18    14   ar
    34    10     1   ar
    35     9     4   ar
    36    31    26    1
    37    29    33    1
