@<TRIPOS>MOLECULE
*****
 26 29 0 0 0
SMALL
GASTEIGER

@<TRIPOS>ATOM
      1 C           8.1753   -2.7156   19.9525 C.3     1  UNL1        0.1363
      2 N           6.8134   -2.0926   19.8674 N.ar    1  UNL1       -0.2667
      3 C           6.0749   -1.7298   21.1216 C.ar    1  UNL1        0.2036
      4 N           4.7131   -1.1067   21.0364 N.ar    1  UNL1       -0.2148
      5 C           4.0898   -0.8465   19.6972 C.ar    1  UNL1        0.0890
      6 C           4.8283   -1.2092   18.4430 C.ar    1  UNL1        0.0800
      7 C           6.1901   -1.8323   18.5281 C.ar    1  UNL1        0.2645
      8 O           6.9287   -2.1950   17.2739 O.2     1  UNL1       -0.2668
      9 N           6.6982   -1.9901   22.4609 N.pl3   1  UNL1       -0.2740
     10 C           7.2605   -0.8522   23.2604 C.3     1  UNL1        0.1257
     11 C           7.8837   -1.1125   24.5997 C.3     1  UNL1        0.1640
     12 O           7.9447   -2.5107   25.1396 O.3     1  UNL1       -0.3483
     13 C           7.3824   -3.6485   24.3401 C.3     1  UNL1        0.1572
     14 C           6.7592   -3.3882   23.0008 C.3     1  UNL1        0.1276
     15 C           7.4434   -5.0467   24.8800 C.ar    1  UNL1        0.0062
     16 C           6.8814   -5.3519   26.2369 C.ar    1  UNL1       -0.0019
     17 C           6.9424   -6.7501   26.7767 C.ar    1  UNL1       -0.0002
     18 C           7.5653   -7.8430   25.9597 C.ar    1  UNL1       -0.0000
     19 C           8.1273   -7.5378   24.6029 C.ar    1  UNL1       -0.0002
     20 C           8.0663   -6.1396   24.0630 C.ar    1  UNL1       -0.0019
     21 C           2.7280   -0.2234   19.6120 C.ar    1  UNL1        0.0210
     22 C           2.3853    0.6761   18.4617 C.ar    1  UNL1        0.0222
     23 C           1.0235    1.2992   18.3765 C.ar    1  UNL1        0.0989
     24 N           0.0043    1.0227   19.4418 N.ar    1  UNL1       -0.2423
     25 C           0.3469    0.1231   20.5921 C.ar    1  UNL1        0.0989
     26 C           1.7088   -0.4999   20.6773 C.ar    1  UNL1        0.0222
@<TRIPOS>BOND
     1     1     2    1
     2     2     3   ar
     3     3     9    1
     4     9    10    1
     5    10    11    1
     6    11    12    1
     7    12    13    1
     8    13    15    1
     9    15    16   ar
    10    16    17   ar
    11    17    18   ar
    12    18    19   ar
    13    19    20   ar
    14    13    14    1
    15     3     4   ar
    16     4     5   ar
    17     5    21    1
    18    21    22   ar
    19    22    23   ar
    20    23    24   ar
    21    24    25   ar
    22    25    26   ar
    23     5     6   ar
    24     6     7   ar
    25     7     8    2
    26     7     2   ar
    27    14     9    1
    28    26    21   ar
    29    20    15   ar
@<TRIPOS>MOLECULE
*****
 26 29 0 0 0
SMALL
GASTEIGER

@<TRIPOS>ATOM
      1 C          -5.0145  -16.6546   23.5245 C.3     1  UNL1        0.1363
      2 N          -6.4966  -16.8819   23.5646 N.ar    1  UNL1       -0.2667
      3 C          -7.1092  -17.9810   22.7481 C.ar    1  UNL1        0.2036
      4 N          -8.5913  -18.2083   22.7882 N.ar    1  UNL1       -0.2148
      5 C          -9.4609  -17.3364   23.6447 C.ar    1  UNL1        0.0890
      6 C          -8.8483  -16.2373   24.4611 C.ar    1  UNL1        0.0800
      7 C          -7.3662  -16.0100   24.4211 C.ar    1  UNL1        0.2645
      8 O          -6.7536  -14.9108   25.2375 O.2     1  UNL1       -0.2668
      9 N          -6.2396  -18.8530   21.8916 N.pl3   1  UNL1       -0.2740
     10 C          -6.6951  -20.2331   21.5206 C.3     1  UNL1        0.1257
     11 C          -5.8255  -21.1051   20.6641 C.3     1  UNL1        0.1640
     12 O          -4.5004  -20.5968   20.1785 O.3     1  UNL1       -0.3483
     13 C          -4.0449  -19.2165   20.5495 C.3     1  UNL1        0.1572
     14 C          -4.9145  -18.3447   21.4060 C.3     1  UNL1        0.1276
     15 C          -2.7199  -18.7082   20.0639 C.ar    1  UNL1        0.0062
     16 C          -1.5513  -18.6448   21.0023 C.ar    1  UNL1       -0.0019
     17 C          -0.2262  -18.1365   20.5167 C.ar    1  UNL1       -0.0002
     18 C          -0.0697  -17.6916   19.0927 C.ar    1  UNL1       -0.0000
     19 C          -1.2382  -17.7551   18.1544 C.ar    1  UNL1       -0.0002
     20 C          -2.5633  -18.2634   18.6400 C.ar    1  UNL1       -0.0019
     21 C         -10.9430  -17.5637   23.6848 C.ar    1  UNL1        0.0210
     22 C         -11.5236  -18.5582   24.6459 C.ar    1  UNL1        0.0222
     23 C         -13.0057  -18.7855   24.6860 C.ar    1  UNL1        0.0989
     24 N         -13.9073  -18.0183   23.7649 N.ar    1  UNL1       -0.2423
     25 C         -13.3268  -17.0238   22.8038 C.ar    1  UNL1        0.0989
     26 C         -11.8446  -16.7965   22.7637 C.ar    1  UNL1        0.0222
@<TRIPOS>BOND
     1     1     2    1
     2     2     3   ar
     3     3     9    1
     4     9    10    1
     5    10    11    1
     6    11    12    1
     7    12    13    1
     8    13    15    1
     9    15    16   ar
    10    16    17   ar
    11    17    18   ar
    12    18    19   ar
    13    19    20   ar
    14    13    14    1
    15     3     4   ar
    16     4     5   ar
    17     5    21    1
    18    21    22   ar
    19    22    23   ar
    20    23    24   ar
    21    24    25   ar
    22    25    26   ar
    23     5     6   ar
    24     6     7   ar
    25     7     8    2
    26     7     2   ar
    27    14     9    1
    28    26    21   ar
    29    20    15   ar
@<TRIPOS>MOLECULE
*****
 26 29 0 0 0
SMALL
GASTEIGER

@<TRIPOS>ATOM
      1 C          -7.8315  -16.3261   24.1904 C.3     1  UNL1        0.1363
      2 N          -6.5566  -16.7152   23.5026 N.ar    1  UNL1       -0.2667
      3 C          -6.5875  -17.6839   22.3578 C.ar    1  UNL1        0.2036
      4 N          -5.3126  -18.0730   21.6700 N.ar    1  UNL1       -0.2148
      5 C          -4.0067  -17.4933   22.1269 C.ar    1  UNL1        0.0890
      6 C          -3.9759  -16.5246   23.2716 C.ar    1  UNL1        0.0800
      7 C          -5.2508  -16.1355   23.9595 C.ar    1  UNL1        0.2645
      8 O          -5.2199  -15.1667   25.1043 O.2     1  UNL1       -0.2668
      9 N          -7.8934  -18.2636   21.9008 N.pl3   1  UNL1       -0.2740
     10 C          -7.9708  -19.0027   20.5979 C.3     1  UNL1        0.1257
     11 C          -9.2767  -19.5824   20.1409 C.3     1  UNL1        0.1640
     12 O         -10.5050  -19.4229   20.9870 O.3     1  UNL1       -0.3483
     13 C         -10.4275  -18.6838   22.2900 C.3     1  UNL1        0.1572
     14 C          -9.1217  -18.1042   22.7469 C.3     1  UNL1        0.1276
     15 C         -11.6558  -18.5244   23.1360 C.ar    1  UNL1        0.0062
     16 C         -12.8888  -17.8959   22.5572 C.ar    1  UNL1       -0.0019
     17 C         -14.1171  -17.7365   23.4033 C.ar    1  UNL1       -0.0002
     18 C         -14.1125  -18.2055   24.8281 C.ar    1  UNL1       -0.0000
     19 C         -12.8796  -18.8340   25.4068 C.ar    1  UNL1       -0.0002
     20 C         -11.6513  -18.9934   24.5608 C.ar    1  UNL1       -0.0019
     21 C          -2.7318  -17.8824   21.4390 C.ar    1  UNL1        0.0210
     22 C          -2.4349  -19.3282   21.1717 C.ar    1  UNL1        0.0222
     23 C          -1.1600  -19.7173   20.4838 C.ar    1  UNL1        0.0989
     24 N          -0.1820  -18.6606   20.0633 N.ar    1  UNL1       -0.2423
     25 C          -0.4789  -17.2149   20.3306 C.ar    1  UNL1        0.0989
     26 C          -1.7538  -16.8258   21.0185 C.ar    1  UNL1        0.0222
@<TRIPOS>BOND
     1     1     2    1
     2     2     3   ar
     3     3     9    1
     4     9    10    1
     5    10    11    1
     6    11    12    1
     7    12    13    1
     8    13    15    1
     9    15    16   ar
    10    16    17   ar
    11    17    18   ar
    12    18    19   ar
    13    19    20   ar
    14    13    14    1
    15     3     4   ar
    16     4     5   ar
    17     5    21    1
    18    21    22   ar
    19    22    23   ar
    20    23    24   ar
    21    24    25   ar
    22    25    26   ar
    23     5     6   ar
    24     6     7   ar
    25     7     8    2
    26     7     2   ar
    27    14     9    1
    28    26    21   ar
    29    20    15   ar
@<TRIPOS>MOLECULE
*****
 26 29 0 0 0
SMALL
GASTEIGER

@<TRIPOS>ATOM
      1 C         -11.5449   -1.1977   17.6841 C.3     1  UNL1        0.1363
      2 N         -12.8765   -0.8913   18.3029 N.ar    1  UNL1       -0.2667
      3 C         -13.6771   -1.9877   18.9410 C.ar    1  UNL1        0.2036
      4 N         -15.0087   -1.6813   19.5598 N.ar    1  UNL1       -0.2148
      5 C         -15.5398   -0.2787   19.5405 C.ar    1  UNL1        0.0890
      6 C         -14.7393    0.8176   18.9024 C.ar    1  UNL1        0.0800
      7 C         -13.4076    0.5113   18.2836 C.ar    1  UNL1        0.2645
      8 O         -12.6071    1.6077   17.6455 O.2     1  UNL1       -0.2668
      9 N         -13.1460   -3.3904   18.9603 N.pl3   1  UNL1       -0.2740
     10 C         -11.6696   -3.6320   19.0697 C.3     1  UNL1        0.1257
     11 C         -11.1385   -5.0347   19.0890 C.3     1  UNL1        0.1640
     12 O         -12.0838   -6.1959   18.9988 O.3     1  UNL1       -0.3483
     13 C         -13.5603   -5.9543   18.8894 C.3     1  UNL1        0.1572
     14 C         -14.0913   -4.5516   18.8701 C.3     1  UNL1        0.1276
     15 C         -14.5056   -7.1154   18.7992 C.ar    1  UNL1        0.0062
     16 C         -14.0956   -8.3616   18.0717 C.ar    1  UNL1       -0.0019
     17 C         -15.0409   -9.5227   17.9816 C.ar    1  UNL1       -0.0002
     18 C         -16.3962   -9.4377   18.6188 C.ar    1  UNL1       -0.0000
     19 C         -16.8061   -8.1916   19.3462 C.ar    1  UNL1       -0.0002
     20 C         -15.8608   -7.0304   19.4364 C.ar    1  UNL1       -0.0019
     21 C         -16.8714    0.0277   20.1593 C.ar    1  UNL1        0.0210
     22 C         -18.0274   -0.9053   19.9515 C.ar    1  UNL1        0.0222
     23 C         -19.3591   -0.5989   20.5703 C.ar    1  UNL1        0.0989
     24 N         -19.5347    0.6403   21.3969 N.ar    1  UNL1       -0.2423
     25 C         -18.3787    1.5732   21.6047 C.ar    1  UNL1        0.0989
     26 C         -17.0470    1.2669   20.9859 C.ar    1  UNL1        0.0222
@<TRIPOS>BOND
     1     1     2    1
     2     2     3   ar
     3     3     9    1
     4     9    10    1
     5    10    11    1
     6    11    12    1
     7    12    13    1
     8    13    15    1
     9    15    16   ar
    10    16    17   ar
    11    17    18   ar
    12    18    19   ar
    13    19    20   ar
    14    13    14    1
    15     3     4   ar
    16     4     5   ar
    17     5    21    1
    18    21    22   ar
    19    22    23   ar
    20    23    24   ar
    21    24    25   ar
    22    25    26   ar
    23     5     6   ar
    24     6     7   ar
    25     7     8    2
    26     7     2   ar
    27    14     9    1
    28    26    21   ar
    29    20    15   ar
@<TRIPOS>MOLECULE
*****
 26 29 0 0 0
SMALL
GASTEIGER

@<TRIPOS>ATOM
      1 C           0.3020    6.0464   18.1996 C.3     1  UNL1        0.1363
      2 N           0.8774    4.6652   18.3058 N.ar    1  UNL1       -0.2667
      3 C          -0.0289    3.4705   18.2714 C.ar    1  UNL1        0.2036
      4 N           0.5466    2.0893   18.3776 N.ar    1  UNL1       -0.2148
      5 C           2.0282    1.9029   18.5183 C.ar    1  UNL1        0.0890
      6 C           2.9345    3.0976   18.5528 C.ar    1  UNL1        0.0800
      7 C           2.3591    4.4788   18.4465 C.ar    1  UNL1        0.2645
      8 O           3.2654    5.6736   18.4810 O.2     1  UNL1       -0.2668
      9 N          -1.5106    3.6569   18.1306 N.pl3   1  UNL1       -0.2740
     10 C          -2.1227    3.7983   16.7686 C.3     1  UNL1        0.1257
     11 C          -3.6045    3.9847   16.6279 C.3     1  UNL1        0.1640
     12 O          -4.4741    4.0297   17.8493 O.3     1  UNL1       -0.3483
     13 C          -3.8619    3.8883   19.2114 C.3     1  UNL1        0.1572
     14 C          -2.3802    3.7019   19.3521 C.3     1  UNL1        0.1276
     15 C          -4.7314    3.9333   20.4328 C.ar    1  UNL1        0.0062
     16 C          -4.2926    3.2456   21.6916 C.ar    1  UNL1       -0.0019
     17 C          -5.1621    3.2905   22.9130 C.ar    1  UNL1       -0.0002
     18 C          -6.4705    4.0233   22.8756 C.ar    1  UNL1       -0.0000
     19 C          -6.9093    4.7109   21.6169 C.ar    1  UNL1       -0.0002
     20 C          -6.0397    4.6659   20.3954 C.ar    1  UNL1       -0.0019
     21 C           2.6036    0.5217   18.6245 C.ar    1  UNL1        0.0210
     22 C           3.5513    0.0213   17.5751 C.ar    1  UNL1        0.0222
     23 C           4.1267   -1.3599   17.6813 C.ar    1  UNL1        0.0989
     24 N           3.7544   -2.2406   18.8370 N.ar    1  UNL1       -0.2423
     25 C           2.8068   -1.7402   19.8865 C.ar    1  UNL1        0.0989
     26 C           2.2314   -0.3590   19.7802 C.ar    1  UNL1        0.0222
@<TRIPOS>BOND
     1     1     2    1
     2     2     3   ar
     3     3     9    1
     4     9    10    1
     5    10    11    1
     6    11    12    1
     7    12    13    1
     8    13    15    1
     9    15    16   ar
    10    16    17   ar
    11    17    18   ar
    12    18    19   ar
    13    19    20   ar
    14    13    14    1
    15     3     4   ar
    16     4     5   ar
    17     5    21    1
    18    21    22   ar
    19    22    23   ar
    20    23    24   ar
    21    24    25   ar
    22    25    26   ar
    23     5     6   ar
    24     6     7   ar
    25     7     8    2
    26     7     2   ar
    27    14     9    1
    28    26    21   ar
    29    20    15   ar
@<TRIPOS>MOLECULE
*****
 26 29 0 0 0
SMALL
GASTEIGER

@<TRIPOS>ATOM
      1 C           8.3215   -7.4101   24.2327 C.3     1  UNL1        0.1363
      2 N           7.9790   -6.6547   25.4825 N.ar    1  UNL1       -0.2667
      3 C           7.7853   -5.1681   25.4310 C.ar    1  UNL1        0.2036
      4 N           7.4428   -4.4127   26.6808 N.ar    1  UNL1       -0.2148
      5 C           7.2939   -5.1438   27.9821 C.ar    1  UNL1        0.0890
      6 C           7.4876   -6.6303   28.0335 C.ar    1  UNL1        0.0800
      7 C           7.8301   -7.3858   26.7837 C.ar    1  UNL1        0.2645
      8 O           8.0238   -8.8724   26.8352 O.2     1  UNL1       -0.2668
      9 N           7.9341   -4.4370   24.1297 N.pl3   1  UNL1       -0.2740
     10 C           9.2758   -3.9103   23.7146 C.3     1  UNL1        0.1257
     11 C           9.4247   -3.1791   22.4133 C.3     1  UNL1        0.1640
     12 O           8.2317   -2.9747   21.5272 O.3     1  UNL1       -0.3483
     13 C           6.8900   -3.5014   21.9424 C.3     1  UNL1        0.1572
     14 C           6.7412   -4.2325   23.2436 C.3     1  UNL1        0.1276
     15 C           5.6971   -3.2970   21.0563 C.ar    1  UNL1        0.0062
     16 C           4.6933   -2.2314   21.3838 C.ar    1  UNL1       -0.0019
     17 C           3.5004   -2.0270   20.4977 C.ar    1  UNL1       -0.0002
     18 C           3.3112   -2.8881   19.2841 C.ar    1  UNL1       -0.0000
     19 C           4.3149   -3.9536   18.9567 C.ar    1  UNL1       -0.0002
     20 C           5.5079   -4.1580   19.8428 C.ar    1  UNL1       -0.0019
     21 C           6.9514   -4.3884   29.2319 C.ar    1  UNL1        0.0210
     22 C           6.4762   -2.9684   29.1435 C.ar    1  UNL1        0.0222
     23 C           6.1337   -2.2130   30.3933 C.ar    1  UNL1        0.0989
     24 N           6.2663   -2.8775   31.7315 N.ar    1  UNL1       -0.2423
     25 C           6.7415   -4.2975   31.8198 C.ar    1  UNL1        0.0989
     26 C           7.0840   -5.0529   30.5700 C.ar    1  UNL1        0.0222
@<TRIPOS>BOND
     1     1     2    1
     2     2     3   ar
     3     3     9    1
     4     9    10    1
     5    10    11    1
     6    11    12    1
     7    12    13    1
     8    13    15    1
     9    15    16   ar
    10    16    17   ar
    11    17    18   ar
    12    18    19   ar
    13    19    20   ar
    14    13    14    1
    15     3     4   ar
    16     4     5   ar
    17     5    21    1
    18    21    22   ar
    19    22    23   ar
    20    23    24   ar
    21    24    25   ar
    22    25    26   ar
    23     5     6   ar
    24     6     7   ar
    25     7     8    2
    26     7     2   ar
    27    14     9    1
    28    26    21   ar
    29    20    15   ar
@<TRIPOS>MOLECULE
*****
 26 29 0 0 0
SMALL
GASTEIGER

@<TRIPOS>ATOM
      1 C           1.3387    2.7573   18.5549 C.3     1  UNL1        0.1363
      2 N          -0.0097    2.9875   19.1704 N.ar    1  UNL1       -0.2667
      3 C          -0.2651    2.5799   20.5911 C.ar    1  UNL1        0.2036
      4 N          -1.6135    2.8100   21.2066 N.ar    1  UNL1       -0.2148
      5 C          -2.7065    3.4478   20.4014 C.ar    1  UNL1        0.0890
      6 C          -2.4511    3.8555   18.9806 C.ar    1  UNL1        0.0800
      7 C          -1.1027    3.6253   18.3651 C.ar    1  UNL1        0.2645
      8 O          -0.8473    4.0330   16.9443 O.2     1  UNL1       -0.2668
      9 N           0.8279    1.9420   21.3965 N.pl3   1  UNL1       -0.2740
     10 C           1.3293    2.6103   22.6423 C.3     1  UNL1        0.1257
     11 C           2.4223    1.9724   23.4476 C.3     1  UNL1        0.1640
     12 O           3.0140    0.6664   23.0071 O.3     1  UNL1       -0.3483
     13 C           2.5126   -0.0019   21.7612 C.3     1  UNL1        0.1572
     14 C           1.4196    0.6359   20.9559 C.3     1  UNL1        0.1276
     15 C           3.1043   -1.3080   21.3207 C.ar    1  UNL1        0.0062
     16 C           3.8919   -2.1393   22.2895 C.ar    1  UNL1       -0.0019
     17 C           4.4836   -3.4454   21.8490 C.ar    1  UNL1       -0.0002
     18 C           4.2876   -3.9201   20.4396 C.ar    1  UNL1       -0.0000
     19 C           3.5000   -3.0888   19.4708 C.ar    1  UNL1       -0.0002
     20 C           2.9084   -1.7827   19.9114 C.ar    1  UNL1       -0.0019
     21 C          -4.0549    3.6780   21.0168 C.ar    1  UNL1        0.0210
     22 C          -5.1934    4.1629   20.1691 C.ar    1  UNL1        0.0222
     23 C          -6.5418    4.3931   20.7846 C.ar    1  UNL1        0.0989
     24 N          -6.7517    4.1384   22.2478 N.ar    1  UNL1       -0.2423
     25 C          -5.6133    3.6534   23.0955 C.ar    1  UNL1        0.0989
     26 C          -4.2648    3.4233   22.4800 C.ar    1  UNL1        0.0222
@<TRIPOS>BOND
     1     1     2    1
     2     2     3   ar
     3     3     9    1
     4     9    10    1
     5    10    11    1
     6    11    12    1
     7    12    13    1
     8    13    15    1
     9    15    16   ar
    10    16    17   ar
    11    17    18   ar
    12    18    19   ar
    13    19    20   ar
    14    13    14    1
    15     3     4   ar
    16     4     5   ar
    17     5    21    1
    18    21    22   ar
    19    22    23   ar
    20    23    24   ar
    21    24    25   ar
    22    25    26   ar
    23     5     6   ar
    24     6     7   ar
    25     7     8    2
    26     7     2   ar
    27    14     9    1
    28    26    21   ar
    29    20    15   ar
@<TRIPOS>MOLECULE
*****
 26 29 0 0 0
SMALL
GASTEIGER

@<TRIPOS>ATOM
      1 C           6.2127   -3.3154   31.8937 C.3     1  UNL1        0.1363
      2 N           6.5050   -3.8811   30.5356 N.ar    1  UNL1       -0.2667
      3 C           6.3873   -3.0110   29.3195 C.ar    1  UNL1        0.2036
      4 N           6.6795   -3.5768   27.9613 N.ar    1  UNL1       -0.2148
      5 C           7.0896   -5.0126   27.8193 C.ar    1  UNL1        0.0890
      6 C           7.2074   -5.8827   29.0355 C.ar    1  UNL1        0.0800
      7 C           6.9151   -5.3169   30.3936 C.ar    1  UNL1        0.2645
      8 O           7.0329   -6.1871   31.6098 O.2     1  UNL1       -0.2668
      9 N           5.9772   -1.5751   29.4614 N.pl3   1  UNL1       -0.2740
     10 C           7.0013   -0.5326   29.7995 C.3     1  UNL1        0.1257
     11 C           6.5912    0.9033   29.9414 C.3     1  UNL1        0.1640
     12 O           5.1570    1.2966   29.7453 O.3     1  UNL1       -0.3483
     13 C           4.1329    0.2540   29.4073 C.3     1  UNL1        0.1572
     14 C           4.5430   -1.1818   29.2653 C.3     1  UNL1        0.1276
     15 C           2.6987    0.6472   29.2112 C.ar    1  UNL1        0.0062
     16 C           1.6547   -0.4077   28.9936 C.ar    1  UNL1       -0.0019
     17 C           0.2206   -0.0145   28.7975 C.ar    1  UNL1       -0.0002
     18 C          -0.1697    1.4338   28.8190 C.ar    1  UNL1       -0.0000
     19 C           0.8743    2.4887   29.0366 C.ar    1  UNL1       -0.0002
     20 C           2.3084    2.0954   29.2326 C.ar    1  UNL1       -0.0019
     21 C           7.3819   -5.5783   26.4612 C.ar    1  UNL1        0.0210
     22 C           7.3764   -4.6822   25.2584 C.ar    1  UNL1        0.0222
     23 C           7.6687   -5.2479   23.9003 C.ar    1  UNL1        0.0989
     24 N           7.9665   -6.7098   23.7449 N.ar    1  UNL1       -0.2423
     25 C           7.9719   -7.6059   24.9478 C.ar    1  UNL1        0.0989
     26 C           7.6796   -7.0402   26.3059 C.ar    1  UNL1        0.0222
@<TRIPOS>BOND
     1     1     2    1
     2     2     3   ar
     3     3     9    1
     4     9    10    1
     5    10    11    1
     6    11    12    1
     7    12    13    1
     8    13    15    1
     9    15    16   ar
    10    16    17   ar
    11    17    18   ar
    12    18    19   ar
    13    19    20   ar
    14    13    14    1
    15     3     4   ar
    16     4     5   ar
    17     5    21    1
    18    21    22   ar
    19    22    23   ar
    20    23    24   ar
    21    24    25   ar
    22    25    26   ar
    23     5     6   ar
    24     6     7   ar
    25     7     8    2
    26     7     2   ar
    27    14     9    1
    28    26    21   ar
    29    20    15   ar
@<TRIPOS>MOLECULE
*****
 26 29 0 0 0
SMALL
GASTEIGER

@<TRIPOS>ATOM
      1 C           0.6530    2.6241   20.8999 C.3     1  UNL1        0.1363
      2 N           1.4620    1.3752   20.7110 N.ar    1  UNL1       -0.2667
      3 C           2.3128    0.8561   21.8319 C.ar    1  UNL1        0.2036
      4 N           3.1219   -0.3928   21.6430 N.ar    1  UNL1       -0.2148
      5 C           3.0801   -1.1226   20.3332 C.ar    1  UNL1        0.0890
      6 C           2.2292   -0.6034   19.2123 C.ar    1  UNL1        0.0800
      7 C           1.4202    0.6455   19.4012 C.ar    1  UNL1        0.2645
      8 O           0.5693    1.1646   18.2802 O.2     1  UNL1       -0.2668
      9 N           2.3547    1.5859   23.1418 N.pl3   1  UNL1       -0.2740
     10 C           3.1136    2.8744   23.2586 C.3     1  UNL1        0.1257
     11 C           3.1555    3.6041   24.5685 C.3     1  UNL1        0.1640
     12 O           2.4383    3.0453   25.7616 O.3     1  UNL1       -0.3483
     13 C           1.6794    1.7567   25.6448 C.3     1  UNL1        0.1572
     14 C           1.6376    1.0270   24.3349 C.3     1  UNL1        0.1276
     15 C           0.9622    1.1979   26.8378 C.ar    1  UNL1        0.0062
     16 C           1.7214    0.4242   27.8747 C.ar    1  UNL1       -0.0019
     17 C           1.0043   -0.1346   29.0678 C.ar    1  UNL1       -0.0002
     18 C          -0.4720    0.0803   29.2240 C.ar    1  UNL1       -0.0000
     19 C          -1.2312    0.8539   28.1871 C.ar    1  UNL1       -0.0002
     20 C          -0.5140    1.4127   26.9940 C.ar    1  UNL1       -0.0019
     21 C           3.8891   -2.3715   20.1443 C.ar    1  UNL1        0.0210
     22 C           5.2192   -2.5133   20.8231 C.ar    1  UNL1        0.0222
     23 C           6.0282   -3.7622   20.6342 C.ar    1  UNL1        0.0989
     24 N           5.5072   -4.8693   19.7666 N.ar    1  UNL1       -0.2423
     25 C           4.1771   -4.7275   19.0878 C.ar    1  UNL1        0.0989
     26 C           3.3681   -3.4786   19.2767 C.ar    1  UNL1        0.0222
@<TRIPOS>BOND
     1     1     2    1
     2     2     3   ar
     3     3     9    1
     4     9    10    1
     5    10    11    1
     6    11    12    1
     7    12    13    1
     8    13    15    1
     9    15    16   ar
    10    16    17   ar
    11    17    18   ar
    12    18    19   ar
    13    19    20   ar
    14    13    14    1
    15     3     4   ar
    16     4     5   ar
    17     5    21    1
    18    21    22   ar
    19    22    23   ar
    20    23    24   ar
    21    24    25   ar
    22    25    26   ar
    23     5     6   ar
    24     6     7   ar
    25     7     8    2
    26     7     2   ar
    27    14     9    1
    28    26    21   ar
    29    20    15   ar
