@<TRIPOS>MOLECULE
*****
 28 32 0 0 0
SMALL
GASTEIGER

@<TRIPOS>ATOM
      1 C          -7.8034  -18.9063   20.5991 C.3     1  UNL1        0.0771
      2 C          -7.9754  -17.9177   21.7140 C.3     1  UNL1        0.0289
      3 C          -6.6553  -17.7705   22.4108 C.3     1  UNL1        0.0453
      4 C          -6.4370  -16.8618   23.5841 C.ar    1  UNL1       -0.0223
      5 C          -7.6955  -16.1355   23.9564 C.ar    1  UNL1       -0.0043
      6 C          -7.6939  -15.1739   25.1075 C.ar    1  UNL1       -0.0003
      7 C          -6.4337  -14.9384   25.8863 C.ar    1  UNL1       -0.0003
      8 C          -5.1752  -15.6647   25.5140 C.ar    1  UNL1       -0.0046
      9 C          -5.1768  -16.6263   24.3629 C.ar    1  UNL1       -0.0255
     10 C          -3.8238  -17.2415   24.1608 C.3     1  UNL1        0.0307
     11 C          -3.3966  -18.2440   23.1300 C.3     1  UNL1        0.0307
     12 C          -4.2172  -18.8790   22.0467 C.ar    1  UNL1       -0.0258
     13 C          -3.4714  -19.8501   21.1791 C.ar    1  UNL1       -0.0046
     14 C          -4.1427  -20.5732   20.0492 C.ar    1  UNL1       -0.0006
     15 C          -5.5955  -20.3332   19.7632 C.ar    1  UNL1       -0.0033
     16 C          -6.3770  -19.3702   20.6069 C.ar    1  UNL1       -0.0119
     17 C          -5.6674  -18.6683   21.7266 C.ar    1  UNL1       -0.0250
     18 N          -8.8705  -19.3527   19.6441 N.3     1  UNL1       -0.2959
     19 H          -8.6844  -18.8869   18.7560 H       1  UNL1        0.1235
     20 C         -11.0497  -17.9782   19.3101 C.3     1  UNL1        0.0174
     21 C         -10.3151  -19.1093   19.9664 C.3     1  UNL1        0.0586
     22 C         -11.0250  -19.9971   20.9451 C.3     1  UNL1        0.0420
     23 C         -10.9149  -19.7299   22.4169 C.ar    1  UNL1       -0.0208
     24 C         -11.8199  -18.7254   23.0665 C.ar    1  UNL1       -0.0042
     25 C         -11.7099  -18.4581   24.5385 C.ar    1  UNL1       -0.0003
     26 C         -10.6948  -19.1954   25.3607 C.ar    1  UNL1       -0.0000
     27 C          -9.7898  -20.1999   24.7111 C.ar    1  UNL1       -0.0003
     28 C          -9.8999  -20.4671   23.2393 C.ar    1  UNL1       -0.0042
@<TRIPOS>BOND
     1    20    21    1
     2    21    22    1
     3    22    23    1
     4    23    24   ar
     5    24    25   ar
     6    25    26   ar
     7    26    27   ar
     8    27    28   ar
     9    21    18    1
    10    18     1    1
    11     1     2    1
    12     2     3    1
    13     3     4    1
    14     4     5   ar
    15     5     6   ar
    16     6     7   ar
    17     7     8   ar
    18     8     9   ar
    19     9    10    1
    20    10    11    1
    21    11    12    1
    22    12    13   ar
    23    13    14   ar
    24    14    15   ar
    25    15    16   ar
    26    16    17   ar
    27    28    23   ar
    28    16     1    1
    29    17     3    1
    30     9     4   ar
    31    17    12   ar
    32    18    19    1
@<TRIPOS>MOLECULE
*****
 28 32 0 0 0
SMALL
GASTEIGER

@<TRIPOS>ATOM
      1 C          -6.0877  -18.1248   22.6278 C.3     1  UNL1        0.0771
      2 C          -7.4278  -17.4610   22.7433 C.3     1  UNL1        0.0289
      3 C          -8.3374  -18.0717   21.7187 C.3     1  UNL1        0.0453
      4 C          -9.7679  -17.6600   21.5335 C.ar    1  UNL1       -0.0223
      5 C         -10.1549  -16.5756   22.4948 C.ar    1  UNL1       -0.0043
      6 C         -11.5477  -16.0190   22.4764 C.ar    1  UNL1       -0.0003
      7 C         -12.5534  -16.5468   21.4967 C.ar    1  UNL1       -0.0003
      8 C         -12.1664  -17.6313   20.5354 C.ar    1  UNL1       -0.0046
      9 C         -10.7736  -18.1879   20.5538 C.ar    1  UNL1       -0.0255
     10 C         -10.5972  -19.2578   19.5174 C.3     1  UNL1        0.0307
     11 C          -9.3717  -20.0642   19.2046 C.3     1  UNL1        0.0307
     12 C          -8.0197  -19.9996   19.8512 C.ar    1  UNL1       -0.0258
     13 C          -7.0076  -20.9557   19.2912 C.ar    1  UNL1       -0.0046
     14 C          -5.6068  -21.0210   19.8238 C.ar    1  UNL1       -0.0006
     15 C          -5.1876  -20.1160   20.9441 C.ar    1  UNL1       -0.0033
     16 C          -6.1690  -19.1457   21.5319 C.ar    1  UNL1       -0.0119
     17 C          -7.5593  -19.1129   20.9701 C.ar    1  UNL1       -0.0250
     18 N          -4.8785  -17.8210   23.4618 N.3     1  UNL1       -0.2959
     19 H          -5.1703  -17.8832   24.4372 H       1  UNL1        0.1235
     20 C          -2.8574  -16.4465   22.5807 C.3     1  UNL1        0.0174
     21 C          -4.1696  -16.5084   23.3049 C.3     1  UNL1        0.0586
     22 C          -4.7729  -15.2577   23.8720 C.3     1  UNL1        0.0420
     23 C          -5.8678  -15.3494   24.8931 C.ar    1  UNL1       -0.0208
     24 C          -5.5416  -15.7097   26.3122 C.ar    1  UNL1       -0.0042
     25 C          -6.6365  -15.8014   27.3334 C.ar    1  UNL1       -0.0003
     26 C          -8.0576  -15.5327   26.9355 C.ar    1  UNL1       -0.0000
     27 C          -8.3838  -15.1723   25.5164 C.ar    1  UNL1       -0.0003
     28 C          -7.2889  -15.0806   24.4953 C.ar    1  UNL1       -0.0042
@<TRIPOS>BOND
     1    20    21    1
     2    21    22    1
     3    22    23    1
     4    23    24   ar
     5    24    25   ar
     6    25    26   ar
     7    26    27   ar
     8    27    28   ar
     9    21    18    1
    10    18     1    1
    11     1     2    1
    12     2     3    1
    13     3     4    1
    14     4     5   ar
    15     5     6   ar
    16     6     7   ar
    17     7     8   ar
    18     8     9   ar
    19     9    10    1
    20    10    11    1
    21    11    12    1
    22    12    13   ar
    23    13    14   ar
    24    14    15   ar
    25    15    16   ar
    26    16    17   ar
    27    28    23   ar
    28    16     1    1
    29    17     3    1
    30     9     4   ar
    31    17    12   ar
    32    18    19    1
@<TRIPOS>MOLECULE
*****
 28 32 0 0 0
SMALL
GASTEIGER

@<TRIPOS>ATOM
      1 C          -8.8861  -16.2695   23.7680 C.3     1  UNL1        0.0771
      2 C          -7.7561  -17.1387   23.3013 C.3     1  UNL1        0.0289
      3 C          -8.2315  -17.9171   22.1104 C.3     1  UNL1        0.0453
      4 C          -7.3729  -18.8976   21.3678 C.ar    1  UNL1       -0.0223
      5 C          -6.0015  -18.9899   21.9683 C.ar    1  UNL1       -0.0043
      6 C          -4.9832  -19.9168   21.3736 C.ar    1  UNL1       -0.0003
      7 C          -5.3362  -20.7514   20.1782 C.ar    1  UNL1       -0.0003
      8 C          -6.7076  -20.6591   19.5777 C.ar    1  UNL1       -0.0046
      9 C          -7.7259  -19.7322   20.1725 C.ar    1  UNL1       -0.0255
     10 C          -9.0248  -19.7924   19.4246 C.3     1  UNL1        0.0307
     11 C         -10.2914  -19.0330   19.6873 C.3     1  UNL1        0.0307
     12 C         -10.5719  -18.0257   20.7628 C.ar    1  UNL1       -0.0258
     13 C         -11.9577  -17.4502   20.7407 C.ar    1  UNL1       -0.0046
     14 C         -12.4029  -16.4300   21.7462 C.ar    1  UNL1       -0.0006
     15 C         -11.4539  -15.9604   22.8086 C.ar    1  UNL1       -0.0033
     16 C         -10.0597  -16.5108   22.8656 C.ar    1  UNL1       -0.0119
     17 C          -9.6552  -17.5291   21.8412 C.ar    1  UNL1       -0.0250
     18 N          -8.8489  -15.3249   24.9326 N.3     1  UNL1       -0.2959
     19 H          -8.6006  -14.4083   24.5604 H       1  UNL1        0.1235
     20 C          -8.4044  -16.3812   27.2643 C.3     1  UNL1        0.0174
     21 C          -7.9245  -15.5897   26.0839 C.3     1  UNL1        0.0586
     22 C          -6.5204  -15.0631   26.0548 C.3     1  UNL1        0.0420
     23 C          -5.5033  -15.6890   25.1471 C.ar    1  UNL1       -0.0208
     24 C          -5.2319  -15.0901   23.7989 C.ar    1  UNL1       -0.0042
     25 C          -4.2148  -15.7159   22.8912 C.ar    1  UNL1       -0.0003
     26 C          -3.4690  -16.9406   23.3318 C.ar    1  UNL1       -0.0000
     27 C          -3.7404  -17.5395   24.6800 C.ar    1  UNL1       -0.0003
     28 C          -4.7575  -16.9137   25.5877 C.ar    1  UNL1       -0.0042
@<TRIPOS>BOND
     1    20    21    1
     2    21    22    1
     3    22    23    1
     4    23    24   ar
     5    24    25   ar
     6    25    26   ar
     7    26    27   ar
     8    27    28   ar
     9    21    18    1
    10    18     1    1
    11     1     2    1
    12     2     3    1
    13     3     4    1
    14     4     5   ar
    15     5     6   ar
    16     6     7   ar
    17     7     8   ar
    18     8     9   ar
    19     9    10    1
    20    10    11    1
    21    11    12    1
    22    12    13   ar
    23    13    14   ar
    24    14    15   ar
    25    15    16   ar
    26    16    17   ar
    27    28    23   ar
    28    16     1    1
    29    17     3    1
    30     9     4   ar
    31    17    12   ar
    32    18    19    1
@<TRIPOS>MOLECULE
*****
 28 32 0 0 0
SMALL
GASTEIGER

@<TRIPOS>ATOM
      1 C          -6.1667  -16.7221   23.4748 C.3     1  UNL1        0.0771
      2 C          -7.3361  -17.1818   22.6556 C.3     1  UNL1        0.0289
      3 C          -6.8677  -18.2906   21.7604 C.3     1  UNL1        0.0453
      4 C          -7.7629  -19.0041   20.7912 C.ar    1  UNL1       -0.0223
      5 C          -9.1624  -18.4666   20.8399 C.ar    1  UNL1       -0.0043
      6 C         -10.2192  -19.0444   19.9460 C.ar    1  UNL1       -0.0003
      7 C          -9.8765  -20.1597   19.0033 C.ar    1  UNL1       -0.0003
      8 C          -8.4770  -20.6972   18.9545 C.ar    1  UNL1       -0.0046
      9 C          -7.4202  -20.1194   19.8484 C.ar    1  UNL1       -0.0255
     10 C          -6.0977  -20.7965   19.6422 C.3     1  UNL1        0.0307
     11 C          -4.7913  -20.5257   20.3277 C.3     1  UNL1        0.0307
     12 C          -4.4847  -19.5108   21.3888 C.ar    1  UNL1       -0.0258
     13 C          -3.0606  -19.5050   21.8621 C.ar    1  UNL1       -0.0046
     14 C          -2.5859  -18.5526   22.9193 C.ar    1  UNL1       -0.0006
     15 C          -3.5434  -17.5735   23.5312 C.ar    1  UNL1       -0.0033
     16 C          -4.9756  -17.5467   23.0860 C.ar    1  UNL1       -0.0119
     17 C          -5.4088  -18.5160   22.0265 C.ar    1  UNL1       -0.0250
     18 N          -6.1852  -15.6296   24.5025 N.3     1  UNL1       -0.2959
     19 H          -5.2910  -15.6702   24.9915 H       1  UNL1        0.1235
     20 C          -6.8894  -15.7984   26.9977 C.3     1  UNL1        0.0174
     21 C          -7.2537  -15.6080   25.5551 C.3     1  UNL1        0.0586
     22 C          -8.6865  -15.3961   25.1651 C.3     1  UNL1        0.0420
     23 C          -9.5327  -16.5645   24.7545 C.ar    1  UNL1       -0.0208
     24 C         -10.5475  -16.4081   23.6610 C.ar    1  UNL1       -0.0042
     25 C         -11.3938  -17.5765   23.2503 C.ar    1  UNL1       -0.0003
     26 C         -11.2253  -18.9014   23.9333 C.ar    1  UNL1       -0.0000
     27 C         -10.2105  -19.0579   25.0268 C.ar    1  UNL1       -0.0003
     28 C          -9.3643  -17.8895   25.4374 C.ar    1  UNL1       -0.0042
@<TRIPOS>BOND
     1    20    21    1
     2    21    22    1
     3    22    23    1
     4    23    24   ar
     5    24    25   ar
     6    25    26   ar
     7    26    27   ar
     8    27    28   ar
     9    21    18    1
    10    18     1    1
    11     1     2    1
    12     2     3    1
    13     3     4    1
    14     4     5   ar
    15     5     6   ar
    16     6     7   ar
    17     7     8   ar
    18     8     9   ar
    19     9    10    1
    20    10    11    1
    21    11    12    1
    22    12    13   ar
    23    13    14   ar
    24    14    15   ar
    25    15    16   ar
    26    16    17   ar
    27    28    23   ar
    28    16     1    1
    29    17     3    1
    30     9     4   ar
    31    17    12   ar
    32    18    19    1
@<TRIPOS>MOLECULE
*****
 28 32 0 0 0
SMALL
GASTEIGER

@<TRIPOS>ATOM
      1 C         -13.4772   -6.7061   18.9975 C.3     1  UNL1        0.0771
      2 C         -14.4922   -5.6041   19.0708 C.3     1  UNL1        0.0289
      3 C         -13.7623   -4.2958   18.9953 C.3     1  UNL1        0.0453
      4 C         -14.4489   -2.9629   19.0385 C.ar    1  UNL1       -0.0223
      5 C         -15.9356   -3.1161   19.1651 C.ar    1  UNL1       -0.0043
      6 C         -16.8123   -1.9005   19.2256 C.ar    1  UNL1       -0.0003
      7 C         -16.2023   -0.5317   19.1595 C.ar    1  UNL1       -0.0003
      8 C         -14.7155   -0.3786   19.0329 C.ar    1  UNL1       -0.0046
      9 C         -13.8388   -1.5941   18.9725 C.ar    1  UNL1       -0.0255
     10 C         -12.3915   -1.2204   18.8468 C.3     1  UNL1        0.0307
     11 C         -11.1969   -2.1229   18.7563 C.3     1  UNL1        0.0307
     12 C         -11.1545   -3.6223   18.7690 C.ar    1  UNL1       -0.0258
     13 C          -9.7799   -4.2143   18.6599 C.ar    1  UNL1       -0.0046
     14 C          -9.5594   -5.6980   18.6575 C.ar    1  UNL1       -0.0006
     15 C         -10.7294   -6.6303   18.7658 C.ar    1  UNL1       -0.0033
     16 C         -12.1200   -6.0789   18.8767 C.ar    1  UNL1       -0.0119
     17 C         -12.2962   -4.5894   18.8753 C.ar    1  UNL1       -0.0250
     18 N         -13.7683   -8.1770   19.0379 N.3     1  UNL1       -0.2959
     19 H         -12.8694   -8.6565   18.9886 H       1  UNL1        0.1235
     20 C         -14.5852   -8.3090   16.5751 C.3     1  UNL1        0.0174
     21 C         -14.6475   -8.7966   17.9923 C.3     1  UNL1        0.0586
     22 C         -15.5888   -9.9037   18.3638 C.3     1  UNL1        0.0420
     23 C         -16.9968   -9.5857   18.7716 C.ar    1  UNL1       -0.0208
     24 C         -18.1478  -10.2364   18.0632 C.ar    1  UNL1       -0.0042
     25 C         -19.5560   -9.9185   18.4709 C.ar    1  UNL1       -0.0003
     26 C         -19.8130   -8.9499   19.5872 C.ar    1  UNL1       -0.0000
     27 C         -18.6620   -8.2993   20.2956 C.ar    1  UNL1       -0.0003
     28 C         -17.2540   -8.6172   19.8878 C.ar    1  UNL1       -0.0042
@<TRIPOS>BOND
     1    20    21    1
     2    21    22    1
     3    22    23    1
     4    23    24   ar
     5    24    25   ar
     6    25    26   ar
     7    26    27   ar
     8    27    28   ar
     9    21    18    1
    10    18     1    1
    11     1     2    1
    12     2     3    1
    13     3     4    1
    14     4     5   ar
    15     5     6   ar
    16     6     7   ar
    17     7     8   ar
    18     8     9   ar
    19     9    10    1
    20    10    11    1
    21    11    12    1
    22    12    13   ar
    23    13    14   ar
    24    14    15   ar
    25    15    16   ar
    26    16    17   ar
    27    28    23   ar
    28    16     1    1
    29    17     3    1
    30     9     4   ar
    31    17    12   ar
    32    18    19    1
@<TRIPOS>MOLECULE
*****
 28 32 0 0 0
SMALL
GASTEIGER

@<TRIPOS>ATOM
      1 C         -13.2563   -3.7121   19.5977 C.3     1  UNL1        0.0771
      2 C         -13.4666   -5.1745   19.3384 C.3     1  UNL1        0.0289
      3 C         -14.9440   -5.4271   19.2796 C.3     1  UNL1        0.0453
      4 C         -15.5418   -6.7810   19.0355 C.ar    1  UNL1       -0.0223
      5 C         -14.4796   -7.8258   18.8620 C.ar    1  UNL1       -0.0043
      6 C         -14.8657   -9.2527   18.6072 C.ar    1  UNL1       -0.0003
      7 C         -16.3140   -9.6347   18.5259 C.ar    1  UNL1       -0.0003
      8 C         -17.3761   -8.5899   18.6994 C.ar    1  UNL1       -0.0046
      9 C         -16.9900   -7.1631   18.9542 C.ar    1  UNL1       -0.0255
     10 C         -18.1982   -6.2855   19.0969 C.3     1  UNL1        0.0307
     11 C         -18.2565   -4.8092   19.3561 C.3     1  UNL1        0.0307
     12 C         -17.1210   -3.8458   19.5366 C.ar    1  UNL1       -0.0258
     13 C         -17.5343   -2.4243   19.7827 C.ar    1  UNL1       -0.0046
     14 C         -16.5239   -1.3341   19.9844 C.ar    1  UNL1       -0.0006
     15 C         -15.0587   -1.6524   19.9426 C.ar    1  UNL1       -0.0033
     16 C         -14.6038   -3.0609   19.6992 C.ar    1  UNL1       -0.0119
     17 C         -15.6468   -4.1208   19.5026 C.ar    1  UNL1       -0.0250
     18 N         -11.9313   -3.0221   19.7320 N.3     1  UNL1       -0.2959
     19 H         -12.0774   -2.2210   20.3462 H       1  UNL1        0.1235
     20 C         -11.5943   -1.1730   17.9383 C.3     1  UNL1        0.0174
     21 C         -11.2257   -2.5091   18.5117 C.3     1  UNL1        0.0586
     22 C         -10.1515   -3.3323   17.8649 C.3     1  UNL1        0.0420
     23 C         -10.2452   -4.8293   17.8751 C.ar    1  UNL1       -0.0208
     24 C         -10.9953   -5.5411   16.7884 C.ar    1  UNL1       -0.0042
     25 C         -11.0891   -7.0382   16.7985 C.ar    1  UNL1       -0.0003
     26 C         -10.4327   -7.8234   17.8953 C.ar    1  UNL1       -0.0000
     27 C          -9.6827   -7.1115   18.9819 C.ar    1  UNL1       -0.0003
     28 C          -9.5890   -5.6145   18.9718 C.ar    1  UNL1       -0.0042
@<TRIPOS>BOND
     1    20    21    1
     2    21    22    1
     3    22    23    1
     4    23    24   ar
     5    24    25   ar
     6    25    26   ar
     7    26    27   ar
     8    27    28   ar
     9    21    18    1
    10    18     1    1
    11     1     2    1
    12     2     3    1
    13     3     4    1
    14     4     5   ar
    15     5     6   ar
    16     6     7   ar
    17     7     8   ar
    18     8     9   ar
    19     9    10    1
    20    10    11    1
    21    11    12    1
    22    12    13   ar
    23    13    14   ar
    24    14    15   ar
    25    15    16   ar
    26    16    17   ar
    27    28    23   ar
    28    16     1    1
    29    17     3    1
    30     9     4   ar
    31    17    12   ar
    32    18    19    1
@<TRIPOS>MOLECULE
*****
 28 32 0 0 0
SMALL
GASTEIGER

@<TRIPOS>ATOM
      1 C         -14.8821   -2.9313   20.1336 C.3     1  UNL1        0.0771
      2 C         -13.4668   -3.3532   19.8714 C.3     1  UNL1        0.0289
      3 C         -13.4888   -4.7709   19.3818 C.3     1  UNL1        0.0453
      4 C         -12.2529   -5.5377   19.0148 C.ar    1  UNL1       -0.0223
      5 C         -11.0175   -4.7077   19.2013 C.ar    1  UNL1       -0.0043
      6 C          -9.6700   -5.2882   18.8897 C.ar    1  UNL1       -0.0003
      7 C          -9.5579   -6.6986   18.3916 C.ar    1  UNL1       -0.0003
      8 C         -10.7933   -7.5286   18.2052 C.ar    1  UNL1       -0.0046
      9 C         -12.1408   -6.9481   18.5168 C.ar    1  UNL1       -0.0255
     10 C         -13.2370   -7.9401   18.2628 C.3     1  UNL1        0.0307
     11 C         -14.7158   -7.7668   18.4440 C.3     1  UNL1        0.0307
     12 C         -15.4639   -6.5584   18.9241 C.ar    1  UNL1       -0.0258
     13 C         -16.9539   -6.7247   18.9885 C.ar    1  UNL1       -0.0046
     14 C         -17.8512   -5.6136   19.4471 C.ar    1  UNL1       -0.0006
     15 C         -17.2637   -4.2954   19.8559 C.ar    1  UNL1       -0.0033
     16 C         -15.7789   -4.0883   19.8061 C.ar    1  UNL1       -0.0119
     17 C         -14.9178   -5.2251   19.3415 C.ar    1  UNL1       -0.0250
     18 N         -15.3233   -1.5883   20.6352 N.3     1  UNL1       -0.2959
     19 H         -16.0436   -1.7582   21.3371 H       1  UNL1        0.1235
     20 C         -17.3634   -0.3655   19.5898 C.3     1  UNL1        0.0174
     21 C         -15.8810   -0.5765   19.6785 C.3     1  UNL1        0.0586
     22 C         -14.9563    0.2244   18.8106 C.3     1  UNL1        0.0420
     23 C         -13.8709   -0.4630   18.0364 C.ar    1  UNL1       -0.0208
     24 C         -14.2228   -1.3630   16.8892 C.ar    1  UNL1       -0.0042
     25 C         -13.1375   -2.0505   16.1149 C.ar    1  UNL1       -0.0003
     26 C         -11.7002   -1.8380   16.4880 C.ar    1  UNL1       -0.0000
     27 C         -11.3482   -0.9380   17.6353 C.ar    1  UNL1       -0.0003
     28 C         -12.4336   -0.2505   18.4094 C.ar    1  UNL1       -0.0042
@<TRIPOS>BOND
     1    20    21    1
     2    21    22    1
     3    22    23    1
     4    23    24   ar
     5    24    25   ar
     6    25    26   ar
     7    26    27   ar
     8    27    28   ar
     9    21    18    1
    10    18     1    1
    11     1     2    1
    12     2     3    1
    13     3     4    1
    14     4     5   ar
    15     5     6   ar
    16     6     7   ar
    17     7     8   ar
    18     8     9   ar
    19     9    10    1
    20    10    11    1
    21    11    12    1
    22    12    13   ar
    23    13    14   ar
    24    14    15   ar
    25    15    16   ar
    26    16    17   ar
    27    28    23   ar
    28    16     1    1
    29    17     3    1
    30     9     4   ar
    31    17    12   ar
    32    18    19    1
@<TRIPOS>MOLECULE
*****
 28 32 0 0 0
SMALL
GASTEIGER

@<TRIPOS>ATOM
      1 C         -15.6317   -3.5064   19.8950 C.3     1  UNL1        0.0771
      2 C         -14.5739   -4.5537   19.7098 C.3     1  UNL1        0.0289
      3 C         -13.3500   -3.8839   19.1588 C.3     1  UNL1        0.0453
      4 C         -12.0794   -4.6155   18.8421 C.ar    1  UNL1       -0.0223
      5 C         -12.1995   -6.0794   19.1464 C.ar    1  UNL1       -0.0043
      6 C         -11.0367   -6.9944   18.9006 C.ar    1  UNL1       -0.0003
      7 C          -9.7537   -6.4455   18.3504 C.ar    1  UNL1       -0.0003
      8 C          -9.6336   -4.9816   18.0461 C.ar    1  UNL1       -0.0046
      9 C         -10.7964   -4.0667   18.2919 C.ar    1  UNL1       -0.0255
     10 C         -10.4673   -2.6506   17.9225 C.3     1  UNL1        0.0307
     11 C         -11.3397   -1.4337   18.0120 C.3     1  UNL1        0.0307
     12 C         -12.7568   -1.3323   18.4931 C.ar    1  UNL1       -0.0258
     13 C         -13.3389    0.0503   18.4506 C.ar    1  UNL1       -0.0046
     14 C         -14.7442    0.3271   18.8961 C.ar    1  UNL1       -0.0006
     15 C         -15.6055   -0.7927   19.4000 C.ar    1  UNL1       -0.0033
     16 C         -15.0617   -2.1895   19.4584 C.ar    1  UNL1       -0.0119
     17 C         -13.6516   -2.4227   19.0034 C.ar    1  UNL1       -0.0250
     18 N         -17.0165   -3.7359   20.4238 N.3     1  UNL1       -0.2959
     19 H         -16.9474   -4.4815   21.1164 H       1  UNL1        0.1235
     20 C         -18.7855   -3.0687   18.6418 C.3     1  UNL1        0.0174
     21 C         -18.1238   -4.1169   19.4864 C.3     1  UNL1        0.0586
     22 C         -18.5694   -5.5462   19.3936 C.3     1  UNL1        0.0420
     23 C         -17.5689   -6.6267   19.1080 C.ar    1  UNL1       -0.0208
     24 C         -16.7244   -6.5587   17.8702 C.ar    1  UNL1       -0.0042
     25 C         -15.7239   -7.6392   17.5846 C.ar    1  UNL1       -0.0003
     26 C         -15.5680   -8.7877   18.5368 C.ar    1  UNL1       -0.0000
     27 C         -16.4125   -8.8557   19.7746 C.ar    1  UNL1       -0.0003
     28 C         -17.4129   -7.7752   20.0602 C.ar    1  UNL1       -0.0042
@<TRIPOS>BOND
     1    20    21    1
     2    21    22    1
     3    22    23    1
     4    23    24   ar
     5    24    25   ar
     6    25    26   ar
     7    26    27   ar
     8    27    28   ar
     9    21    18    1
    10    18     1    1
    11     1     2    1
    12     2     3    1
    13     3     4    1
    14     4     5   ar
    15     5     6   ar
    16     6     7   ar
    17     7     8   ar
    18     8     9   ar
    19     9    10    1
    20    10    11    1
    21    11    12    1
    22    12    13   ar
    23    13    14   ar
    24    14    15   ar
    25    15    16   ar
    26    16    17   ar
    27    28    23   ar
    28    16     1    1
    29    17     3    1
    30     9     4   ar
    31    17    12   ar
    32    18    19    1
@<TRIPOS>MOLECULE
*****
 28 32 0 0 0
SMALL
GASTEIGER

@<TRIPOS>ATOM
      1 C         -13.9005   -6.7547   19.1738 C.3     1  UNL1        0.0771
      2 C         -14.1141   -5.2800   19.3452 C.3     1  UNL1        0.0289
      3 C         -15.5893   -5.0362   19.4658 C.3     1  UNL1        0.0453
      4 C         -16.1893   -3.6738   19.6499 C.ar    1  UNL1       -0.0223
      5 C         -15.1319   -2.6109   19.6959 C.ar    1  UNL1       -0.0043
      6 C         -15.5208   -1.1733   19.8746 C.ar    1  UNL1       -0.0003
      7 C         -16.9672   -0.7986   20.0073 C.ar    1  UNL1       -0.0003
      8 C         -18.0246   -1.8615   19.9613 C.ar    1  UNL1       -0.0046
      9 C         -17.6356   -3.2991   19.7826 C.ar    1  UNL1       -0.0255
     10 C         -18.8391   -4.1942   19.7640 C.3     1  UNL1        0.0307
     11 C         -18.8936   -5.6850   19.6080 C.3     1  UNL1        0.0307
     12 C         -17.7579   -6.6490   19.4321 C.ar    1  UNL1       -0.0258
     13 C         -18.1667   -8.0873   19.3044 C.ar    1  UNL1       -0.0046
     14 C         -17.1556   -9.1803   19.1227 C.ar    1  UNL1       -0.0006
     15 C         -15.6941   -8.8478   19.0647 C.ar    1  UNL1       -0.0033
     16 C         -15.2437   -7.4224   19.1883 C.ar    1  UNL1       -0.0119
     17 C         -16.2873   -6.3603   19.3688 C.ar    1  UNL1       -0.0250
     18 N         -12.5763   -7.4413   19.0155 N.3     1  UNL1       -0.2959
     19 H         -12.0183   -7.1970   19.8336 H       1  UNL1        0.1235
     20 C         -11.8827   -7.9930   16.5732 C.3     1  UNL1        0.0174
     21 C         -11.7257   -7.1619   17.8120 C.3     1  UNL1        0.0586
     22 C         -10.7181   -6.0513   17.8473 C.3     1  UNL1        0.0420
     23 C         -11.1687   -4.6256   17.7282 C.ar    1  UNL1       -0.0208
     24 C         -12.0771   -4.2175   16.6064 C.ar    1  UNL1       -0.0042
     25 C         -12.5279   -2.7917   16.4873 C.ar    1  UNL1       -0.0003
     26 C         -12.0701   -1.7742   17.4898 C.ar    1  UNL1       -0.0000
     27 C         -11.1617   -2.1823   18.6116 C.ar    1  UNL1       -0.0003
     28 C         -10.7110   -3.6080   18.7307 C.ar    1  UNL1       -0.0042
@<TRIPOS>BOND
     1    20    21    1
     2    21    22    1
     3    22    23    1
     4    23    24   ar
     5    24    25   ar
     6    25    26   ar
     7    26    27   ar
     8    27    28   ar
     9    21    18    1
    10    18     1    1
    11     1     2    1
    12     2     3    1
    13     3     4    1
    14     4     5   ar
    15     5     6   ar
    16     6     7   ar
    17     7     8   ar
    18     8     9   ar
    19     9    10    1
    20    10    11    1
    21    11    12    1
    22    12    13   ar
    23    13    14   ar
    24    14    15   ar
    25    15    16   ar
    26    16    17   ar
    27    28    23   ar
    28    16     1    1
    29    17     3    1
    30     9     4   ar
    31    17    12   ar
    32    18    19    1
