@<TRIPOS>MOLECULE
*****
 37 40 0 0 0
SMALL
GASTEIGER

@<TRIPOS>ATOM
      1 C           6.7351   -4.4107   24.6246 C.ar    1  UNL1        0.0908
      2 C           7.5674   -5.4202   23.8910 C.ar    1  UNL1        0.1363
      3 N           7.6415   -5.0023   22.4523 N.ar    1  UNL1       -0.1661
      4 N           6.8550   -3.7346   22.2966 N.ar    1  UNL1       -0.2459
      5 C           6.2948   -3.3689   23.6392 C.ar    1  UNL1        0.1116
      6 C           7.4541   -4.1059   27.1024 C.2     1  UNL1        0.2703
      7 O           8.8403   -3.7463   26.6559 O.2     1  UNL1       -0.2681
      8 N           6.4015   -4.4381   26.0868 N.am    1  UNL1       -0.2766
      9 H           5.4918   -4.6741   26.3798 H       1  UNL1        0.1553
     10 C           6.7434   -1.5162   28.9567 C.3     1  UNL1        0.0362
     11 C           6.7939   -2.9429   29.4169 C.ar    1  UNL1        0.0421
     12 C           7.1206   -4.1332   28.5646 C.ar    1  UNL1        0.1723
     13 N           7.0552   -5.3559   29.4312 N.ar    1  UNL1       -0.0726
     14 O           6.6881   -4.9211   30.8192 O.2     1  UNL1       -0.3520
     15 C           6.5266   -3.4299   30.8103 C.ar    1  UNL1        0.1904
     16 C           6.1619   -2.5755   31.9880 C.ar    1  UNL1        0.1181
     17 C           7.1828   -1.6587   32.5944 C.ar    1  UNL1        0.0223
     18 C           6.8181   -0.8044   33.7720 C.ar    1  UNL1        0.0032
     19 C           5.4325   -0.8667   34.3435 C.ar    1  UNL1        0.0207
     20 C           4.4118   -1.7834   33.7371 C.ar    1  UNL1        0.0989
     21 N           4.7764   -2.6378   32.5594 N.ar    1  UNL1       -0.2407
     22 C           6.6625   -2.9672   21.0222 C.3     1  UNL1        0.1274
     23 C           7.7542   -2.9347   19.9941 C.3     1  UNL1        0.0312
     24 C           5.3782   -2.2324   20.7759 C.ar    1  UNL1        0.0038
     25 C           5.1795   -0.8583   21.3437 C.ar    1  UNL1       -0.0025
     26 C           3.8953   -0.1236   21.0974 C.ar    1  UNL1        0.0036
     27 C           2.8096   -0.7629   20.2833 C.ar    1  UNL1        0.0714
     28 C           3.0083   -2.1369   19.7155 C.ar    1  UNL1        0.0074
     29 C           4.2926   -2.8717   19.9619 C.ar    1  UNL1        0.0692
     30 C           1.5253   -0.0280   20.0370 C.3     1  UNL1        0.4186
     31 F           0.2410    0.7067   19.7907 F       1  UNL1       -0.1659
     32 F           2.2799    1.2662   19.9633 F       1  UNL1       -0.1659
     33 F           0.7707   -1.3222   20.1108 F       1  UNL1       -0.1659
     34 C           4.4913   -4.2459   19.3941 C.3     1  UNL1        0.4183
     35 F           4.6900   -5.6199   18.8263 F       1  UNL1       -0.1659
     36 F           5.0757   -3.6470   18.1492 F       1  UNL1       -0.1659
     37 F           3.9069   -4.8448   20.6389 F       1  UNL1       -0.1659
@<TRIPOS>BOND
     1    10    11    1
     2    11    12   ar
     3    12     6    1
     4     6     7    2
     5     6     8   am
     6     8     1    1
     7     1     2   ar
     8     2     3   ar
     9     3     4   ar
    10     4    22    1
    11    22    23    1
    12    22    24    1
    13    24    25   ar
    14    25    26   ar
    15    26    27   ar
    16    27    30    1
    17    30    31    1
    18    30    32    1
    19    30    33    1
    20    27    28   ar
    21    28    29   ar
    22    29    34    1
    23    34    35    1
    24    34    36    1
    25    34    37    1
    26     4     5   ar
    27    12    13   ar
    28    13    14   ar
    29    14    15   ar
    30    15    16    1
    31    16    17   ar
    32    17    18   ar
    33    18    19   ar
    34    19    20   ar
    35    20    21   ar
    36    15    11   ar
    37    21    16   ar
    38     5     1   ar
    39    29    24   ar
    40     8     9    1
@<TRIPOS>MOLECULE
*****
 37 40 0 0 0
SMALL
GASTEIGER

@<TRIPOS>ATOM
      1 C           1.6766    0.7807   25.2240 C.ar    1  UNL1        0.0908
      2 C           0.5714    1.3580   24.3903 C.ar    1  UNL1        0.1363
      3 N           1.0514    1.4318   22.9711 N.ar    1  UNL1       -0.1661
      4 N           2.4533    0.9001   22.9276 N.ar    1  UNL1       -0.2459
      5 C           2.8397    0.4977   24.3200 C.ar    1  UNL1        0.1116
      6 C           1.8752    1.6559   27.6621 C.2     1  UNL1        0.2703
      7 O           2.1721    3.0320   27.1439 O.2     1  UNL1       -0.2681
      8 N           1.6275    0.5303   26.7021 N.am    1  UNL1       -0.2766
      9 H           1.4326   -0.3728   27.0422 H       1  UNL1        0.1553
     10 C           4.2833    0.4090   29.4776 C.3     1  UNL1        0.0362
     11 C           2.9329    0.8324   29.9747 C.ar    1  UNL1        0.0421
     12 C           1.8260    1.4056   29.1402 C.ar    1  UNL1        0.1723
     13 N           0.6613    1.6844   30.0434 N.ar    1  UNL1       -0.0726
     14 O           1.0484    1.2835   31.4361 O.2     1  UNL1       -0.3520
     15 C           2.4523    0.7570   31.3936 C.ar    1  UNL1        0.1904
     16 C           3.2377    0.2450   32.5645 C.ar    1  UNL1        0.1181
     17 C           3.6338    1.1800   33.6686 C.ar    1  UNL1        0.0223
     18 C           4.4192    0.6680   34.8394 C.ar    1  UNL1        0.0032
     19 C           4.8085   -0.7791   34.9063 C.ar    1  UNL1        0.0207
     20 C           4.4125   -1.7141   33.8022 C.ar    1  UNL1        0.0989
     21 N           3.6270   -1.2021   32.6313 N.ar    1  UNL1       -0.2407
     22 C           3.3172    0.7901   21.7063 C.3     1  UNL1        0.1274
     23 C           3.8939    2.0260   21.0818 C.3     1  UNL1        0.0312
     24 C           3.6042   -0.5558   21.1094 C.ar    1  UNL1        0.0038
     25 C           4.7348   -1.3861   21.6406 C.ar    1  UNL1       -0.0025
     26 C           5.0218   -2.7320   21.0437 C.ar    1  UNL1        0.0036
     27 C           4.1782   -3.2475   19.9156 C.ar    1  UNL1        0.0714
     28 C           3.0476   -2.4171   19.3844 C.ar    1  UNL1        0.0074
     29 C           2.7606   -1.0713   19.9813 C.ar    1  UNL1        0.0692
     30 C           4.4653   -4.5934   19.3188 C.3     1  UNL1        0.4186
     31 F           4.7523   -5.9392   18.7219 F       1  UNL1       -0.1659
     32 F           5.8878   -4.4967   19.7847 F       1  UNL1       -0.1659
     33 F           3.0428   -4.6900   18.8528 F       1  UNL1       -0.1659
     34 C           1.6300   -0.2409   19.4501 C.3     1  UNL1        0.4183
     35 F           0.4994    0.5895   18.9188 F       1  UNL1       -0.1659
     36 F           2.5514    0.3619   18.4314 F       1  UNL1       -0.1659
     37 F           0.7086   -0.8436   20.4687 F       1  UNL1       -0.1659
@<TRIPOS>BOND
     1    10    11    1
     2    11    12   ar
     3    12     6    1
     4     6     7    2
     5     6     8   am
     6     8     1    1
     7     1     2   ar
     8     2     3   ar
     9     3     4   ar
    10     4    22    1
    11    22    23    1
    12    22    24    1
    13    24    25   ar
    14    25    26   ar
    15    26    27   ar
    16    27    30    1
    17    30    31    1
    18    30    32    1
    19    30    33    1
    20    27    28   ar
    21    28    29   ar
    22    29    34    1
    23    34    35    1
    24    34    36    1
    25    34    37    1
    26     4     5   ar
    27    12    13   ar
    28    13    14   ar
    29    14    15   ar
    30    15    16    1
    31    16    17   ar
    32    17    18   ar
    33    18    19   ar
    34    19    20   ar
    35    20    21   ar
    36    15    11   ar
    37    21    16   ar
    38     5     1   ar
    39    29    24   ar
    40     8     9    1
@<TRIPOS>MOLECULE
*****
 37 40 0 0 0
SMALL
GASTEIGER

@<TRIPOS>ATOM
      1 C           1.2777    0.9735   24.9815 C.ar    1  UNL1        0.0908
      2 C           0.2589    1.3810   23.9588 C.ar    1  UNL1        0.1363
      3 N           0.9211    1.3654   22.6130 N.ar    1  UNL1       -0.1661
      4 N           2.3492    0.9483   22.8039 N.ar    1  UNL1       -0.2459
      5 C           2.5696    0.7061   24.2677 C.ar    1  UNL1        0.1116
      6 C           0.8101    2.0855   27.2825 C.2     1  UNL1        0.2703
      7 O           0.8071    3.4359   26.6293 O.2     1  UNL1       -0.2681
      8 N           1.0454    0.8544   26.4586 N.am    1  UNL1       -0.2766
      9 H           1.0474   -0.0319   26.8873 H       1  UNL1        0.1553
     10 C           2.3621    3.7659   29.6100 C.3     1  UNL1        0.0362
     11 C           1.2912    2.7388   29.8294 C.ar    1  UNL1        0.0421
     12 C           0.5779    1.9664   28.7596 C.ar    1  UNL1        0.1723
     13 N          -0.4086    1.0539   29.4261 N.ar    1  UNL1       -0.0726
     14 O          -0.3049    1.2623   30.9080 O.2     1  UNL1       -0.3520
     15 C           0.7457    2.3036   31.1572 C.ar    1  UNL1        0.1904
     16 C           1.1752    2.8193   32.4987 C.ar    1  UNL1        0.1181
     17 C           0.7004    4.1606   32.9738 C.ar    1  UNL1        0.0223
     18 C           1.1300    4.6763   34.3152 C.ar    1  UNL1        0.0032
     19 C           2.0344    3.8507   35.1817 C.ar    1  UNL1        0.0207
     20 C           2.5091    2.5095   34.7066 C.ar    1  UNL1        0.0989
     21 N           2.0796    1.9937   33.3651 N.ar    1  UNL1       -0.2407
     22 C           3.3766    0.7995   21.7211 C.3     1  UNL1        0.1274
     23 C           4.1338    1.9998   21.2356 C.3     1  UNL1        0.0312
     24 C           3.6468   -0.5498   21.1239 C.ar    1  UNL1        0.0038
     25 C           4.7612   -1.3981   21.6609 C.ar    1  UNL1       -0.0025
     26 C           5.0313   -2.7473   21.0637 C.ar    1  UNL1        0.0036
     27 C           4.1871   -3.2481   19.9295 C.ar    1  UNL1        0.0714
     28 C           3.0727   -2.3998   19.3925 C.ar    1  UNL1        0.0074
     29 C           2.8026   -1.0506   19.9897 C.ar    1  UNL1        0.0692
     30 C           4.4573   -4.5974   19.3323 C.3     1  UNL1        0.4186
     31 F           4.7275   -5.9466   18.7351 F       1  UNL1       -0.1659
     32 F           3.0278   -4.6865   18.8867 F       1  UNL1       -0.1659
     33 F           5.8867   -4.5083   19.7779 F       1  UNL1       -0.1659
     34 C           1.6881   -0.2022   19.4527 C.3     1  UNL1        0.4183
     35 F           0.5738    0.6463   18.9157 F       1  UNL1       -0.1659
     36 F           2.6552    0.4887   18.5376 F       1  UNL1       -0.1659
     37 F           0.7211   -0.8930   20.3678 F       1  UNL1       -0.1659
@<TRIPOS>BOND
     1    10    11    1
     2    11    12   ar
     3    12     6    1
     4     6     7    2
     5     6     8   am
     6     8     1    1
     7     1     2   ar
     8     2     3   ar
     9     3     4   ar
    10     4    22    1
    11    22    23    1
    12    22    24    1
    13    24    25   ar
    14    25    26   ar
    15    26    27   ar
    16    27    30    1
    17    30    31    1
    18    30    32    1
    19    30    33    1
    20    27    28   ar
    21    28    29   ar
    22    29    34    1
    23    34    35    1
    24    34    36    1
    25    34    37    1
    26     4     5   ar
    27    12    13   ar
    28    13    14   ar
    29    14    15   ar
    30    15    16    1
    31    16    17   ar
    32    17    18   ar
    33    18    19   ar
    34    19    20   ar
    35    20    21   ar
    36    15    11   ar
    37    21    16   ar
    38     5     1   ar
    39    29    24   ar
    40     8     9    1
@<TRIPOS>MOLECULE
*****
 37 40 0 0 0
SMALL
GASTEIGER

@<TRIPOS>ATOM
      1 C           0.8182    1.3474   24.3854 C.ar    1  UNL1        0.0908
      2 C           1.9926    0.9080   25.2086 C.ar    1  UNL1        0.1363
      3 N           3.1386    0.6441   24.2774 N.ar    1  UNL1       -0.1661
      4 N           2.6725    0.9204   22.8787 N.ar    1  UNL1       -0.2459
      5 C           1.2384    1.3550   22.9454 C.ar    1  UNL1        0.1116
      6 C          -0.9524    3.1549   24.9752 C.2     1  UNL1        0.2703
      7 O          -0.0101    4.2278   24.5159 O.2     1  UNL1       -0.2681
      8 N          -0.5383    1.7147   24.9099 N.am    1  UNL1       -0.2766
      9 H          -1.1567    1.0105   25.2113 H       1  UNL1        0.1553
     10 C          -3.4551    4.2744   23.2051 C.3     1  UNL1        0.0362
     11 C          -3.4592    4.0367   24.6861 C.ar    1  UNL1        0.0421
     12 C          -2.3089    3.5221   25.4997 C.ar    1  UNL1        0.1723
     13 N          -2.7531    3.4392   26.9301 N.ar    1  UNL1       -0.0726
     14 O          -4.1781    3.9026   27.0004 O.2     1  UNL1       -0.3520
     15 C          -4.6144    4.2719   25.6136 C.ar    1  UNL1        0.1904
     16 C          -5.9683    4.7861   25.2228 C.ar    1  UNL1        0.1181
     17 C          -6.6545    4.2417   24.0050 C.ar    1  UNL1        0.0223
     18 C          -8.0082    4.7558   23.6143 C.ar    1  UNL1        0.0032
     19 C          -8.6760    5.8143   24.4412 C.ar    1  UNL1        0.0207
     20 C          -7.9898    6.3586   25.6589 C.ar    1  UNL1        0.0989
     21 N          -6.6359    5.8445   26.0498 N.ar    1  UNL1       -0.2407
     22 C           3.4959    0.7857   21.6322 C.3     1  UNL1        0.1274
     23 C           4.0662    2.0071   20.9744 C.3     1  UNL1        0.0312
     24 C           3.7489   -0.5706   21.0434 C.ar    1  UNL1        0.0038
     25 C           4.9026   -1.3963   21.5305 C.ar    1  UNL1       -0.0025
     26 C           5.1556   -2.7525   20.9417 C.ar    1  UNL1        0.0036
     27 C           4.2549   -3.2830   19.8659 C.ar    1  UNL1        0.0714
     28 C           3.1012   -2.4573   19.3789 C.ar    1  UNL1        0.0074
     29 C           2.8482   -1.1011   19.9676 C.ar    1  UNL1        0.0692
     30 C           4.5080   -4.6393   19.2772 C.3     1  UNL1        0.4186
     31 F           4.7610   -5.9955   18.6884 F       1  UNL1       -0.1659
     32 F           5.9464   -4.5516   19.6933 F       1  UNL1       -0.1659
     33 F           3.0696   -4.7269   18.8610 F       1  UNL1       -0.1659
     34 C           1.6945   -0.2754   19.4806 C.3     1  UNL1        0.4183
     35 F           0.5409    0.5504   18.9935 F       1  UNL1       -0.1659
     36 F           2.5850    0.3653   18.4576 F       1  UNL1       -0.1659
     37 F           0.8041   -0.9160   20.5036 F       1  UNL1       -0.1659
@<TRIPOS>BOND
     1    10    11    1
     2    11    12   ar
     3    12     6    1
     4     6     7    2
     5     6     8   am
     6     8     1    1
     7     1     2   ar
     8     2     3   ar
     9     3     4   ar
    10     4    22    1
    11    22    23    1
    12    22    24    1
    13    24    25   ar
    14    25    26   ar
    15    26    27   ar
    16    27    30    1
    17    30    31    1
    18    30    32    1
    19    30    33    1
    20    27    28   ar
    21    28    29   ar
    22    29    34    1
    23    34    35    1
    24    34    36    1
    25    34    37    1
    26     4     5   ar
    27    12    13   ar
    28    13    14   ar
    29    14    15   ar
    30    15    16    1
    31    16    17   ar
    32    17    18   ar
    33    18    19   ar
    34    19    20   ar
    35    20    21   ar
    36    15    11   ar
    37    21    16   ar
    38     5     1   ar
    39    29    24   ar
    40     8     9    1
@<TRIPOS>MOLECULE
*****
 37 40 0 0 0
SMALL
GASTEIGER

@<TRIPOS>ATOM
      1 C           5.9707   -3.7483   23.5847 C.ar    1  UNL1        0.0908
      2 C           7.0465   -4.1685   22.6276 C.ar    1  UNL1        0.1363
      3 N           6.4720   -4.1386   21.2423 N.ar    1  UNL1       -0.1661
      4 N           5.0412   -3.6999   21.3432 N.ar    1  UNL1       -0.2459
      5 C           4.7314   -3.4587   22.7909 C.ar    1  UNL1        0.1116
      6 C           6.6061   -2.3618   25.6879 C.2     1  UNL1        0.2703
      7 O           6.9633   -1.1974   24.8124 O.2     1  UNL1       -0.2681
      8 N           6.1098   -3.6372   25.0741 N.am    1  UNL1       -0.2766
      9 H           5.8754   -4.4015   25.6488 H       1  UNL1        0.1553
     10 C           4.2401   -1.5386   27.7794 C.3     1  UNL1        0.0362
     11 C           5.6577   -1.8723   28.1386 C.ar    1  UNL1        0.0421
     12 C           6.7452   -2.2507   27.1773 C.ar    1  UNL1        0.1723
     13 N           7.9963   -2.4985   27.9669 N.ar    1  UNL1       -0.0726
     14 O           7.6820   -2.2732   29.4162 O.2     1  UNL1       -0.3520
     15 C           6.2367   -1.8862   29.5223 C.ar    1  UNL1        0.1904
     16 C           5.4996   -1.5689   30.7897 C.ar    1  UNL1        0.1181
     17 C           5.4704   -2.5660   31.9101 C.ar    1  UNL1        0.0223
     18 C           4.7334   -2.2487   33.1773 C.ar    1  UNL1        0.0032
     19 C           4.0256   -0.9343   33.3244 C.ar    1  UNL1        0.0207
     20 C           4.0549    0.0627   32.2041 C.ar    1  UNL1        0.0989
     21 N           4.7919   -0.2546   30.9367 N.ar    1  UNL1       -0.2407
     22 C           4.0876   -3.5319   20.1976 C.3     1  UNL1        0.1274
     23 C           3.5541   -4.7379   19.4828 C.3     1  UNL1        0.0312
     24 C           3.6675   -2.1579   19.7668 C.ar    1  UNL1        0.0038
     25 C           2.3411   -1.6084   20.2012 C.ar    1  UNL1       -0.0025
     26 C           1.9211   -0.2344   19.7704 C.ar    1  UNL1        0.0036
     27 C           2.8274    0.5901   18.9051 C.ar    1  UNL1        0.0714
     28 C           4.1538    0.0407   18.4707 C.ar    1  UNL1        0.0074
     29 C           4.5738   -1.3333   18.9015 C.ar    1  UNL1        0.0692
     30 C           2.4073    1.9642   18.4743 C.3     1  UNL1        0.4186
     31 F           1.9873    3.3382   18.0435 F       1  UNL1       -0.1659
     32 F           1.0630    1.4292   18.0786 F       1  UNL1       -0.1659
     33 F           3.7516    2.4992   18.8700 F       1  UNL1       -0.1659
     34 C           5.9003   -1.8829   18.4670 C.3     1  UNL1        0.4183
     35 F           7.2266   -2.4323   18.0326 F       1  UNL1       -0.1659
     36 F           6.5643   -1.1924   19.6212 F       1  UNL1       -0.1659
     37 F           5.2362   -2.5734   17.3128 F       1  UNL1       -0.1659
@<TRIPOS>BOND
     1    10    11    1
     2    11    12   ar
     3    12     6    1
     4     6     7    2
     5     6     8   am
     6     8     1    1
     7     1     2   ar
     8     2     3   ar
     9     3     4   ar
    10     4    22    1
    11    22    23    1
    12    22    24    1
    13    24    25   ar
    14    25    26   ar
    15    26    27   ar
    16    27    30    1
    17    30    31    1
    18    30    32    1
    19    30    33    1
    20    27    28   ar
    21    28    29   ar
    22    29    34    1
    23    34    35    1
    24    34    36    1
    25    34    37    1
    26     4     5   ar
    27    12    13   ar
    28    13    14   ar
    29    14    15   ar
    30    15    16    1
    31    16    17   ar
    32    17    18   ar
    33    18    19   ar
    34    19    20   ar
    35    20    21   ar
    36    15    11   ar
    37    21    16   ar
    38     5     1   ar
    39    29    24   ar
    40     8     9    1
@<TRIPOS>MOLECULE
*****
 37 40 0 0 0
SMALL
GASTEIGER

@<TRIPOS>ATOM
      1 C           7.1491   -7.8873   26.4104 C.ar    1  UNL1        0.0908
      2 C           8.1862   -7.8576   25.3272 C.ar    1  UNL1        0.1363
      3 N           8.6826   -6.4479   25.1992 N.ar    1  UNL1       -0.1661
      4 N           7.9523   -5.6063   26.2033 N.ar    1  UNL1       -0.2459
      5 C           7.0045   -6.4959   26.9519 C.ar    1  UNL1        0.1116
      6 C           7.0987  -10.1876   27.6170 C.2     1  UNL1        0.2703
      7 O           8.5668  -10.0704   27.9017 O.2     1  UNL1       -0.2681
      8 N           6.3898   -9.0960   26.8714 N.am    1  UNL1       -0.2766
      9 H           5.4263   -9.1729   26.6845 H       1  UNL1        0.1553
     10 C           3.9318  -10.7777   27.0953 C.3     1  UNL1        0.0362
     11 C           4.8838  -11.6676   27.8381 C.ar    1  UNL1        0.0421
     12 C           6.3394  -11.3963   28.0779 C.ar    1  UNL1        0.1723
     13 N           6.9027  -12.5461   28.8596 N.ar    1  UNL1       -0.0726
     14 O           5.7950  -13.5280   29.1028 O.2     1  UNL1       -0.3520
     15 C           4.5473  -12.9850   28.4716 C.ar    1  UNL1        0.1904
     16 C           3.1997  -13.6438   28.4734 C.ar    1  UNL1        0.1181
     17 C           1.9727  -12.8406   28.7889 C.ar    1  UNL1        0.0223
     18 C           0.6251  -13.4993   28.7907 C.ar    1  UNL1        0.0032
     19 C           0.5044  -14.9612   28.4771 C.ar    1  UNL1        0.0207
     20 C           1.7314  -15.7643   28.1616 C.ar    1  UNL1        0.0989
     21 N           3.0791  -15.1056   28.1598 N.ar    1  UNL1       -0.2407
     22 C           8.1372   -4.1337   26.4206 C.3     1  UNL1        0.1274
     23 C           9.5179   -3.5626   26.5527 C.3     1  UNL1        0.0312
     24 C           6.9413   -3.2321   26.5059 C.ar    1  UNL1        0.0038
     25 C           6.3890   -2.8435   27.8452 C.ar    1  UNL1       -0.0025
     26 C           5.1932   -1.9420   27.9304 C.ar    1  UNL1        0.0036
     27 C           4.5497   -1.4291   26.6763 C.ar    1  UNL1        0.0714
     28 C           5.1020   -1.8178   25.3369 C.ar    1  UNL1        0.0074
     29 C           6.2978   -2.7193   25.2517 C.ar    1  UNL1        0.0692
     30 C           3.3539   -0.5276   26.7615 C.3     1  UNL1        0.4186
     31 F           2.1581    0.3739   26.8467 F       1  UNL1       -0.1659
     32 F           2.9360   -1.2022   28.0344 F       1  UNL1       -0.1659
     33 F           3.7717    0.1470   25.4887 F       1  UNL1       -0.1659
     34 C           6.8502   -3.1079   23.9123 C.3     1  UNL1        0.4183
     35 F           7.4025   -3.4966   22.5730 F       1  UNL1       -0.1659
     36 F           5.9534   -4.3101   23.8914 F       1  UNL1       -0.1659
     37 F           7.7470   -1.9058   23.9333 F       1  UNL1       -0.1659
@<TRIPOS>BOND
     1    10    11    1
     2    11    12   ar
     3    12     6    1
     4     6     7    2
     5     6     8   am
     6     8     1    1
     7     1     2   ar
     8     2     3   ar
     9     3     4   ar
    10     4    22    1
    11    22    23    1
    12    22    24    1
    13    24    25   ar
    14    25    26   ar
    15    26    27   ar
    16    27    30    1
    17    30    31    1
    18    30    32    1
    19    30    33    1
    20    27    28   ar
    21    28    29   ar
    22    29    34    1
    23    34    35    1
    24    34    36    1
    25    34    37    1
    26     4     5   ar
    27    12    13   ar
    28    13    14   ar
    29    14    15   ar
    30    15    16    1
    31    16    17   ar
    32    17    18   ar
    33    18    19   ar
    34    19    20   ar
    35    20    21   ar
    36    15    11   ar
    37    21    16   ar
    38     5     1   ar
    39    29    24   ar
    40     8     9    1
@<TRIPOS>MOLECULE
*****
 37 40 0 0 0
SMALL
GASTEIGER

@<TRIPOS>ATOM
      1 C           7.1229   -7.9210   26.4513 C.ar    1  UNL1        0.0908
      2 C           8.1149   -7.8260   25.3302 C.ar    1  UNL1        0.1363
      3 N           8.6219   -6.4152   25.2781 N.ar    1  UNL1       -0.1661
      4 N           7.9432   -5.6383   26.3670 N.ar    1  UNL1       -0.2459
      5 C           7.0168   -6.5689   27.0921 C.ar    1  UNL1        0.1116
      6 C           7.0707  -10.2470   27.6076 C.2     1  UNL1        0.2703
      7 O           8.5256  -10.1111   27.9465 O.2     1  UNL1       -0.2681
      8 N           6.3694   -9.1519   26.8600 N.am    1  UNL1       -0.2766
      9 H           5.4145   -9.2411   26.6375 H       1  UNL1        0.1553
     10 C           3.8830  -10.7822   27.1582 C.3     1  UNL1        0.0362
     11 C           4.8520  -11.7239   27.8096 C.ar    1  UNL1        0.0421
     12 C           6.3172  -11.4779   28.0162 C.ar    1  UNL1        0.1723
     13 N           6.8966  -12.6789   28.7031 N.ar    1  UNL1       -0.0726
     14 O           5.7894  -13.6673   28.9211 O.2     1  UNL1       -0.3520
     15 C           4.5258  -13.0770   28.3689 C.ar    1  UNL1        0.1904
     16 C           3.1734  -13.7259   28.3749 C.ar    1  UNL1        0.1181
     17 C           1.9355  -12.8794   28.4103 C.ar    1  UNL1        0.0223
     18 C           0.5832  -13.5283   28.4163 C.ar    1  UNL1        0.0032
     19 C           0.4686  -15.0237   28.3870 C.ar    1  UNL1        0.0207
     20 C           1.7065  -15.8701   28.3516 C.ar    1  UNL1        0.0989
     21 N           3.0589  -15.2212   28.3456 N.ar    1  UNL1       -0.2407
     22 C           8.1539   -4.1857   26.6765 C.3     1  UNL1        0.1274
     23 C           9.5348   -3.6711   26.9562 C.3     1  UNL1        0.0312
     24 C           6.9836   -3.2478   26.7063 C.ar    1  UNL1        0.0038
     25 C           6.3137   -2.8435   25.4266 C.ar    1  UNL1       -0.0025
     26 C           5.1435   -1.9056   25.4565 C.ar    1  UNL1        0.0036
     27 C           4.6431   -1.3721   26.7661 C.ar    1  UNL1        0.0714
     28 C           5.3130   -1.7764   28.0458 C.ar    1  UNL1        0.0074
     29 C           6.4832   -2.7143   28.0159 C.ar    1  UNL1        0.0692
     30 C           3.4728   -0.4342   26.7959 C.3     1  UNL1        0.4186
     31 F           2.3026    0.5037   26.8258 F       1  UNL1       -0.1659
     32 F           4.1929    0.4941   25.8633 F       1  UNL1       -0.1659
     33 F           2.7528   -1.3624   27.7285 F       1  UNL1       -0.1659
     34 C           7.1532   -3.1187   29.2957 C.3     1  UNL1        0.4183
     35 F           7.8231   -3.5230   30.5754 F       1  UNL1       -0.1659
     36 F           7.9828   -1.8696   29.2560 F       1  UNL1       -0.1659
     37 F           6.3236   -4.3677   29.3354 F       1  UNL1       -0.1659
@<TRIPOS>BOND
     1    10    11    1
     2    11    12   ar
     3    12     6    1
     4     6     7    2
     5     6     8   am
     6     8     1    1
     7     1     2   ar
     8     2     3   ar
     9     3     4   ar
    10     4    22    1
    11    22    23    1
    12    22    24    1
    13    24    25   ar
    14    25    26   ar
    15    26    27   ar
    16    27    30    1
    17    30    31    1
    18    30    32    1
    19    30    33    1
    20    27    28   ar
    21    28    29   ar
    22    29    34    1
    23    34    35    1
    24    34    36    1
    25    34    37    1
    26     4     5   ar
    27    12    13   ar
    28    13    14   ar
    29    14    15   ar
    30    15    16    1
    31    16    17   ar
    32    17    18   ar
    33    18    19   ar
    34    19    20   ar
    35    20    21   ar
    36    15    11   ar
    37    21    16   ar
    38     5     1   ar
    39    29    24   ar
    40     8     9    1
@<TRIPOS>MOLECULE
*****
 37 40 0 0 0
SMALL
GASTEIGER

@<TRIPOS>ATOM
      1 C           2.5046    1.0359   19.3156 C.ar    1  UNL1        0.0908
      2 C           2.3689    0.5146   17.9156 C.ar    1  UNL1        0.1363
      3 N           3.5047   -0.4315   17.6612 N.ar    1  UNL1       -0.1661
      4 N           4.3424   -0.4950   18.9038 N.ar    1  UNL1       -0.2459
      5 C           3.7244    0.4120   19.9263 C.ar    1  UNL1        0.1116
      6 C           0.3154    1.5249   20.6263 C.2     1  UNL1        0.2703
      7 O          -0.0298    0.0655   20.5942 O.2     1  UNL1       -0.2681
      8 N           1.5826    2.0101   19.9870 N.am    1  UNL1       -0.2766
      9 H           1.8091    2.9680   20.0080 H       1  UNL1        0.1553
     10 C           0.2120    2.1782   23.8220 C.3     1  UNL1        0.0362
     11 C          -0.6542    2.7994   22.7666 C.ar    1  UNL1        0.0421
     12 C          -0.6067    2.4991   21.2977 C.ar    1  UNL1        0.1723
     13 N          -1.6431    3.3440   20.6180 N.ar    1  UNL1       -0.0726
     14 O          -2.3312    4.1665   21.6669 O.2     1  UNL1       -0.3520
     15 C          -1.7200    3.8299   22.9947 C.ar    1  UNL1        0.1904
     16 C          -2.1067    4.4202   24.3184 C.ar    1  UNL1        0.1181
     17 C          -3.0514    3.6833   25.2209 C.ar    1  UNL1        0.0223
     18 C          -3.4381    4.2735   26.5445 C.ar    1  UNL1        0.0032
     19 C          -2.8801    5.6007   26.9657 C.ar    1  UNL1        0.0207
     20 C          -1.9354    6.3375   26.0632 C.ar    1  UNL1        0.0989
     21 N          -1.5487    5.7473   24.7395 N.ar    1  UNL1       -0.2407
     22 C           5.5808   -1.3204   19.0910 C.3     1  UNL1        0.1274
     23 C           6.5833   -1.4312   17.9808 C.3     1  UNL1        0.0312
     24 C           5.8167   -2.0351   20.3886 C.ar    1  UNL1        0.0038
     25 C           6.8205   -1.5014   21.3671 C.ar    1  UNL1       -0.0025
     26 C           7.0564   -2.2161   22.6646 C.ar    1  UNL1        0.0036
     27 C           6.2883   -3.4644   22.9837 C.ar    1  UNL1        0.0714
     28 C           5.2845   -3.9981   22.0052 C.ar    1  UNL1        0.0074
     29 C           5.0487   -3.2834   20.7077 C.ar    1  UNL1        0.0692
     30 C           6.5242   -4.1791   24.2813 C.3     1  UNL1        0.4186
     31 F           6.7600   -4.8937   25.5788 F       1  UNL1       -0.1659
     32 F           7.2912   -5.2442   23.5552 F       1  UNL1       -0.1659
     33 F           5.7572   -3.1139   25.0073 F       1  UNL1       -0.1659
     34 C           4.0448   -3.8171   19.7291 C.3     1  UNL1        0.4183
     35 F           3.0409   -4.3507   18.7507 F       1  UNL1       -0.1659
     36 F           3.0042   -2.8967   20.2948 F       1  UNL1       -0.1659
     37 F           5.0854   -4.7374   19.1635 F       1  UNL1       -0.1659
@<TRIPOS>BOND
     1    10    11    1
     2    11    12   ar
     3    12     6    1
     4     6     7    2
     5     6     8   am
     6     8     1    1
     7     1     2   ar
     8     2     3   ar
     9     3     4   ar
    10     4    22    1
    11    22    23    1
    12    22    24    1
    13    24    25   ar
    14    25    26   ar
    15    26    27   ar
    16    27    30    1
    17    30    31    1
    18    30    32    1
    19    30    33    1
    20    27    28   ar
    21    28    29   ar
    22    29    34    1
    23    34    35    1
    24    34    36    1
    25    34    37    1
    26     4     5   ar
    27    12    13   ar
    28    13    14   ar
    29    14    15   ar
    30    15    16    1
    31    16    17   ar
    32    17    18   ar
    33    18    19   ar
    34    19    20   ar
    35    20    21   ar
    36    15    11   ar
    37    21    16   ar
    38     5     1   ar
    39    29    24   ar
    40     8     9    1
@<TRIPOS>MOLECULE
*****
 37 40 0 0 0
SMALL
GASTEIGER

@<TRIPOS>ATOM
      1 C           1.0035    0.7972   20.0524 C.ar    1  UNL1        0.0908
      2 C           1.0517    0.9849   18.5650 C.ar    1  UNL1        0.1363
      3 N           2.3095    0.3443   18.0575 N.ar    1  UNL1       -0.1661
      4 N           3.0387   -0.2393   19.2312 N.ar    1  UNL1       -0.2459
      5 C           2.2316    0.0406   20.4642 C.ar    1  UNL1        0.1116
      6 C          -0.1858    2.7395   21.3025 C.2     1  UNL1        0.2703
      7 O           0.7960    3.7140   20.7225 O.2     1  UNL1       -0.2681
      8 N          -0.0820    1.2811   20.9675 N.am    1  UNL1       -0.2766
      9 H          -0.7264    0.6415   21.3482 H       1  UNL1        0.1553
     10 C          -3.1054    3.8721   20.3843 C.3     1  UNL1        0.0362
     11 C          -2.6133    3.7440   21.7955 C.ar    1  UNL1        0.0421
     12 C          -1.2714    3.2234   22.2176 C.ar    1  UNL1        0.1723
     13 N          -1.2055    3.2717   23.7154 N.ar    1  UNL1       -0.0726
     14 O          -2.5069    3.8221   24.2190 O.2     1  UNL1       -0.3520
     15 C          -3.3769    4.1140   23.0325 C.ar    1  UNL1        0.1904
     16 C          -4.7665    4.6771   23.0754 C.ar    1  UNL1        0.1181
     17 C          -5.9484    3.7729   22.8857 C.ar    1  UNL1        0.0223
     18 C          -7.3379    4.3359   22.9286 C.ar    1  UNL1        0.0032
     19 C          -7.5459    5.8032   23.1611 C.ar    1  UNL1        0.0207
     20 C          -6.3642    6.7073   23.3508 C.ar    1  UNL1        0.0989
     21 N          -4.9744    6.1443   23.3079 N.ar    1  UNL1       -0.2407
     22 C           4.3456   -0.9739   19.1809 C.3     1  UNL1        0.1274
     23 C           5.1577   -0.9742   17.9197 C.3     1  UNL1        0.0312
     24 C           4.8404   -1.7082   20.3917 C.ar    1  UNL1        0.0038
     25 C           5.5978   -0.9729   21.4573 C.ar    1  UNL1       -0.0025
     26 C           6.0926   -1.7072   22.6680 C.ar    1  UNL1        0.0036
     27 C           5.8298   -3.1768   22.8132 C.ar    1  UNL1        0.0714
     28 C           5.0723   -3.9122   21.7477 C.ar    1  UNL1        0.0074
     29 C           4.5776   -3.1778   20.5369 C.ar    1  UNL1        0.0692
     30 C           6.3246   -3.9111   24.0241 C.3     1  UNL1        0.4186
     31 F           6.8193   -4.6453   25.2349 F       1  UNL1       -0.1659
     32 F           7.0184   -4.9035   23.1388 F       1  UNL1       -0.1659
     33 F           5.6307   -2.9188   24.9093 F       1  UNL1       -0.1659
     34 C           3.8201   -3.9132   19.4713 C.3     1  UNL1        0.4183
     35 F           3.0626   -4.6485   18.4057 F       1  UNL1       -0.1659
     36 F           5.0646   -4.6668   19.1067 F       1  UNL1       -0.1659
     37 F           2.5755   -3.1596   19.8359 F       1  UNL1       -0.1659
@<TRIPOS>BOND
     1    10    11    1
     2    11    12   ar
     3    12     6    1
     4     6     7    2
     5     6     8   am
     6     8     1    1
     7     1     2   ar
     8     2     3   ar
     9     3     4   ar
    10     4    22    1
    11    22    23    1
    12    22    24    1
    13    24    25   ar
    14    25    26   ar
    15    26    27   ar
    16    27    30    1
    17    30    31    1
    18    30    32    1
    19    30    33    1
    20    27    28   ar
    21    28    29   ar
    22    29    34    1
    23    34    35    1
    24    34    36    1
    25    34    37    1
    26     4     5   ar
    27    12    13   ar
    28    13    14   ar
    29    14    15   ar
    30    15    16    1
    31    16    17   ar
    32    17    18   ar
    33    18    19   ar
    34    19    20   ar
    35    20    21   ar
    36    15    11   ar
    37    21    16   ar
    38     5     1   ar
    39    29    24   ar
    40     8     9    1
