@<TRIPOS>MOLECULE
*****
 35 38 0 0 0
SMALL
GASTEIGER

@<TRIPOS>ATOM
      1 C         -10.9889  -19.4786   23.6142 C.3     1  UNL1        0.1697
      2 O         -10.8327  -19.8587   25.0568 O.3     1  UNL1       -0.3793
      3 H         -11.4502  -19.3406   25.5963 H       1  UNL1        0.2106
      4 C         -11.9919  -18.4363   23.2177 C.3     1  UNL1        0.2359
      5 O         -11.6252  -16.9829   23.2736 O.3     1  UNL1       -0.4697
      6 C          -7.3746  -15.7001   25.9731 C.ar    1  UNL1        0.0622
      7 N          -5.9318  -15.2915   26.0075 N.ar    1  UNL1       -0.2283
      8 C          -5.1714  -15.1155   24.7265 C.ar    1  UNL1        0.1985
      9 N          -5.8538  -15.3482   23.4112 N.ar    1  UNL1       -0.2239
     10 C          -7.2966  -15.7569   23.3768 C.ar    1  UNL1        0.0874
     11 C          -7.9791  -15.9896   22.0615 C.ar    1  UNL1        0.0592
     12 C          -9.4219  -16.3983   22.0271 C.ar    1  UNL1        0.1739
     13 C         -10.1823  -16.5742   23.3080 C.ar    1  UNL1        0.1725
     14 C          -9.4999  -16.3415   24.6234 C.ar    1  UNL1        0.0427
     15 C          -8.0570  -15.9328   24.6578 C.ar    1  UNL1        0.0345
     16 C          -8.6132  -14.6742   28.0135 C.3     1  UNL1        0.0067
     17 C          -8.1350  -15.8760   27.2540 C.3     1  UNL1        0.0459
     18 O         -10.1044  -16.6310   20.7117 O.3     1  UNL1       -0.4683
     19 C         -11.1329  -15.6573   20.2178 C.3     1  UNL1        0.2526
     20 C         -10.1420  -20.1409   22.5681 C.3     1  UNL1        0.1020
     21 N          -9.1422  -19.3358   21.7923 N.3     1  UNL1       -0.2971
     22 H          -8.9542  -18.4948   22.3381 H       1  UNL1        0.1233
     23 C          -7.8107  -19.9305   21.4410 C.3     1  UNL1        0.0476
     24 C          -7.9802  -19.4721   20.0228 C.3     1  UNL1        0.0162
     25 C          -7.6412  -20.3889   22.8591 C.3     1  UNL1        0.0162
     26 C          -6.4792  -20.5253   21.0896 C.3     1  UNL1        0.0602
     27 C          -5.2630  -19.6505   21.0160 C.2     1  UNL1        0.0599
     28 C          -4.2174  -19.6830   19.9410 C.2     1  UNL1        0.0159
     29 C          -3.1870  -18.6422   20.2650 C.2     1  UNL1        0.0150
     30 C          -1.9293  -18.2225   19.5635 C.2     1  UNL1        0.0009
     31 C          -1.0803  -17.1270   20.1374 C.2     1  UNL1       -0.0041
     32 C          -1.4891  -16.4513   21.4127 C.2     1  UNL1       -0.0198
     33 C          -2.7468  -16.8710   22.1141 C.3     1  UNL1        0.0717
     34 C          -3.5957  -17.9664   21.5403 C.2     1  UNL1        0.0630
     35 N          -4.8788  -18.5896   22.0044 N.2     1  UNL1       -0.2536
@<TRIPOS>BOND
     1    16    17    1
     2    17     6    1
     3     6     7   ar
     4     7     8   ar
     5     8     9   ar
     6     9    10   ar
     7    10    11   ar
     8    11    12   ar
     9    12    18    1
    10    18    19    1
    11    12    13   ar
    12    13     5    1
    13     5     4    1
    14     4     1    1
    15     1     2    1
    16     1    20    1
    17    20    21    1
    18    21    23    1
    19    23    24    1
    20    23    25    1
    21    23    26    1
    22    26    27    1
    23    27    28    2
    24    28    29    1
    25    29    30    2
    26    30    31    1
    27    31    32    2
    28    32    33    1
    29    33    34    1
    30    34    35    2
    31    13    14   ar
    32    14    15   ar
    33    15     6   ar
    34    15    10   ar
    35    35    27    1
    36    34    29    1
    37     2     3    1
    38    21    22    1
@<TRIPOS>MOLECULE
*****
 35 38 0 0 0
SMALL
GASTEIGER

@<TRIPOS>ATOM
      1 C         -11.6179  -16.9783   20.0961 C.3     1  UNL1        0.1697
      2 O         -12.0177  -15.8334   19.2135 O.3     1  UNL1       -0.3793
      3 H         -11.3172  -15.6662   18.5636 H       1  UNL1        0.2106
      4 C         -10.3006  -17.6639   19.8846 C.3     1  UNL1        0.2359
      5 O          -9.4461  -18.0265   21.0628 O.3     1  UNL1       -0.4697
      6 C          -4.4361  -18.5230   22.3489 C.ar    1  UNL1        0.0622
      7 N          -3.0976  -19.1654   22.1351 N.ar    1  UNL1       -0.2283
      8 C          -2.9255  -20.2019   21.0646 C.ar    1  UNL1        0.1985
      9 N          -4.0919  -20.5960   20.2078 N.ar    1  UNL1       -0.2239
     10 C          -5.4304  -19.9537   20.4216 C.ar    1  UNL1        0.0874
     11 C          -6.5969  -20.3478   19.5648 C.ar    1  UNL1        0.0592
     12 C          -7.9354  -19.7054   19.7786 C.ar    1  UNL1        0.1739
     13 C          -8.1075  -18.6689   20.8491 C.ar    1  UNL1        0.1725
     14 C          -6.9411  -18.2748   21.7059 C.ar    1  UNL1        0.0427
     15 C          -5.6025  -18.9172   21.4921 C.ar    1  UNL1        0.0345
     16 C          -4.1048  -16.0907   23.1998 C.3     1  UNL1        0.0067
     17 C          -4.6082  -17.4865   23.4194 C.3     1  UNL1        0.0459
     18 O          -9.1019  -20.0996   18.9218 O.3     1  UNL1       -0.4683
     19 C          -8.9310  -21.1395   17.8544 C.3     1  UNL1        0.2526
     20 C         -12.5353  -17.4377   21.1903 C.3     1  UNL1        0.1020
     21 N         -12.3300  -18.7802   21.8270 N.3     1  UNL1       -0.2971
     22 H         -11.6919  -19.2981   21.2228 H       1  UNL1        0.1233
     23 C         -11.7798  -18.8738   23.2193 C.3     1  UNL1        0.0476
     24 C         -10.9086  -20.0199   22.7980 C.3     1  UNL1        0.0162
     25 C         -12.6510  -17.7277   23.6406 C.3     1  UNL1        0.0162
     26 C         -11.2296  -18.9673   24.6116 C.3     1  UNL1        0.0602
     27 C         -10.1181  -18.0565   25.0416 C.2     1  UNL1        0.0599
     28 C          -9.4083  -17.0607   24.1730 C.2     1  UNL1        0.0159
     29 C          -8.3727  -16.3703   25.0102 C.2     1  UNL1        0.0150
     30 C          -7.3752  -15.2970   24.6895 C.2     1  UNL1        0.0009
     31 C          -6.4475  -14.7927   25.7550 C.2     1  UNL1       -0.0041
     32 C          -6.5173  -15.3618   27.1411 C.2     1  UNL1       -0.0198
     33 C          -7.5149  -16.4352   27.4617 C.3     1  UNL1        0.0717
     34 C          -8.4425  -16.9395   26.3964 C.2     1  UNL1        0.0630
     35 N          -9.5212  -17.9816   26.4157 N.2     1  UNL1       -0.2536
@<TRIPOS>BOND
     1    16    17    1
     2    17     6    1
     3     6     7   ar
     4     7     8   ar
     5     8     9   ar
     6     9    10   ar
     7    10    11   ar
     8    11    12   ar
     9    12    18    1
    10    18    19    1
    11    12    13   ar
    12    13     5    1
    13     5     4    1
    14     4     1    1
    15     1     2    1
    16     1    20    1
    17    20    21    1
    18    21    23    1
    19    23    24    1
    20    23    25    1
    21    23    26    1
    22    26    27    1
    23    27    28    2
    24    28    29    1
    25    29    30    2
    26    30    31    1
    27    31    32    2
    28    32    33    1
    29    33    34    1
    30    34    35    2
    31    13    14   ar
    32    14    15   ar
    33    15     6   ar
    34    15    10   ar
    35    35    27    1
    36    34    29    1
    37     2     3    1
    38    21    22    1
@<TRIPOS>MOLECULE
*****
 35 38 0 0 0
SMALL
GASTEIGER

@<TRIPOS>ATOM
      1 C         -10.2692  -20.0807   23.2615 C.3     1  UNL1        0.1697
      2 O         -10.9620  -20.0881   24.5919 O.3     1  UNL1       -0.3793
      3 H         -10.3004  -20.1108   25.3009 H       1  UNL1        0.2106
      4 C          -8.7709  -20.1071   23.1961 C.3     1  UNL1        0.2359
      5 O          -8.0166  -18.8794   22.7791 O.3     1  UNL1       -0.4697
      6 C          -2.9669  -18.0029   21.9232 C.ar    1  UNL1        0.0622
      7 N          -1.7573  -18.1280   21.0451 N.ar    1  UNL1       -0.2283
      8 C          -1.8630  -18.8166   19.7166 C.ar    1  UNL1        0.1985
      9 N          -3.1782  -19.3799   19.2663 N.ar    1  UNL1       -0.2239
     10 C          -4.3877  -19.2548   20.1445 C.ar    1  UNL1        0.0874
     11 C          -5.7030  -19.8182   19.6943 C.ar    1  UNL1        0.0592
     12 C          -6.9126  -19.6930   20.5724 C.ar    1  UNL1        0.1739
     13 C          -6.8070  -19.0045   21.9009 C.ar    1  UNL1        0.1725
     14 C          -5.4918  -18.4411   22.3512 C.ar    1  UNL1        0.0427
     15 C          -4.2821  -18.5663   21.4730 C.ar    1  UNL1        0.0345
     16 C          -3.1248  -18.0782   24.5154 C.3     1  UNL1        0.0067
     17 C          -2.8613  -17.3144   23.2517 C.3     1  UNL1        0.0459
     18 O          -8.2279  -20.2564   20.1222 O.3     1  UNL1       -0.4683
     19 C          -8.6038  -20.2158   18.6706 C.3     1  UNL1        0.2526
     20 C         -11.0746  -20.0471   21.9966 C.3     1  UNL1        0.1020
     21 N         -11.8475  -18.8143   21.6322 N.3     1  UNL1       -0.2971
     22 H         -12.6952  -18.8197   22.1995 H       1  UNL1        0.1233
     23 C         -11.2231  -17.4607   21.7996 C.3     1  UNL1        0.0476
     24 C         -12.1256  -17.1887   22.9664 C.3     1  UNL1        0.0162
     25 C         -10.3206  -17.7327   20.6328 C.3     1  UNL1        0.0162
     26 C         -10.5987  -16.1072   21.9671 C.3     1  UNL1        0.0602
     27 C          -9.4483  -15.9236   22.9120 C.2     1  UNL1        0.0599
     28 C          -9.5092  -16.0322   24.4068 C.2     1  UNL1        0.0159
     29 C          -8.1336  -15.7750   24.9466 C.2     1  UNL1        0.0150
     30 C          -7.5928  -15.7498   26.3455 C.2     1  UNL1        0.0009
     31 C          -6.1410  -15.4570   26.5833 C.2     1  UNL1       -0.0041
     32 C          -5.2299  -15.1894   25.4221 C.2     1  UNL1       -0.0198
     33 C          -5.7707  -15.2146   24.0232 C.3     1  UNL1        0.0717
     34 C          -7.2225  -15.5073   23.7854 C.2     1  UNL1        0.0630
     35 N          -8.0350  -15.5992   22.5280 N.2     1  UNL1       -0.2536
@<TRIPOS>BOND
     1    16    17    1
     2    17     6    1
     3     6     7   ar
     4     7     8   ar
     5     8     9   ar
     6     9    10   ar
     7    10    11   ar
     8    11    12   ar
     9    12    18    1
    10    18    19    1
    11    12    13   ar
    12    13     5    1
    13     5     4    1
    14     4     1    1
    15     1     2    1
    16     1    20    1
    17    20    21    1
    18    21    23    1
    19    23    24    1
    20    23    25    1
    21    23    26    1
    22    26    27    1
    23    27    28    2
    24    28    29    1
    25    29    30    2
    26    30    31    1
    27    31    32    2
    28    32    33    1
    29    33    34    1
    30    34    35    2
    31    13    14   ar
    32    14    15   ar
    33    15     6   ar
    34    15    10   ar
    35    35    27    1
    36    34    29    1
    37     2     3    1
    38    21    22    1
@<TRIPOS>MOLECULE
*****
 35 38 0 0 0
SMALL
GASTEIGER

@<TRIPOS>ATOM
      1 C          -9.0921  -19.2309   19.6825 C.3     1  UNL1        0.1697
      2 O          -8.4523  -18.0939   20.4226 O.3     1  UNL1       -0.3793
      3 H          -7.4888  -18.1443   20.3222 H       1  UNL1        0.2106
      4 C          -8.2394  -20.2190   18.9433 C.3     1  UNL1        0.2359
      5 O          -7.1211  -20.9233   19.6529 O.3     1  UNL1       -0.4697
      6 C          -2.6614  -18.3391   20.3115 C.ar    1  UNL1        0.0622
      7 N          -1.7269  -17.5646   21.1928 N.ar    1  UNL1       -0.2283
      8 C          -2.0874  -17.3076   22.6259 C.ar    1  UNL1        0.1985
      9 N          -3.3826  -17.8252   23.1778 N.ar    1  UNL1       -0.2239
     10 C          -4.3172  -18.5997   22.2966 C.ar    1  UNL1        0.0874
     11 C          -5.6124  -19.1172   22.8485 C.ar    1  UNL1        0.0592
     12 C          -6.5470  -19.8918   21.9673 C.ar    1  UNL1        0.1739
     13 C          -6.1864  -20.1487   20.5341 C.ar    1  UNL1        0.1725
     14 C          -4.8913  -19.6312   19.9822 C.ar    1  UNL1        0.0427
     15 C          -3.9566  -18.8567   20.8634 C.ar    1  UNL1        0.0345
     16 C          -2.0231  -17.4456   17.9570 C.3     1  UNL1        0.0067
     17 C          -2.3009  -18.5961   18.8784 C.3     1  UNL1        0.0459
     18 O          -7.8423  -20.4093   22.5192 O.3     1  UNL1       -0.4683
     19 C          -8.6920  -19.5301   23.3879 C.3     1  UNL1        0.2526
     20 C         -10.5847  -19.3799   19.6815 C.3     1  UNL1        0.1020
     21 N         -11.4600  -18.1618   19.6831 N.3     1  UNL1       -0.2971
     22 H         -12.4183  -18.4876   19.5572 H       1  UNL1        0.1233
     23 C         -11.4669  -17.2446   20.8700 C.3     1  UNL1        0.0476
     24 C         -11.2392  -16.0708   19.9644 C.3     1  UNL1        0.0162
     25 C         -11.6946  -18.4185   21.7757 C.3     1  UNL1        0.0162
     26 C         -11.4738  -16.3275   22.0570 C.3     1  UNL1        0.0602
     27 C         -10.2248  -16.1381   22.8657 C.2     1  UNL1        0.0599
     28 C         -10.1335  -16.1501   24.3628 C.2     1  UNL1        0.0159
     29 C          -8.7001  -15.9228   24.7417 C.2     1  UNL1        0.0150
     30 C          -8.0158  -15.8350   26.0736 C.2     1  UNL1        0.0009
     31 C          -6.5367  -15.5947   26.1424 C.2     1  UNL1       -0.0041
     32 C          -5.7420  -15.4423   24.8794 C.2     1  UNL1       -0.0198
     33 C          -6.4264  -15.5301   23.5475 C.3     1  UNL1        0.0717
     34 C          -7.9054  -15.7704   23.4786 C.2     1  UNL1        0.0630
     35 N          -8.8477  -15.9034   22.3192 N.2     1  UNL1       -0.2536
@<TRIPOS>BOND
     1    16    17    1
     2    17     6    1
     3     6     7   ar
     4     7     8   ar
     5     8     9   ar
     6     9    10   ar
     7    10    11   ar
     8    11    12   ar
     9    12    18    1
    10    18    19    1
    11    12    13   ar
    12    13     5    1
    13     5     4    1
    14     4     1    1
    15     1     2    1
    16     1    20    1
    17    20    21    1
    18    21    23    1
    19    23    24    1
    20    23    25    1
    21    23    26    1
    22    26    27    1
    23    27    28    2
    24    28    29    1
    25    29    30    2
    26    30    31    1
    27    31    32    2
    28    32    33    1
    29    33    34    1
    30    34    35    2
    31    13    14   ar
    32    14    15   ar
    33    15     6   ar
    34    15    10   ar
    35    35    27    1
    36    34    29    1
    37     2     3    1
    38    21    22    1
@<TRIPOS>MOLECULE
*****
 35 38 0 0 0
SMALL
GASTEIGER

@<TRIPOS>ATOM
      1 C          -8.5308  -16.0858   26.0696 C.3     1  UNL1        0.1697
      2 O          -7.7432  -15.9418   27.3380 O.3     1  UNL1       -0.3793
      3 H          -8.0202  -16.6238   27.9698 H       1  UNL1        0.2106
      4 C          -9.5590  -17.1707   25.9444 C.3     1  UNL1        0.2359
      5 O          -9.1938  -18.4808   25.3117 O.3     1  UNL1       -0.4697
      6 C          -7.7892  -19.5459   20.4236 C.ar    1  UNL1        0.0622
      7 N          -8.1592  -19.8181   18.9957 N.ar    1  UNL1       -0.2283
      8 C          -9.6015  -19.8300   18.5838 C.ar    1  UNL1        0.1985
      9 N         -10.6738  -19.5697   19.5999 N.ar    1  UNL1       -0.2239
     10 C         -10.3038  -19.2975   21.0278 C.ar    1  UNL1        0.0874
     11 C         -11.3761  -19.0371   22.0439 C.ar    1  UNL1        0.0592
     12 C         -11.0060  -18.7649   23.4718 C.ar    1  UNL1        0.1739
     13 C          -9.5637  -18.7530   23.8837 C.ar    1  UNL1        0.1725
     14 C          -8.4915  -19.0133   22.8676 C.ar    1  UNL1        0.0427
     15 C          -8.8614  -19.2856   21.4396 C.ar    1  UNL1        0.0345
     16 C          -5.4412  -20.6581   20.4279 C.3     1  UNL1        0.0067
     17 C          -6.3469  -19.5340   20.8355 C.3     1  UNL1        0.0459
     18 O         -12.0784  -18.5046   24.4880 O.3     1  UNL1       -0.4683
     19 C         -13.4521  -18.1000   24.0418 C.3     1  UNL1        0.2526
     20 C          -8.2901  -15.1450   24.9264 C.3     1  UNL1        0.1020
     21 N          -6.8891  -14.7588   24.5552 N.3     1  UNL1       -0.2971
     22 H          -6.6379  -13.9628   25.1415 H       1  UNL1        0.1233
     23 C          -5.7772  -15.7577   24.6815 C.3     1  UNL1        0.0476
     24 C          -5.1759  -14.9479   25.7918 C.3     1  UNL1        0.0162
     25 C          -6.3785  -16.5674   23.5712 C.3     1  UNL1        0.0162
     26 C          -4.6654  -16.7566   24.8079 C.3     1  UNL1        0.0602
     27 C          -3.8460  -17.1229   23.6060 C.2     1  UNL1        0.0599
     28 C          -3.5991  -18.5123   23.0976 C.2     1  UNL1        0.0159
     29 C          -2.7302  -18.4123   21.8789 C.2     1  UNL1        0.0150
     30 C          -2.1657  -19.4552   20.9604 C.2     1  UNL1        0.0009
     31 C          -1.3111  -19.0468   19.7972 C.2     1  UNL1       -0.0041
     32 C          -1.0212  -17.5956   19.5525 C.2     1  UNL1       -0.0198
     33 C          -1.5857  -16.5527   20.4710 C.3     1  UNL1        0.0717
     34 C          -2.4402  -16.9610   21.6342 C.2     1  UNL1        0.0630
     35 N          -3.1299  -16.1642   22.7016 N.2     1  UNL1       -0.2536
@<TRIPOS>BOND
     1    16    17    1
     2    17     6    1
     3     6     7   ar
     4     7     8   ar
     5     8     9   ar
     6     9    10   ar
     7    10    11   ar
     8    11    12   ar
     9    12    18    1
    10    18    19    1
    11    12    13   ar
    12    13     5    1
    13     5     4    1
    14     4     1    1
    15     1     2    1
    16     1    20    1
    17    20    21    1
    18    21    23    1
    19    23    24    1
    20    23    25    1
    21    23    26    1
    22    26    27    1
    23    27    28    2
    24    28    29    1
    25    29    30    2
    26    30    31    1
    27    31    32    2
    28    32    33    1
    29    33    34    1
    30    34    35    2
    31    13    14   ar
    32    14    15   ar
    33    15     6   ar
    34    15    10   ar
    35    35    27    1
    36    34    29    1
    37     2     3    1
    38    21    22    1
@<TRIPOS>MOLECULE
*****
 35 38 0 0 0
SMALL
GASTEIGER

@<TRIPOS>ATOM
      1 C          -8.4644  -15.5435   26.2573 C.3     1  UNL1        0.1697
      2 O          -8.4313  -14.8355   27.5792 O.3     1  UNL1       -0.3793
      3 H          -8.7305  -15.4392   28.2770 H       1  UNL1        0.2106
      4 C          -8.9159  -16.9720   26.1828 C.3     1  UNL1        0.2359
      5 O          -8.7393  -17.7491   24.9120 O.3     1  UNL1       -0.4697
      6 C         -10.1739  -15.3444   20.5348 C.ar    1  UNL1        0.0622
      7 N         -11.1482  -15.1703   19.4077 N.ar    1  UNL1       -0.2283
      8 C         -12.3795  -16.0244   19.3420 C.ar    1  UNL1        0.1985
      9 N         -12.6365  -17.0527   20.4034 N.ar    1  UNL1       -0.2239
     10 C         -11.6622  -17.2267   21.5305 C.ar    1  UNL1        0.0874
     11 C         -11.9192  -18.2550   22.5920 C.ar    1  UNL1        0.0592
     12 C         -10.9449  -18.4291   23.7191 C.ar    1  UNL1        0.1739
     13 C          -9.7136  -17.5750   23.7848 C.ar    1  UNL1        0.1725
     14 C          -9.4566  -16.5467   22.7234 C.ar    1  UNL1        0.0427
     15 C         -10.4309  -16.3726   21.5962 C.ar    1  UNL1        0.0345
     16 C          -8.7459  -13.3805   19.6107 C.3     1  UNL1        0.0067
     17 C          -8.9426  -14.4902   20.6005 C.3     1  UNL1        0.0459
     18 O         -11.2019  -19.4574   24.7806 O.3     1  UNL1       -0.4683
     19 C         -10.2295  -20.5805   24.9879 C.3     1  UNL1        0.2526
     20 C          -8.0459  -14.8232   25.0100 C.3     1  UNL1        0.1020
     21 N          -6.5959  -14.5274   24.7653 N.3     1  UNL1       -0.2971
     22 H          -6.2997  -13.8810   25.4967 H       1  UNL1        0.1233
     23 C          -5.5956  -15.6451   24.7443 C.3     1  UNL1        0.0476
     24 C          -5.0500  -15.1816   26.0624 C.3     1  UNL1        0.0162
     25 C          -6.1412  -16.1085   23.4261 C.3     1  UNL1        0.0162
     26 C          -4.5954  -16.7627   24.7232 C.3     1  UNL1        0.0602
     27 C          -4.0446  -17.2517   23.4166 C.2     1  UNL1        0.0599
     28 C          -4.3854  -18.5498   22.7466 C.2     1  UNL1        0.0159
     29 C          -3.6077  -18.6289   21.4664 C.2     1  UNL1        0.0150
     30 C          -3.5415  -19.6770   20.3954 C.2     1  UNL1        0.0009
     31 C          -2.6537  -19.4759   19.2032 C.2     1  UNL1       -0.0041
     32 C          -1.8322  -18.2268   19.0819 C.2     1  UNL1       -0.0198
     33 C          -1.8985  -17.1786   20.1529 C.3     1  UNL1        0.0717
     34 C          -2.7862  -17.3797   21.3451 C.2     1  UNL1        0.0630
     35 N          -3.0562  -16.5286   22.5504 N.2     1  UNL1       -0.2536
@<TRIPOS>BOND
     1    16    17    1
     2    17     6    1
     3     6     7   ar
     4     7     8   ar
     5     8     9   ar
     6     9    10   ar
     7    10    11   ar
     8    11    12   ar
     9    12    18    1
    10    18    19    1
    11    12    13   ar
    12    13     5    1
    13     5     4    1
    14     4     1    1
    15     1     2    1
    16     1    20    1
    17    20    21    1
    18    21    23    1
    19    23    24    1
    20    23    25    1
    21    23    26    1
    22    26    27    1
    23    27    28    2
    24    28    29    1
    25    29    30    2
    26    30    31    1
    27    31    32    2
    28    32    33    1
    29    33    34    1
    30    34    35    2
    31    13    14   ar
    32    14    15   ar
    33    15     6   ar
    34    15    10   ar
    35    35    27    1
    36    34    29    1
    37     2     3    1
    38    21    22    1
@<TRIPOS>MOLECULE
*****
 35 38 0 0 0
SMALL
GASTEIGER

@<TRIPOS>ATOM
      1 C           8.4214   -5.0372   21.5172 C.3     1  UNL1        0.1697
      2 O           9.2400   -5.9835   20.6900 O.3     1  UNL1       -0.3793
      3 H           9.7310   -6.5822   21.2744 H       1  UNL1        0.2106
      4 C           8.4588   -5.1246   23.0141 C.3     1  UNL1        0.2359
      5 O           7.1968   -5.3845   23.7820 O.3     1  UNL1       -0.4697
      6 C           7.3495   -5.1897   28.9723 C.ar    1  UNL1        0.0622
      7 N           7.0859   -4.4545   30.2530 N.ar    1  UNL1       -0.2283
      8 C           6.4825   -3.0817   30.2192 C.ar    1  UNL1        0.1985
      9 N           6.1426   -2.4440   28.9048 N.ar    1  UNL1       -0.2239
     10 C           6.4062   -3.1791   27.6241 C.ar    1  UNL1        0.0874
     11 C           6.0663   -2.5413   26.3096 C.ar    1  UNL1        0.0592
     12 C           6.3298   -3.2765   25.0290 C.ar    1  UNL1        0.1739
     13 C           6.9332   -4.6493   25.0628 C.ar    1  UNL1        0.1725
     14 C           7.2731   -5.2871   26.3772 C.ar    1  UNL1        0.0427
     15 C           7.0096   -4.5519   27.6579 C.ar    1  UNL1        0.0345
     16 C           9.1042   -6.8534   29.9225 C.3     1  UNL1        0.0067
     17 C           7.9529   -6.5625   29.0061 C.3     1  UNL1        0.0459
     18 O           5.9899   -2.6387   23.7145 O.3     1  UNL1       -0.4683
     19 C           4.6315   -2.8413   23.1116 C.3     1  UNL1        0.2526
     20 C           7.5654   -4.0034   20.8474 C.3     1  UNL1        0.1020
     21 N           6.1935   -4.3661   20.3615 N.3     1  UNL1       -0.2971
     22 H           5.5777   -4.3437   21.1743 H       1  UNL1        0.1233
     23 C           5.5334   -3.5428   19.2954 C.3     1  UNL1        0.0476
     24 C           6.3658   -2.3601   19.6935 C.3     1  UNL1        0.0162
     25 C           4.7010   -4.7254   18.8974 C.3     1  UNL1        0.0162
     26 C           4.8733   -2.7194   18.2294 C.3     1  UNL1        0.0602
     27 C           3.8151   -1.7227   18.5991 C.2     1  UNL1        0.0599
     28 C           3.5602   -0.4126   17.9146 C.2     1  UNL1        0.0159
     29 C           2.4136    0.2587   18.6106 C.2     1  UNL1        0.0150
     30 C           1.7240    1.5695   18.3734 C.2     1  UNL1        0.0009
     31 C           0.5806    1.9850   19.2509 C.2     1  UNL1       -0.0041
     32 C           0.1268    1.0898   20.3656 C.2     1  UNL1       -0.0198
     33 C           0.8163   -0.2210   20.6028 C.3     1  UNL1        0.0717
     34 C           1.9597   -0.6366   19.7253 C.2     1  UNL1        0.0630
     35 N           2.8259   -1.8612   19.7182 N.2     1  UNL1       -0.2536
@<TRIPOS>BOND
     1    16    17    1
     2    17     6    1
     3     6     7   ar
     4     7     8   ar
     5     8     9   ar
     6     9    10   ar
     7    10    11   ar
     8    11    12   ar
     9    12    18    1
    10    18    19    1
    11    12    13   ar
    12    13     5    1
    13     5     4    1
    14     4     1    1
    15     1     2    1
    16     1    20    1
    17    20    21    1
    18    21    23    1
    19    23    24    1
    20    23    25    1
    21    23    26    1
    22    26    27    1
    23    27    28    2
    24    28    29    1
    25    29    30    2
    26    30    31    1
    27    31    32    2
    28    32    33    1
    29    33    34    1
    30    34    35    2
    31    13    14   ar
    32    14    15   ar
    33    15     6   ar
    34    15    10   ar
    35    35    27    1
    36    34    29    1
    37     2     3    1
    38    21    22    1
@<TRIPOS>MOLECULE
*****
 35 38 0 0 0
SMALL
GASTEIGER

@<TRIPOS>ATOM
      1 C           3.5211   -0.8970   26.3075 C.3     1  UNL1        0.1697
      2 O           3.3666   -2.0379   27.2690 O.3     1  UNL1       -0.3793
      3 H           3.6510   -2.8612   26.8421 H       1  UNL1        0.2106
      4 C           4.0496   -1.1467   24.9261 C.3     1  UNL1        0.2359
      5 O           3.1917   -0.8547   23.7308 O.3     1  UNL1       -0.4697
      6 C           4.3012   -2.2138   18.8397 C.ar    1  UNL1        0.0622
      7 N           4.9379   -1.9028   17.5177 N.ar    1  UNL1       -0.2283
      8 C           5.6566   -0.6012   17.3191 C.ar    1  UNL1        0.1985
      9 N           5.7386    0.3893   18.4425 N.ar    1  UNL1       -0.2239
     10 C           5.1019    0.0783   19.7645 C.ar    1  UNL1        0.0874
     11 C           5.1839    1.0688   20.8880 C.ar    1  UNL1        0.0592
     12 C           4.5472    0.7578   22.2100 C.ar    1  UNL1        0.1739
     13 C           3.8285   -0.5437   22.4087 C.ar    1  UNL1        0.1725
     14 C           3.7465   -1.5343   21.2853 C.ar    1  UNL1        0.0427
     15 C           4.3832   -1.2233   19.9631 C.ar    1  UNL1        0.0345
     16 C           4.3337   -4.8098   18.9384 C.3     1  UNL1        0.0067
     17 C           3.5825   -3.5153   19.0383 C.3     1  UNL1        0.0459
     18 O           4.6292    1.7483   23.3335 O.3     1  UNL1       -0.4683
     19 C           5.9233    1.9469   24.0654 C.3     1  UNL1        0.2526
     20 C           3.1470    0.4936   26.7275 C.3     1  UNL1        0.1020
     21 N           1.7090    0.9199   26.7139 N.3     1  UNL1       -0.2971
     22 H           1.5377    1.4062   27.5940 H       1  UNL1        0.1233
     23 C           1.2016    1.8123   25.6202 C.3     1  UNL1        0.0476
     24 C          -0.1336    1.1317   25.6843 C.3     1  UNL1        0.0162
     25 C           2.5367    2.4929   25.5560 C.3     1  UNL1        0.0162
     26 C           0.6942    2.7046   24.5265 C.3     1  UNL1        0.0602
     27 C           0.9466    2.3497   23.0911 C.2     1  UNL1        0.0599
     28 C           1.6522    3.2064   22.0820 C.2     1  UNL1        0.0159
     29 C           1.6795    2.4619   20.7801 C.2     1  UNL1        0.0150
     30 C           2.2425    2.8129   19.4348 C.2     1  UNL1        0.0009
     31 C           2.1168    1.8471   18.2939 C.2     1  UNL1       -0.0041
     32 C           1.4281    0.5304   18.4984 C.2     1  UNL1       -0.0198
     33 C           0.8651    0.1794   19.8437 C.3     1  UNL1        0.0717
     34 C           0.9908    1.1451   20.9845 C.2     1  UNL1        0.0630
     35 N           0.5379    1.0758   22.4128 N.2     1  UNL1       -0.2536
@<TRIPOS>BOND
     1    16    17    1
     2    17     6    1
     3     6     7   ar
     4     7     8   ar
     5     8     9   ar
     6     9    10   ar
     7    10    11   ar
     8    11    12   ar
     9    12    18    1
    10    18    19    1
    11    12    13   ar
    12    13     5    1
    13     5     4    1
    14     4     1    1
    15     1     2    1
    16     1    20    1
    17    20    21    1
    18    21    23    1
    19    23    24    1
    20    23    25    1
    21    23    26    1
    22    26    27    1
    23    27    28    2
    24    28    29    1
    25    29    30    2
    26    30    31    1
    27    31    32    2
    28    32    33    1
    29    33    34    1
    30    34    35    2
    31    13    14   ar
    32    14    15   ar
    33    15     6   ar
    34    15    10   ar
    35    35    27    1
    36    34    29    1
    37     2     3    1
    38    21    22    1
@<TRIPOS>MOLECULE
*****
 35 38 0 0 0
SMALL
GASTEIGER

@<TRIPOS>ATOM
      1 C           3.0943   -0.3653   27.3702 C.3     1  UNL1        0.1697
      2 O           3.1586   -1.8636   27.3994 O.3     1  UNL1       -0.3793
      3 H           3.2970   -2.1989   26.4998 H       1  UNL1        0.2106
      4 C           3.2391    0.3663   26.0688 C.3     1  UNL1        0.2359
      5 O           4.4652    0.1660   25.2281 O.3     1  UNL1       -0.4697
      6 C           3.2406   -1.8094   20.5807 C.ar    1  UNL1        0.0622
      7 N           3.2965   -2.9366   19.5927 N.ar    1  UNL1       -0.2283
      8 C           4.0206   -4.2034   19.9403 C.ar    1  UNL1        0.1985
      9 N           4.6889   -4.3430   21.2760 N.ar    1  UNL1       -0.2239
     10 C           4.6329   -3.2158   22.2640 C.ar    1  UNL1        0.0874
     11 C           5.3012   -3.3553   23.5997 C.ar    1  UNL1        0.0592
     12 C           5.2453   -2.2281   24.5877 C.ar    1  UNL1        0.1739
     13 C           4.5211   -0.9613   24.2401 C.ar    1  UNL1        0.1725
     14 C           3.8529   -0.8217   22.9044 C.ar    1  UNL1        0.0427
     15 C           3.9088   -1.9490   21.9163 C.ar    1  UNL1        0.0345
     16 C           1.0188   -0.5335   20.1497 C.3     1  UNL1        0.0067
     17 C           2.5164   -0.5426   20.2331 C.3     1  UNL1        0.0459
     18 O           5.9135   -2.3676   25.9234 O.3     1  UNL1       -0.4683
     19 C           6.7233   -3.5918   26.2327 C.3     1  UNL1        0.2526
     20 C           2.8851    0.4014   28.6423 C.3     1  UNL1        0.1020
     21 N           1.5465    0.3814   29.3187 N.3     1  UNL1       -0.2971
     22 H           1.6567    0.8750   30.2044 H       1  UNL1        0.1233
     23 C           0.3521    0.9789   28.6357 C.3     1  UNL1        0.0476
     24 C           1.0380    2.3124   28.6028 C.3     1  UNL1        0.0162
     25 C          -0.3338   -0.3547   28.6686 C.3     1  UNL1        0.0162
     26 C          -0.8423    1.5763   27.9527 C.3     1  UNL1        0.0602
     27 C          -0.7435    2.0242   26.5246 C.2     1  UNL1        0.0599
     28 C          -0.0183    1.3079   25.4241 C.2     1  UNL1        0.0159
     29 C          -0.1792    2.1080   24.1655 C.2     1  UNL1        0.0150
     30 C           0.3187    1.8904   22.7674 C.2     1  UNL1        0.0009
     31 C          -0.0081    2.8837   21.6918 C.2     1  UNL1       -0.0041
     32 C          -0.8327    4.0944   22.0145 C.2     1  UNL1       -0.0198
     33 C          -1.3306    4.3119   23.4126 C.3     1  UNL1        0.0717
     34 C          -1.0039    3.3187   24.4881 C.2     1  UNL1        0.0630
     35 N          -1.3526    3.2669   25.9461 N.2     1  UNL1       -0.2536
@<TRIPOS>BOND
     1    16    17    1
     2    17     6    1
     3     6     7   ar
     4     7     8   ar
     5     8     9   ar
     6     9    10   ar
     7    10    11   ar
     8    11    12   ar
     9    12    18    1
    10    18    19    1
    11    12    13   ar
    12    13     5    1
    13     5     4    1
    14     4     1    1
    15     1     2    1
    16     1    20    1
    17    20    21    1
    18    21    23    1
    19    23    24    1
    20    23    25    1
    21    23    26    1
    22    26    27    1
    23    27    28    2
    24    28    29    1
    25    29    30    2
    26    30    31    1
    27    31    32    2
    28    32    33    1
    29    33    34    1
    30    34    35    2
    31    13    14   ar
    32    14    15   ar
    33    15     6   ar
    34    15    10   ar
    35    35    27    1
    36    34    29    1
    37     2     3    1
    38    21    22    1
