@<TRIPOS>MOLECULE
*****
 24 26 0 0 0
SMALL
GASTEIGER

@<TRIPOS>ATOM
      1 C          -8.5825  -17.1804   23.9243 C.2     1  UNL1       -0.0245
      2 C          -9.6965  -17.9207   24.6032 C.2     1  UNL1       -0.0421
      3 C          -9.6141  -17.6353   26.0735 C.3     1  UNL1        0.0480
      4 C          -8.4492  -16.7188   26.3033 C.ar    1  UNL1       -0.0184
      5 C          -7.8866  -16.1039   27.5505 C.ar    1  UNL1       -0.0040
      6 C          -6.6865  -15.2078   27.4693 C.ar    1  UNL1       -0.0003
      7 C          -6.0489  -14.9266   26.1410 C.ar    1  UNL1       -0.0000
      8 C          -6.6114  -15.5415   24.8939 C.ar    1  UNL1       -0.0006
      9 C          -7.8116  -16.4376   24.9750 C.ar    1  UNL1       -0.0079
     10 C          -8.2905  -17.1826   22.4530 C.3     1  UNL1        0.0666
     11 C          -8.9695  -16.1938   21.5522 C.3     1  UNL1        0.0112
     12 C          -7.8100  -19.2770   20.9927 C.ar    1  UNL1        0.2393
     13 N          -6.8390  -20.2678   20.4222 N.ar    1  UNL1       -0.2075
     14 C          -5.3777  -20.1550   20.7413 C.ar    1  UNL1        0.1227
     15 C          -4.8873  -19.0514   21.6310 C.ar    1  UNL1        0.1193
     16 N          -5.8583  -18.0606   22.2016 N.ar    1  UNL1       -0.2415
     17 C          -7.3196  -18.1733   21.8824 C.ar    1  UNL1        0.1156
     18 C          -9.7105  -19.7301   19.2803 C.3     1  UNL1        0.2543
     19 O          -9.2712  -19.3898   20.6736 O.3     1  UNL1       -0.4553
     20 C         -10.7142  -18.7930   23.9300 C.3     1  UNL1        0.0394
     21 C         -12.0843  -18.2577   23.6365 C.3     1  UNL1        0.0765
     22 N         -12.2903  -17.3112   22.4912 N.3     1  UNL1       -0.2700
     23 C         -12.3999  -15.8372   22.7469 C.3     1  UNL1        0.0897
     24 C         -12.3866  -17.8386   21.0904 C.3     1  UNL1        0.0897
@<TRIPOS>BOND
     1    18    19    1
     2    19    12    1
     3    12    13   ar
     4    13    14   ar
     5    14    15   ar
     6    15    16   ar
     7    16    17   ar
     8    17    10    1
     9    10    11    1
    10    10     1    1
    11     1     2    2
    12     2    20    1
    13    20    21    1
    14    21    22    1
    15    22    23    1
    16    22    24    1
    17     2     3    1
    18     3     4    1
    19     4     5   ar
    20     5     6   ar
    21     6     7   ar
    22     7     8   ar
    23     8     9   ar
    24    17    12   ar
    25     9     1    1
    26     9     4   ar
@<TRIPOS>MOLECULE
*****
 24 26 0 0 0
SMALL
GASTEIGER

@<TRIPOS>ATOM
      1 C          -8.6349  -17.0901   23.8110 C.2     1  UNL1       -0.0245
      2 C          -9.6868  -17.9858   24.3952 C.2     1  UNL1       -0.0421
      3 C          -9.6428  -17.8403   25.8874 C.3     1  UNL1        0.0480
      4 C          -8.5638  -16.8547   26.2255 C.ar    1  UNL1       -0.0184
      5 C          -8.0680  -16.3195   27.5361 C.ar    1  UNL1       -0.0040
      6 C          -6.9493  -15.3207   27.5634 C.ar    1  UNL1       -0.0003
      7 C          -6.3264  -14.8570   26.2801 C.ar    1  UNL1       -0.0000
      8 C          -6.8222  -15.3922   24.9695 C.ar    1  UNL1       -0.0006
      9 C          -7.9409  -16.3910   24.9422 C.ar    1  UNL1       -0.0079
     10 C          -8.3305  -16.9228   22.3517 C.3     1  UNL1        0.0666
     11 C          -8.6334  -15.6231   21.6666 C.3     1  UNL1        0.0112
     12 C          -6.3003  -18.4574   21.8291 C.ar    1  UNL1        0.2393
     13 N          -5.6931  -19.5896   21.0549 N.ar    1  UNL1       -0.2075
     14 C          -6.5088  -20.3194   20.0292 C.ar    1  UNL1        0.1227
     15 C          -7.9318  -19.9170   19.7777 C.ar    1  UNL1        0.1193
     16 N          -8.5390  -18.7848   20.5519 N.ar    1  UNL1       -0.2415
     17 C          -7.7233  -18.0549   21.5776 C.ar    1  UNL1        0.1156
     18 C          -4.0383  -18.0752   23.0485 C.3     1  UNL1        0.2543
     19 O          -5.4845  -17.7276   22.8547 O.3     1  UNL1       -0.4553
     20 C         -10.6190  -18.8714   23.6227 C.3     1  UNL1        0.0394
     21 C         -11.9567  -18.3525   23.1856 C.3     1  UNL1        0.0765
     22 N         -12.0404  -17.2846   22.1356 N.3     1  UNL1       -0.2700
     23 C         -12.2921  -15.8602   22.5328 C.3     1  UNL1        0.0897
     24 C         -11.8723  -17.6411   20.6883 C.3     1  UNL1        0.0897
@<TRIPOS>BOND
     1    18    19    1
     2    19    12    1
     3    12    13   ar
     4    13    14   ar
     5    14    15   ar
     6    15    16   ar
     7    16    17   ar
     8    17    10    1
     9    10    11    1
    10    10     1    1
    11     1     2    2
    12     2    20    1
    13    20    21    1
    14    21    22    1
    15    22    23    1
    16    22    24    1
    17     2     3    1
    18     3     4    1
    19     4     5   ar
    20     5     6   ar
    21     6     7   ar
    22     7     8   ar
    23     8     9   ar
    24    17    12   ar
    25     9     1    1
    26     9     4   ar
@<TRIPOS>MOLECULE
*****
 24 26 0 0 0
SMALL
GASTEIGER

@<TRIPOS>ATOM
      1 C          -7.9797  -18.4659   22.5488 C.2     1  UNL1       -0.0245
      2 C          -7.4284  -17.2782   23.2804 C.2     1  UNL1       -0.0421
      3 C          -5.9489  -17.2306   23.0384 C.3     1  UNL1        0.0480
      4 C          -5.5857  -18.3889   22.1572 C.ar    1  UNL1       -0.0184
      5 C          -4.2743  -18.8470   21.5913 C.ar    1  UNL1       -0.0040
      6 C          -4.2181  -20.0687   20.7228 C.ar    1  UNL1       -0.0003
      7 C          -5.4733  -20.8321   20.4201 C.ar    1  UNL1       -0.0000
      8 C          -6.7847  -20.3740   20.9860 C.ar    1  UNL1       -0.0006
      9 C          -6.8409  -19.1524   21.8546 C.ar    1  UNL1       -0.0079
     10 C          -9.4175  -18.8924   22.5168 C.3     1  UNL1        0.0666
     11 C          -9.8230  -20.2081   23.1123 C.3     1  UNL1        0.0112
     12 C         -10.5172  -17.8691   20.3970 C.ar    1  UNL1        0.2393
     13 N         -11.5495  -16.9799   19.7698 N.ar    1  UNL1       -0.2075
     14 C         -12.5146  -16.2248   20.6349 C.ar    1  UNL1        0.1227
     15 C         -12.4473  -16.3589   22.1274 C.ar    1  UNL1        0.1193
     16 N         -11.4150  -17.2481   22.7547 N.ar    1  UNL1       -0.2415
     17 C         -10.4498  -18.0032   21.8895 C.ar    1  UNL1        0.1156
     18 C          -9.8895  -20.0085   19.0633 C.3     1  UNL1        0.2543
     19 O          -9.5521  -18.6241   19.5318 O.3     1  UNL1       -0.4553
     20 C          -8.2181  -16.3084   24.1086 C.3     1  UNL1        0.0394
     21 C          -7.5263  -15.1605   24.7823 C.3     1  UNL1        0.0765
     22 N          -6.7606  -15.3871   26.0521 N.3     1  UNL1       -0.2700
     23 C          -7.4831  -15.8007   27.3000 C.3     1  UNL1        0.0897
     24 C          -5.2725  -15.2002   26.0741 C.3     1  UNL1        0.0897
@<TRIPOS>BOND
     1    18    19    1
     2    19    12    1
     3    12    13   ar
     4    13    14   ar
     5    14    15   ar
     6    15    16   ar
     7    16    17   ar
     8    17    10    1
     9    10    11    1
    10    10     1    1
    11     1     2    2
    12     2    20    1
    13    20    21    1
    14    21    22    1
    15    22    23    1
    16    22    24    1
    17     2     3    1
    18     3     4    1
    19     4     5   ar
    20     5     6   ar
    21     6     7   ar
    22     7     8   ar
    23     8     9   ar
    24    17    12   ar
    25     9     1    1
    26     9     4   ar
@<TRIPOS>MOLECULE
*****
 24 26 0 0 0
SMALL
GASTEIGER

@<TRIPOS>ATOM
      1 C          -6.9775  -18.5502   21.8060 C.2     1  UNL1       -0.0245
      2 C          -6.6801  -17.5156   22.8506 C.2     1  UNL1       -0.0421
      3 C          -5.1972  -17.4978   23.0763 C.3     1  UNL1        0.0480
      4 C          -4.5782  -18.5214   22.1712 C.ar    1  UNL1       -0.0184
      5 C          -3.1549  -18.9452   21.9605 C.ar    1  UNL1       -0.0040
      6 C          -2.8318  -20.0194   20.9648 C.ar    1  UNL1       -0.0003
      7 C          -3.9321  -20.6698   20.1797 C.ar    1  UNL1       -0.0000
      8 C          -5.3554  -20.2460   20.3904 C.ar    1  UNL1       -0.0006
      9 C          -5.6785  -19.1718   21.3861 C.ar    1  UNL1       -0.0079
     10 C          -8.3355  -18.9015   21.2746 C.3     1  UNL1        0.0666
     11 C          -8.4844  -19.3997   19.8675 C.3     1  UNL1        0.0112
     12 C         -10.5362  -17.6616   21.8824 C.ar    1  UNL1        0.2393
     13 N         -11.7453  -17.5149   22.7580 N.ar    1  UNL1       -0.2075
     14 C         -11.9627  -18.4613   23.9012 C.ar    1  UNL1        0.1227
     15 C         -10.9711  -19.5545   24.1690 C.ar    1  UNL1        0.1193
     16 N          -9.7620  -19.7012   23.2934 N.ar    1  UNL1       -0.2415
     17 C          -9.5445  -18.7548   22.1501 C.ar    1  UNL1        0.1156
     18 C         -11.4679  -16.3304   19.8552 C.3     1  UNL1        0.2543
     19 O         -10.3188  -16.7152   20.7392 O.3     1  UNL1       -0.4553
     20 C          -7.6884  -16.6507   23.5472 C.3     1  UNL1        0.0394
     21 C          -7.2514  -15.3851   24.2234 C.3     1  UNL1        0.0765
     22 N          -6.8895  -15.3989   25.6790 N.3     1  UNL1       -0.2700
     23 C          -7.9634  -15.5343   26.7176 C.3     1  UNL1        0.0897
     24 C          -5.4539  -15.2773   26.0962 C.3     1  UNL1        0.0897
@<TRIPOS>BOND
     1    18    19    1
     2    19    12    1
     3    12    13   ar
     4    13    14   ar
     5    14    15   ar
     6    15    16   ar
     7    16    17   ar
     8    17    10    1
     9    10    11    1
    10    10     1    1
    11     1     2    2
    12     2    20    1
    13    20    21    1
    14    21    22    1
    15    22    23    1
    16    22    24    1
    17     2     3    1
    18     3     4    1
    19     4     5   ar
    20     5     6   ar
    21     6     7   ar
    22     7     8   ar
    23     8     9   ar
    24    17    12   ar
    25     9     1    1
    26     9     4   ar
@<TRIPOS>MOLECULE
*****
 24 26 0 0 0
SMALL
GASTEIGER

@<TRIPOS>ATOM
      1 C          -8.6629  -17.0560   22.5017 C.2     1  UNL1       -0.0245
      2 C          -8.0408  -18.3663   22.1197 C.2     1  UNL1       -0.0421
      3 C          -9.1450  -19.3178   21.7655 C.3     1  UNL1        0.0480
      4 C         -10.4495  -18.5954   21.9285 C.ar    1  UNL1       -0.0184
      5 C         -11.8702  -19.0300   21.7215 C.ar    1  UNL1       -0.0040
      6 C         -12.9928  -18.0666   21.9695 C.ar    1  UNL1       -0.0003
      7 C         -12.6948  -16.6687   22.4245 C.ar    1  UNL1       -0.0000
      8 C         -11.2742  -16.2342   22.6316 C.ar    1  UNL1       -0.0006
      9 C         -10.1515  -17.1975   22.3836 C.ar    1  UNL1       -0.0079
     10 C          -7.9258  -15.8208   22.9272 C.3     1  UNL1        0.0666
     11 C          -7.6359  -14.7391   21.9291 C.3     1  UNL1        0.0112
     12 C          -6.0206  -15.5079   24.6658 C.ar    1  UNL1        0.2393
     13 N          -5.5734  -15.3543   26.0893 N.ar    1  UNL1       -0.2075
     14 C          -6.5840  -15.3600   27.1977 C.ar    1  UNL1        0.1227
     15 C          -8.0419  -15.5193   26.8827 C.ar    1  UNL1        0.1193
     16 N          -8.4891  -15.6729   25.4592 N.ar    1  UNL1       -0.2415
     17 C          -7.4785  -15.6672   24.3506 C.ar    1  UNL1        0.1156
     18 C          -3.9915  -16.5996   23.4654 C.3     1  UNL1        0.2543
     19 O          -5.0100  -15.5022   23.5574 O.3     1  UNL1       -0.4553
     20 C          -6.5724  -18.6717   22.0961 C.3     1  UNL1        0.0394
     21 C          -5.9456  -19.2459   20.8603 C.3     1  UNL1        0.0765
     22 N          -4.4531  -19.2527   20.7102 N.3     1  UNL1       -0.2700
     23 C          -3.5891  -19.7535   21.8295 C.3     1  UNL1        0.0897
     24 C          -3.8247  -18.7589   19.4409 C.3     1  UNL1        0.0897
@<TRIPOS>BOND
     1    18    19    1
     2    19    12    1
     3    12    13   ar
     4    13    14   ar
     5    14    15   ar
     6    15    16   ar
     7    16    17   ar
     8    17    10    1
     9    10    11    1
    10    10     1    1
    11     1     2    2
    12     2    20    1
    13    20    21    1
    14    21    22    1
    15    22    23    1
    16    22    24    1
    17     2     3    1
    18     3     4    1
    19     4     5   ar
    20     5     6   ar
    21     6     7   ar
    22     7     8   ar
    23     8     9   ar
    24    17    12   ar
    25     9     1    1
    26     9     4   ar
@<TRIPOS>MOLECULE
*****
 24 26 0 0 0
SMALL
GASTEIGER

@<TRIPOS>ATOM
      1 C          -7.1960  -18.5091   21.5694 C.2     1  UNL1       -0.0245
      2 C          -6.9694  -17.6059   22.7453 C.2     1  UNL1       -0.0421
      3 C          -5.5188  -17.6858   23.1184 C.3     1  UNL1        0.0480
      4 C          -4.8487  -18.6383   22.1730 C.ar    1  UNL1       -0.0184
      5 C          -3.4287  -19.1081   22.0602 C.ar    1  UNL1       -0.0040
      6 C          -3.0453  -20.0867   20.9901 C.ar    1  UNL1       -0.0003
      7 C          -4.0819  -20.5956   20.0328 C.ar    1  UNL1       -0.0000
      8 C          -5.5019  -20.1258   20.1455 C.ar    1  UNL1       -0.0006
      9 C          -5.8853  -19.1472   21.2157 C.ar    1  UNL1       -0.0079
     10 C          -8.5036  -18.7347   20.8699 C.3     1  UNL1        0.0666
     11 C          -8.5565  -19.5835   19.6342 C.3     1  UNL1        0.0112
     12 C         -10.5965  -18.8530   22.4046 C.ar    1  UNL1        0.2393
     13 N         -11.8512  -18.2298   22.9407 N.ar    1  UNL1       -0.2075
     14 C         -12.2676  -16.8650   22.4781 C.ar    1  UNL1        0.1227
     15 C         -11.4293  -16.1234   21.4794 C.ar    1  UNL1        0.1193
     16 N         -10.1747  -16.7467   20.9434 N.ar    1  UNL1       -0.2415
     17 C          -9.7582  -18.1115   21.4060 C.ar    1  UNL1        0.1156
     18 C          -9.5605  -20.3939   24.2219 C.3     1  UNL1        0.2543
     19 O         -10.1802  -20.2178   22.8673 O.3     1  UNL1       -0.4553
     20 C          -8.0107  -16.7696   23.4283 C.3     1  UNL1        0.0394
     21 C          -7.6295  -15.4610   24.0544 C.3     1  UNL1        0.0765
     22 N          -7.2140  -15.4115   25.4948 N.3     1  UNL1       -0.2700
     23 C          -5.7673  -15.2411   25.8527 C.3     1  UNL1        0.0897
     24 C          -8.2452  -15.5324   26.5774 C.3     1  UNL1        0.0897
@<TRIPOS>BOND
     1    18    19    1
     2    19    12    1
     3    12    13   ar
     4    13    14   ar
     5    14    15   ar
     6    15    16   ar
     7    16    17   ar
     8    17    10    1
     9    10    11    1
    10    10     1    1
    11     1     2    2
    12     2    20    1
    13    20    21    1
    14    21    22    1
    15    22    23    1
    16    22    24    1
    17     2     3    1
    18     3     4    1
    19     4     5   ar
    20     5     6   ar
    21     6     7   ar
    22     7     8   ar
    23     8     9   ar
    24    17    12   ar
    25     9     1    1
    26     9     4   ar
@<TRIPOS>MOLECULE
*****
 24 26 0 0 0
SMALL
GASTEIGER

@<TRIPOS>ATOM
      1 C          -8.2615  -17.4750   23.7668 C.2     1  UNL1       -0.0245
      2 C          -7.1016  -17.4312   22.8166 C.2     1  UNL1       -0.0421
      3 C          -6.0303  -16.5805   23.4319 C.3     1  UNL1        0.0480
      4 C          -6.5280  -16.0985   24.7623 C.ar    1  UNL1       -0.0184
      5 C          -5.9038  -15.2277   25.8119 C.ar    1  UNL1       -0.0040
      6 C          -6.6584  -14.9097   27.0686 C.ar    1  UNL1       -0.0003
      7 C          -8.0374  -15.4625   27.2756 C.ar    1  UNL1       -0.0000
      8 C          -8.6617  -16.3334   26.2260 C.ar    1  UNL1       -0.0006
      9 C          -7.9070  -16.6514   24.9693 C.ar    1  UNL1       -0.0079
     10 C          -9.5497  -18.2129   23.5522 C.3     1  UNL1        0.0666
     11 C          -9.7869  -19.5240   24.2416 C.3     1  UNL1        0.0112
     12 C         -10.8726  -18.2753   21.3171 C.ar    1  UNL1        0.2393
     13 N         -11.9237  -17.7022   20.4133 N.ar    1  UNL1       -0.2075
     14 C         -12.7028  -16.4939   20.8407 C.ar    1  UNL1        0.1227
     15 C         -12.4309  -15.8585   22.1720 C.ar    1  UNL1        0.1193
     16 N         -11.3799  -16.4315   23.0759 N.ar    1  UNL1       -0.2415
     17 C         -10.6007  -17.6400   22.6484 C.ar    1  UNL1        0.1156
     18 C          -9.7653  -19.6904   19.4406 C.3     1  UNL1        0.2543
     19 O         -10.0935  -19.4837   20.8896 O.3     1  UNL1       -0.4553
     20 C          -7.0263  -18.1177   21.4850 C.3     1  UNL1        0.0394
     21 C          -6.2011  -19.3602   21.3274 C.3     1  UNL1        0.0765
     22 N          -4.7212  -19.2548   21.1067 N.3     1  UNL1       -0.2700
     23 C          -3.7802  -19.3574   22.2704 C.3     1  UNL1        0.0897
     24 C          -4.1822  -19.0467   19.7225 C.3     1  UNL1        0.0897
@<TRIPOS>BOND
     1    18    19    1
     2    19    12    1
     3    12    13   ar
     4    13    14   ar
     5    14    15   ar
     6    15    16   ar
     7    16    17   ar
     8    17    10    1
     9    10    11    1
    10    10     1    1
    11     1     2    2
    12     2    20    1
    13    20    21    1
    14    21    22    1
    15    22    23    1
    16    22    24    1
    17     2     3    1
    18     3     4    1
    19     4     5   ar
    20     5     6   ar
    21     6     7   ar
    22     7     8   ar
    23     8     9   ar
    24    17    12   ar
    25     9     1    1
    26     9     4   ar
@<TRIPOS>MOLECULE
*****
 24 26 0 0 0
SMALL
GASTEIGER

@<TRIPOS>ATOM
      1 C          -6.6552  -17.8375   22.6063 C.2     1  UNL1       -0.0245
      2 C          -7.2834  -19.0958   22.0845 C.2     1  UNL1       -0.0421
      3 C          -6.1820  -20.0340   21.6888 C.3     1  UNL1        0.0480
      4 C          -4.8731  -19.3557   21.9661 C.ar    1  UNL1       -0.0184
      5 C          -3.4528  -19.7988   21.7755 C.ar    1  UNL1       -0.0040
      6 C          -2.3250  -18.8843   22.1519 C.ar    1  UNL1       -0.0003
      7 C          -2.6175  -17.5267   22.7189 C.ar    1  UNL1       -0.0000
      8 C          -4.0378  -17.0837   22.9095 C.ar    1  UNL1       -0.0006
      9 C          -5.1656  -17.9981   22.5331 C.ar    1  UNL1       -0.0079
     10 C          -7.3880  -16.6305   23.1124 C.3     1  UNL1        0.0666
     11 C          -8.1472  -15.7585   22.1566 C.3     1  UNL1        0.0112
     12 C          -8.5076  -16.6944   25.4559 C.ar    1  UNL1        0.2393
     13 N          -8.4812  -16.3592   26.9177 N.ar    1  UNL1       -0.2075
     14 C          -7.3090  -15.6249   27.4978 C.ar    1  UNL1        0.1227
     15 C          -6.1630  -15.2258   26.6161 C.ar    1  UNL1        0.1193
     16 N          -6.1893  -15.5610   25.1543 N.ar    1  UNL1       -0.2415
     17 C          -7.3617  -16.2953   24.5741 C.ar    1  UNL1        0.1156
     18 C          -9.9913  -18.8235   25.3314 C.3     1  UNL1        0.2543
     19 O          -9.6800  -17.4287   24.8759 O.3     1  UNL1       -0.4553
     20 C          -8.7546  -19.3679   21.9772 C.3     1  UNL1        0.0394
     21 C          -9.5131  -18.9222   20.7624 C.3     1  UNL1        0.0765
     22 N         -10.8107  -18.1857   20.9168 N.3     1  UNL1       -0.2700
     23 C         -11.7438  -18.5371   22.0375 C.3     1  UNL1        0.0897
     24 C         -11.1752  -17.0979   19.9505 C.3     1  UNL1        0.0897
@<TRIPOS>BOND
     1    18    19    1
     2    19    12    1
     3    12    13   ar
     4    13    14   ar
     5    14    15   ar
     6    15    16   ar
     7    16    17   ar
     8    17    10    1
     9    10    11    1
    10    10     1    1
    11     1     2    2
    12     2    20    1
    13    20    21    1
    14    21    22    1
    15    22    23    1
    16    22    24    1
    17     2     3    1
    18     3     4    1
    19     4     5   ar
    20     5     6   ar
    21     6     7   ar
    22     7     8   ar
    23     8     9   ar
    24    17    12   ar
    25     9     1    1
    26     9     4   ar
@<TRIPOS>MOLECULE
*****
 24 26 0 0 0
SMALL
GASTEIGER

@<TRIPOS>ATOM
      1 C          -7.1531  -18.2457   22.1862 C.2     1  UNL1       -0.0245
      2 C          -5.7881  -18.8509   22.0433 C.2     1  UNL1       -0.0421
      3 C          -4.8387  -18.0590   22.8927 C.3     1  UNL1        0.0480
      4 C          -5.6170  -16.9643   23.5605 C.ar    1  UNL1       -0.0184
      5 C          -5.2080  -15.8773   24.5098 C.ar    1  UNL1       -0.0040
      6 C          -6.2293  -14.9057   25.0224 C.ar    1  UNL1       -0.0003
      7 C          -7.6597  -15.0211   24.5857 C.ar    1  UNL1       -0.0000
      8 C          -8.0687  -16.1081   23.6364 C.ar    1  UNL1       -0.0006
      9 C          -7.0473  -17.0797   23.1238 C.ar    1  UNL1       -0.0079
     10 C          -8.4042  -18.7227   21.5100 C.3     1  UNL1        0.0666
     11 C          -8.3276  -19.3611   20.1548 C.3     1  UNL1        0.0112
     12 C         -10.7245  -17.5646   21.6682 C.ar    1  UNL1        0.2393
     13 N         -12.0522  -17.4033   22.3473 N.ar    1  UNL1       -0.2075
     14 C         -12.3874  -18.2387   23.5472 C.ar    1  UNL1        0.1227
     15 C         -11.3948  -19.2355   24.0681 C.ar    1  UNL1        0.1193
     16 N         -10.0671  -19.3968   23.3890 N.ar    1  UNL1       -0.2415
     17 C          -9.7319  -18.5614   22.1890 C.ar    1  UNL1        0.1156
     18 C         -11.4778  -16.0117   19.7264 C.3     1  UNL1        0.2543
     19 O         -10.3894  -16.7292   20.4684 O.3     1  UNL1       -0.4553
     20 C          -5.4345  -20.0395   21.1993 C.3     1  UNL1        0.0394
     21 C          -4.5771  -19.8657   19.9809 C.3     1  UNL1        0.0765
     22 N          -3.1800  -19.3365   20.1162 N.3     1  UNL1       -0.2700
     23 C          -2.6781  -18.2923   19.1634 C.3     1  UNL1        0.0897
     24 C          -2.2850  -19.8515   21.2041 C.3     1  UNL1        0.0897
@<TRIPOS>BOND
     1    18    19    1
     2    19    12    1
     3    12    13   ar
     4    13    14   ar
     5    14    15   ar
     6    15    16   ar
     7    16    17   ar
     8    17    10    1
     9    10    11    1
    10    10     1    1
    11     1     2    2
    12     2    20    1
    13    20    21    1
    14    21    22    1
    15    22    23    1
    16    22    24    1
    17     2     3    1
    18     3     4    1
    19     4     5   ar
    20     5     6   ar
    21     6     7   ar
    22     7     8   ar
    23     8     9   ar
    24    17    12   ar
    25     9     1    1
    26     9     4   ar
