@<TRIPOS>MOLECULE
*****
 36 40 0 0 0
SMALL
GASTEIGER

@<TRIPOS>ATOM
      1 C           0.5122    0.8551   19.8206 C.2     1  UNL1        0.2425
      2 O          -0.1308   -0.0486   20.8305 O.2     1  UNL1       -0.2733
      3 N           0.1311    2.3046   19.7609 N.am    1  UNL1       -0.3018
      4 H           0.5532    2.8977   19.0981 H       1  UNL1        0.1495
      5 C          -0.8932    2.8504   20.7112 C.3     1  UNL1        0.1035
      6 C          -2.3462    3.2098   20.6128 C.3     1  UNL1        0.0933
      7 N          -2.3418    3.6223   22.0550 N.3     1  UNL1       -0.2711
      8 C          -0.8888    3.2629   22.1533 C.3     1  UNL1        0.0933
      9 C          -3.3660    4.1682   23.0052 C.3     1  UNL1        0.0576
     10 C          -4.1000    3.2426   23.9297 C.3     1  UNL1        0.0163
     11 C          -5.1242    3.7884   24.8799 C.3     1  UNL1        0.0063
     12 C          -5.4146    5.2598   24.9057 C.3     1  UNL1        0.0301
     13 C          -4.6807    6.1854   23.9813 C.3     1  UNL1        0.0063
     14 C          -3.6564    5.6396   23.0310 C.3     1  UNL1        0.0163
     15 C          -6.4388    5.8055   25.8560 C.ar    1  UNL1        0.0275
     16 C          -7.8410    6.2073   25.5056 C.ar    1  UNL1        0.1016
     17 N          -8.5096    6.6954   26.7565 N.ar    1  UNL1       -0.2351
     18 C          -7.5208    6.5952   27.8800 C.ar    1  UNL1        0.1342
     19 S          -6.2410    6.0453   27.3235 S.2     1  UNL1       -0.0688
     20 C           1.5365    0.3093   18.8704 C.3     1  UNL1        0.1747
     21 N           2.5208    1.2334   18.2166 N.pl3   1  UNL1       -0.3093
     22 H           2.2351    2.1282   17.9217 H       1  UNL1        0.1487
     23 C           7.6770    1.2776   17.0799 C.3     1  UNL1        0.1537
     24 N           6.3104    0.8144   17.4896 N.ar    1  UNL1       -0.2476
     25 N           5.0750    1.6626   17.5557 N.ar    1  UNL1       -0.1544
     26 C           3.9404    0.7941   18.0120 C.ar    1  UNL1        0.1500
     27 C           4.4745   -0.5909   18.2279 C.ar    1  UNL1        0.0503
     28 C           3.8163   -1.8618   18.6768 C.ar    1  UNL1        0.0082
     29 C           4.6229   -3.1201   18.8028 C.ar    1  UNL1        0.0716
     30 C           6.0877   -3.1076   18.4799 C.ar    1  UNL1        0.0054
     31 C           6.7459   -1.8367   18.0310 C.ar    1  UNL1        0.0188
     32 C           5.9393   -0.5783   17.9050 C.ar    1  UNL1        0.0807
     33 C           3.9647   -4.3911   19.2517 C.3     1  UNL1        0.4186
     34 F           3.3065   -5.6620   19.7006 F       1  UNL1       -0.1659
     35 F           3.2178   -3.6314   20.3075 F       1  UNL1       -0.1659
     36 F           4.7116   -5.1509   18.1959 F       1  UNL1       -0.1659
@<TRIPOS>BOND
     1    23    24    1
     2    24    25   ar
     3    25    26   ar
     4    26    21    1
     5    21    20    1
     6    20     1    1
     7     1     2    2
     8     1     3   am
     9     3     5    1
    10     5     6    1
    11     6     7    1
    12     9     7    1
    13     9    10    1
    14    10    11    1
    15    11    12    1
    16    12    15    1
    17    15    16   ar
    18    16    17   ar
    19    17    18   ar
    20    18    19   ar
    21    12    13    1
    22    13    14    1
    23     7     8    1
    24    26    27   ar
    25    27    28   ar
    26    28    29   ar
    27    29    33    1
    28    33    34    1
    29    33    35    1
    30    33    36    1
    31    29    30   ar
    32    30    31   ar
    33    31    32   ar
    34    32    24   ar
    35     8     5    1
    36    32    27   ar
    37    14     9    1
    38    19    15   ar
    39    21    22    1
    40     3     4    1
@<TRIPOS>MOLECULE
*****
 36 40 0 0 0
SMALL
GASTEIGER

@<TRIPOS>ATOM
      1 C           6.0176   -1.4197   27.0302 C.2     1  UNL1        0.2425
      2 O           5.7336    0.0415   27.2150 O.2     1  UNL1       -0.2733
      3 N           6.1099   -2.3227   28.2244 N.am    1  UNL1       -0.3018
      4 H           6.2963   -3.2817   28.1031 H       1  UNL1        0.1495
      5 C           5.9181   -1.7644   29.6033 C.3     1  UNL1        0.1035
      6 C           4.7842   -1.1076   30.3336 C.3     1  UNL1        0.0933
      7 N           5.6469   -0.9748   31.5535 N.3     1  UNL1       -0.2711
      8 C           6.7807   -1.6315   30.8233 C.3     1  UNL1        0.0933
      9 C           5.4551   -0.4164   32.9324 C.3     1  UNL1        0.0576
     10 C           4.9670   -1.3032   34.0394 C.3     1  UNL1        0.0163
     11 C           4.7752   -0.7449   35.4183 C.3     1  UNL1        0.0063
     12 C           5.0717    0.7002   35.6904 C.3     1  UNL1        0.0301
     13 C           5.5598    1.5869   34.5834 C.3     1  UNL1        0.0063
     14 C           5.7516    1.0286   33.2044 C.3     1  UNL1        0.0163
     15 C           4.8799    1.2583   37.0693 C.ar    1  UNL1        0.0275
     16 C           3.7107    0.9962   37.9719 C.ar    1  UNL1        0.1016
     17 N           3.9318    1.7525   39.2483 N.ar    1  UNL1       -0.2351
     18 C           5.2375    2.4820   39.1347 C.ar    1  UNL1        0.1342
     19 S           5.8235    2.1766   37.7880 S.2     1  UNL1       -0.0688
     20 C           6.2093   -1.9780   25.6512 C.3     1  UNL1        0.1747
     21 N           5.0555   -2.6107   24.9311 N.pl3   1  UNL1       -0.3093
     22 H           4.8668   -3.5696   25.0506 H       1  UNL1        0.1487
     23 C           1.8481    1.1843   23.1448 C.3     1  UNL1        0.1537
     24 N           2.7150   -0.0382   23.2079 N.ar    1  UNL1       -0.2476
     25 N           3.4515   -0.5353   24.4164 N.ar    1  UNL1       -0.1544
     26 C           4.1893   -1.7826   24.0290 C.ar    1  UNL1        0.1500
     27 C           3.9088   -2.0562   22.5811 C.ar    1  UNL1        0.0503
     28 C           4.3654   -3.1478   21.6592 C.ar    1  UNL1        0.0082
     29 C           3.9108   -3.1613   20.2299 C.ar    1  UNL1        0.0716
     30 C           2.9996   -2.0832   19.7224 C.ar    1  UNL1        0.0054
     31 C           2.5431   -0.9917   20.6443 C.ar    1  UNL1        0.0188
     32 C           2.9977   -0.9782   22.0736 C.ar    1  UNL1        0.0807
     33 C           4.3674   -4.2530   19.3079 C.3     1  UNL1        0.4186
     34 F           4.8238   -5.3446   18.3859 F       1  UNL1       -0.1659
     35 F           2.9421   -4.5322   18.9328 F       1  UNL1       -0.1659
     36 F           5.7926   -3.9737   19.6829 F       1  UNL1       -0.1659
@<TRIPOS>BOND
     1    23    24    1
     2    24    25   ar
     3    25    26   ar
     4    26    21    1
     5    21    20    1
     6    20     1    1
     7     1     2    2
     8     1     3   am
     9     3     5    1
    10     5     6    1
    11     6     7    1
    12     9     7    1
    13     9    10    1
    14    10    11    1
    15    11    12    1
    16    12    15    1
    17    15    16   ar
    18    16    17   ar
    19    17    18   ar
    20    18    19   ar
    21    12    13    1
    22    13    14    1
    23     7     8    1
    24    26    27   ar
    25    27    28   ar
    26    28    29   ar
    27    29    33    1
    28    33    34    1
    29    33    35    1
    30    33    36    1
    31    29    30   ar
    32    30    31   ar
    33    31    32   ar
    34    32    24   ar
    35     8     5    1
    36    32    27   ar
    37    14     9    1
    38    19    15   ar
    39    21    22    1
    40     3     4    1
@<TRIPOS>MOLECULE
*****
 36 40 0 0 0
SMALL
GASTEIGER

@<TRIPOS>ATOM
      1 C           0.4153    0.9805   19.6066 C.2     1  UNL1        0.2425
      2 O          -0.0667    0.1025   20.7232 O.2     1  UNL1       -0.2733
      3 N          -0.0872    2.3889   19.4895 N.am    1  UNL1       -0.3018
      4 H           0.2292    2.9651   18.7566 H       1  UNL1        0.1495
      5 C          -1.0718    2.9194   20.4891 C.3     1  UNL1        0.1035
      6 C          -1.0146    3.2859   21.9426 C.3     1  UNL1        0.0933
      7 N          -2.4641    3.6697   21.9028 N.3     1  UNL1       -0.2711
      8 C          -2.5213    3.3032   20.4494 C.3     1  UNL1        0.0933
      9 C          -3.4487    4.2002   22.9024 C.3     1  UNL1        0.0576
     10 C          -3.6830    5.6776   23.0129 C.3     1  UNL1        0.0163
     11 C          -4.6675    6.2081   24.0125 C.3     1  UNL1        0.0063
     12 C          -5.4178    5.2612   24.9016 C.3     1  UNL1        0.0301
     13 C          -5.1834    3.7838   24.7911 C.3     1  UNL1        0.0063
     14 C          -4.1989    3.2533   23.7915 C.3     1  UNL1        0.0163
     15 C          -6.4023    5.7918   25.9011 C.ar    1  UNL1        0.0275
     16 C          -7.8109    6.2179   25.6106 C.ar    1  UNL1        0.1016
     17 N          -8.4303    6.6789   26.8966 N.ar    1  UNL1       -0.2351
     18 C          -7.4046    6.5379   27.9819 C.ar    1  UNL1        0.1342
     19 S          -6.1512    5.9896   27.3667 S.2     1  UNL1       -0.0688
     20 C           1.3998    0.4500   18.6070 C.3     1  UNL1        0.1747
     21 N           2.8481    0.3214   18.9762 N.pl3   1  UNL1       -0.3093
     22 H           3.4445    1.1017   18.9084 H       1  UNL1        0.1487
     23 C           4.6831   -4.6295   19.0186 C.3     1  UNL1        0.1537
     24 N           4.2310   -3.2718   19.4681 N.ar    1  UNL1       -0.2476
     25 N           3.7262   -2.1722   18.5814 N.ar    1  UNL1       -0.1544
     26 C           3.3875   -0.9961   19.4486 C.ar    1  UNL1        0.1500
     27 C           3.6829   -1.3688   20.8713 C.ar    1  UNL1        0.0503
     28 C           3.5446   -0.6091   22.1572 C.ar    1  UNL1        0.0082
     29 C           3.9275   -1.2559   23.4553 C.ar    1  UNL1        0.0716
     30 C           4.4488   -2.6624   23.4673 C.ar    1  UNL1        0.0054
     31 C           4.5871   -3.4220   22.1814 C.ar    1  UNL1        0.0188
     32 C           4.2042   -2.7752   20.8833 C.ar    1  UNL1        0.0807
     33 C           3.7892   -0.4963   24.7413 C.3     1  UNL1        0.4186
     34 F           3.6508    0.2633   26.0273 F       1  UNL1       -0.1659
     35 F           3.9395    0.7957   23.9943 F       1  UNL1       -0.1659
     36 F           3.6388   -1.7883   25.4884 F       1  UNL1       -0.1659
@<TRIPOS>BOND
     1    23    24    1
     2    24    25   ar
     3    25    26   ar
     4    26    21    1
     5    21    20    1
     6    20     1    1
     7     1     2    2
     8     1     3   am
     9     3     5    1
    10     5     6    1
    11     6     7    1
    12     9     7    1
    13     9    10    1
    14    10    11    1
    15    11    12    1
    16    12    15    1
    17    15    16   ar
    18    16    17   ar
    19    17    18   ar
    20    18    19   ar
    21    12    13    1
    22    13    14    1
    23     7     8    1
    24    26    27   ar
    25    27    28   ar
    26    28    29   ar
    27    29    33    1
    28    33    34    1
    29    33    35    1
    30    33    36    1
    31    29    30   ar
    32    30    31   ar
    33    31    32   ar
    34    32    24   ar
    35     8     5    1
    36    32    27   ar
    37    14     9    1
    38    19    15   ar
    39    21    22    1
    40     3     4    1
@<TRIPOS>MOLECULE
*****
 36 40 0 0 0
SMALL
GASTEIGER

@<TRIPOS>ATOM
      1 C           0.3366    1.2479   19.5469 C.2     1  UNL1        0.2425
      2 O          -0.2475    0.3068   20.5584 O.2     1  UNL1       -0.2733
      3 N          -0.0700    2.6917   19.5430 N.am    1  UNL1       -0.3018
      4 H           0.3134    3.3093   18.8791 H       1  UNL1        0.1495
      5 C          -1.0607    3.1944   20.5508 C.3     1  UNL1        0.1035
      6 C          -1.0278    3.4683   22.0253 C.3     1  UNL1        0.0933
      7 N          -2.4618    3.9055   21.9762 N.3     1  UNL1       -0.2711
      8 C          -2.4947    3.6316   20.5017 C.3     1  UNL1        0.0933
      9 C          -3.4526    4.4082   22.9840 C.3     1  UNL1        0.0576
     10 C          -3.5966    5.8820   23.2235 C.3     1  UNL1        0.0163
     11 C          -4.5872    6.3847   24.2312 C.3     1  UNL1        0.0063
     12 C          -5.4341    5.4138   24.9996 C.3     1  UNL1        0.0301
     13 C          -5.2900    3.9401   24.7600 C.3     1  UNL1        0.0063
     14 C          -4.2993    3.4373   23.7522 C.3     1  UNL1        0.0163
     15 C          -6.4247    5.9167   26.0073 C.ar    1  UNL1        0.0275
     16 C          -7.8251    6.3692   25.7170 C.ar    1  UNL1        0.1016
     17 N          -8.4550    6.7876   27.0125 N.ar    1  UNL1       -0.2351
     18 C          -7.4439    6.5936   28.1035 C.ar    1  UNL1        0.1342
     19 S          -6.1892    6.0553   27.4822 S.2     1  UNL1       -0.0688
     20 C           1.3273    0.7451   18.5391 C.3     1  UNL1        0.1747
     21 N           2.7740    0.6103   18.9122 N.pl3   1  UNL1       -0.3093
     22 H           3.4742    0.8594   18.2665 H       1  UNL1        0.1487
     23 C           3.7328    0.3549   24.0983 C.3     1  UNL1        0.1537
     24 N           3.5945   -0.0214   22.6529 N.ar    1  UNL1       -0.2476
     25 N           3.1444    0.8844   21.5452 N.ar    1  UNL1       -0.1544
     26 C           3.1538    0.0960   20.2691 C.ar    1  UNL1        0.1500
     27 C           3.6097   -1.2970   20.5881 C.ar    1  UNL1        0.0503
     28 C           3.8120   -2.5087   19.7275 C.ar    1  UNL1        0.0082
     29 C           4.2866   -3.7930   20.3401 C.ar    1  UNL1        0.0716
     30 C           4.5590   -3.8655   21.8133 C.ar    1  UNL1        0.0054
     31 C           4.3567   -2.6538   22.6740 C.ar    1  UNL1        0.0188
     32 C           3.8821   -1.3696   22.0614 C.ar    1  UNL1        0.0807
     33 C           4.4889   -5.0048   19.4794 C.3     1  UNL1        0.4186
     34 F           4.6913   -6.2165   18.6187 F       1  UNL1       -0.1659
     35 F           5.7609   -4.4142   18.9470 F       1  UNL1       -0.1659
     36 F           3.2170   -5.5953   20.0117 F       1  UNL1       -0.1659
@<TRIPOS>BOND
     1    23    24    1
     2    24    25   ar
     3    25    26   ar
     4    26    21    1
     5    21    20    1
     6    20     1    1
     7     1     2    2
     8     1     3   am
     9     3     5    1
    10     5     6    1
    11     6     7    1
    12     9     7    1
    13     9    10    1
    14    10    11    1
    15    11    12    1
    16    12    15    1
    17    15    16   ar
    18    16    17   ar
    19    17    18   ar
    20    18    19   ar
    21    12    13    1
    22    13    14    1
    23     7     8    1
    24    26    27   ar
    25    27    28   ar
    26    28    29   ar
    27    29    33    1
    28    33    34    1
    29    33    35    1
    30    33    36    1
    31    29    30   ar
    32    30    31   ar
    33    31    32   ar
    34    32    24   ar
    35     8     5    1
    36    32    27   ar
    37    14     9    1
    38    19    15   ar
    39    21    22    1
    40     3     4    1
@<TRIPOS>MOLECULE
*****
 36 40 0 0 0
SMALL
GASTEIGER

@<TRIPOS>ATOM
      1 C           1.3523    1.6603   30.8301 C.2     1  UNL1        0.2425
      2 O          -0.0501    1.7112   31.3598 O.2     1  UNL1       -0.2733
      3 N           1.6218    1.9773   29.3890 N.am    1  UNL1       -0.3018
      4 H           2.5423    1.9439   29.0414 H       1  UNL1        0.1495
      5 C           0.4887    2.3451   28.4775 C.3     1  UNL1        0.1035
      6 C          -0.0062    3.6204   27.8619 C.3     1  UNL1        0.0933
      7 N          -1.1136    2.8654   27.1884 N.3     1  UNL1       -0.2711
      8 C          -0.6187    1.5902   27.8040 C.3     1  UNL1        0.0933
      9 C          -2.2467    3.2333   26.2769 C.3     1  UNL1        0.0576
     10 C          -2.0484    3.2182   24.7901 C.3     1  UNL1        0.0163
     11 C          -3.1814    3.5860   23.8787 C.3     1  UNL1        0.0063
     12 C          -4.5129    3.9689   24.4538 C.3     1  UNL1        0.0301
     13 C          -4.7111    3.9840   25.9406 C.3     1  UNL1        0.0063
     14 C          -3.5780    3.6162   26.8521 C.3     1  UNL1        0.0163
     15 C          -5.6458    4.3368   23.5423 C.ar    1  UNL1        0.0275
     16 C          -7.0052    4.8051   23.9700 C.ar    1  UNL1        0.1016
     17 N          -7.8179    5.0586   22.7350 N.ar    1  UNL1       -0.2351
     18 C          -6.9609    4.7470   21.5440 C.ar    1  UNL1        0.1342
     19 S          -5.6185    4.3009   22.0429 S.2     1  UNL1       -0.0688
     20 C           2.4854    1.2925   31.7417 C.3     1  UNL1        0.1747
     21 N           3.2630    2.3667   32.4429 N.pl3   1  UNL1       -0.3093
     22 H           4.2424    2.4051   32.3510 H       1  UNL1        0.1487
     23 C           0.5253    6.6334   33.9197 C.3     1  UNL1        0.1537
     24 N           1.2898    5.3436   33.9628 N.ar    1  UNL1       -0.2476
     25 N           1.8717    4.6237   32.7824 N.ar    1  UNL1       -0.1544
     26 C           2.5482    3.3824   33.2839 C.ar    1  UNL1        0.1500
     27 C           2.3843    3.3351   34.7742 C.ar    1  UNL1        0.0503
     28 C           2.8428    2.3449   35.8034 C.ar    1  UNL1        0.0082
     29 C           2.5236    2.5668   37.2521 C.ar    1  UNL1        0.0716
     30 C           1.7459    3.7788   37.6717 C.ar    1  UNL1        0.0054
     31 C           1.2874    4.7690   36.6425 C.ar    1  UNL1        0.0188
     32 C           1.6066    4.5471   35.1938 C.ar    1  UNL1        0.0807
     33 C           2.9821    1.5765   38.2814 C.3     1  UNL1        0.4186
     34 F           3.4406    0.5864   39.3106 F       1  UNL1       -0.1659
     35 F           1.5563    1.1971   38.5515 F       1  UNL1       -0.1659
     36 F           4.4080    1.9559   38.0113 F       1  UNL1       -0.1659
@<TRIPOS>BOND
     1    23    24    1
     2    24    25   ar
     3    25    26   ar
     4    26    21    1
     5    21    20    1
     6    20     1    1
     7     1     2    2
     8     1     3   am
     9     3     5    1
    10     5     6    1
    11     6     7    1
    12     9     7    1
    13     9    10    1
    14    10    11    1
    15    11    12    1
    16    12    15    1
    17    15    16   ar
    18    16    17   ar
    19    17    18   ar
    20    18    19   ar
    21    12    13    1
    22    13    14    1
    23     7     8    1
    24    26    27   ar
    25    27    28   ar
    26    28    29   ar
    27    29    33    1
    28    33    34    1
    29    33    35    1
    30    33    36    1
    31    29    30   ar
    32    30    31   ar
    33    31    32   ar
    34    32    24   ar
    35     8     5    1
    36    32    27   ar
    37    14     9    1
    38    19    15   ar
    39    21    22    1
    40     3     4    1
@<TRIPOS>MOLECULE
*****
 36 40 0 0 0
SMALL
GASTEIGER

@<TRIPOS>ATOM
      1 C           1.4124    1.4979   30.8017 C.2     1  UNL1        0.2425
      2 O           0.0376    1.7108   31.3626 O.2     1  UNL1       -0.2733
      3 N           1.6693    1.7211   29.3408 N.am    1  UNL1       -0.3018
      4 H           2.5717    1.5814   28.9727 H       1  UNL1        0.1495
      5 C           0.5513    2.1571   28.4408 C.3     1  UNL1        0.1035
      6 C          -0.5818    1.4633   27.7445 C.3     1  UNL1        0.0933
      7 N          -1.0298    2.7737   27.1680 N.3     1  UNL1       -0.2711
      8 C           0.1033    3.4674   27.8643 C.3     1  UNL1        0.0933
      9 C          -2.1478    3.2097   26.2680 C.3     1  UNL1        0.0576
     10 C          -1.9568    3.2087   24.7802 C.3     1  UNL1        0.0163
     11 C          -3.0747    3.6447   23.8803 C.3     1  UNL1        0.0063
     12 C          -4.3838    4.0818   24.4681 C.3     1  UNL1        0.0301
     13 C          -4.5748    4.0829   25.9558 C.3     1  UNL1        0.0063
     14 C          -3.4568    3.6468   26.8558 C.3     1  UNL1        0.0163
     15 C          -5.5016    4.5178   23.5680 C.ar    1  UNL1        0.0275
     16 C          -6.9571    4.5634   23.9284 C.ar    1  UNL1        0.1016
     17 N          -7.7154    5.0585   22.7327 N.ar    1  UNL1       -0.2351
     18 C          -6.7288    5.3191   21.6333 C.ar    1  UNL1        0.1342
     19 S          -5.3606    4.9849   22.1495 S.2     1  UNL1       -0.0688
     20 C           2.5304    1.0619   31.7016 C.3     1  UNL1        0.1747
     21 N           2.4593    1.3389   33.1742 N.pl3   1  UNL1       -0.3093
     22 H           1.5987    1.5753   33.5896 H       1  UNL1        0.1487
     23 C           7.4949    0.7486   34.6489 C.3     1  UNL1        0.1537
     24 N           6.0142    0.9843   34.6916 N.ar    1  UNL1       -0.2476
     25 N           5.0856    0.9749   33.5136 N.ar    1  UNL1       -0.1544
     26 C           3.6996    1.2556   34.0137 C.ar    1  UNL1        0.1500
     27 C           3.7715    1.4384   35.5008 C.ar    1  UNL1        0.0503
     28 C           2.7193    1.7358   36.5276 C.ar    1  UNL1        0.0082
     29 C           3.0976    1.8656   37.9733 C.ar    1  UNL1        0.0716
     30 C           4.5281    1.6979   38.3922 C.ar    1  UNL1        0.0054
     31 C           5.5803    1.4004   37.3655 C.ar    1  UNL1        0.0188
     32 C           5.2021    1.2707   35.9198 C.ar    1  UNL1        0.0807
     33 C           2.0453    2.1630   39.0001 C.3     1  UNL1        0.4186
     34 F           0.9930    2.4604   40.0269 F       1  UNL1       -0.1659
     35 F           1.4031    0.8354   38.7266 F       1  UNL1       -0.1659
     36 F           2.6874    3.4907   39.2736 F       1  UNL1       -0.1659
@<TRIPOS>BOND
     1    23    24    1
     2    24    25   ar
     3    25    26   ar
     4    26    21    1
     5    21    20    1
     6    20     1    1
     7     1     2    2
     8     1     3   am
     9     3     5    1
    10     5     6    1
    11     6     7    1
    12     9     7    1
    13     9    10    1
    14    10    11    1
    15    11    12    1
    16    12    15    1
    17    15    16   ar
    18    16    17   ar
    19    17    18   ar
    20    18    19   ar
    21    12    13    1
    22    13    14    1
    23     7     8    1
    24    26    27   ar
    25    27    28   ar
    26    28    29   ar
    27    29    33    1
    28    33    34    1
    29    33    35    1
    30    33    36    1
    31    29    30   ar
    32    30    31   ar
    33    31    32   ar
    34    32    24   ar
    35     8     5    1
    36    32    27   ar
    37    14     9    1
    38    19    15   ar
    39    21    22    1
    40     3     4    1
@<TRIPOS>MOLECULE
*****
 36 40 0 0 0
SMALL
GASTEIGER

@<TRIPOS>ATOM
      1 C           5.8534   -1.4612   26.6980 C.2     1  UNL1        0.2425
      2 O           6.9589   -1.2570   27.6911 O.2     1  UNL1       -0.2733
      3 N           4.4624   -1.0009   27.0189 N.am    1  UNL1       -0.3018
      4 H           3.7369   -1.1348   26.3670 H       1  UNL1        0.1495
      5 C           4.1768   -0.3364   28.3330 C.3     1  UNL1        0.1035
      6 C           3.8982   -0.8173   29.7263 C.3     1  UNL1        0.0933
      7 N           3.7729    0.6032   30.1915 N.3     1  UNL1       -0.2711
      8 C           4.0515    1.0841   28.7983 C.3     1  UNL1        0.0933
      9 C           3.4873    1.2677   31.5057 C.3     1  UNL1        0.0576
     10 C           4.6195    1.6855   32.3966 C.3     1  UNL1        0.0163
     11 C           4.3339    2.3499   33.7106 C.3     1  UNL1        0.0063
     12 C           2.9161    2.5966   34.1339 C.3     1  UNL1        0.0301
     13 C           1.7840    2.1789   33.2430 C.3     1  UNL1        0.0063
     14 C           2.0696    1.5144   31.9289 C.3     1  UNL1        0.0163
     15 C           2.6307    3.2611   35.4480 C.ar    1  UNL1        0.0275
     16 C           2.5500    2.5791   36.7817 C.ar    1  UNL1        0.1016
     17 N           2.2453    3.6206   37.8172 N.ar    1  UNL1       -0.2351
     18 C           2.1376    4.9463   37.1236 C.ar    1  UNL1        0.1342
     19 S           2.3758    4.7241   35.6594 S.2     1  UNL1       -0.0688
     20 C           6.1390   -2.1256   25.3838 C.3     1  UNL1        0.1747
     21 N           5.0268   -2.7738   24.6137 N.pl3   1  UNL1       -0.3093
     22 H           4.8329   -3.7307   24.7403 H       1  UNL1        0.1487
     23 C           1.9889    1.0281   22.5651 C.3     1  UNL1        0.1537
     24 N           2.8136   -0.2165   22.7093 N.ar    1  UNL1       -0.2476
     25 N           3.5043   -0.6767   23.9587 N.ar    1  UNL1       -0.1544
     26 C           4.2100   -1.9640   23.6509 C.ar    1  UNL1        0.1500
     27 C           3.9555   -2.2994   22.2112 C.ar    1  UNL1        0.0503
     28 C           4.3982   -3.4487   21.3550 C.ar    1  UNL1        0.0082
     29 C           3.9778   -3.5179   19.9168 C.ar    1  UNL1        0.0716
     30 C           3.1148   -2.4379   19.3348 C.ar    1  UNL1        0.0054
     31 C           2.6721   -1.2886   20.1910 C.ar    1  UNL1        0.0188
     32 C           3.0925   -1.2193   21.6292 C.ar    1  UNL1        0.0807
     33 C           4.4204   -4.6673   19.0605 C.3     1  UNL1        0.4186
     34 F           4.8630   -5.8166   18.2043 F       1  UNL1       -0.1659
     35 F           3.4567   -5.5692   19.7731 F       1  UNL1       -0.1659
     36 F           5.3840   -3.7653   18.3479 F       1  UNL1       -0.1659
@<TRIPOS>BOND
     1    23    24    1
     2    24    25   ar
     3    25    26   ar
     4    26    21    1
     5    21    20    1
     6    20     1    1
     7     1     2    2
     8     1     3   am
     9     3     5    1
    10     5     6    1
    11     6     7    1
    12     9     7    1
    13     9    10    1
    14    10    11    1
    15    11    12    1
    16    12    15    1
    17    15    16   ar
    18    16    17   ar
    19    17    18   ar
    20    18    19   ar
    21    12    13    1
    22    13    14    1
    23     7     8    1
    24    26    27   ar
    25    27    28   ar
    26    28    29   ar
    27    29    33    1
    28    33    34    1
    29    33    35    1
    30    33    36    1
    31    29    30   ar
    32    30    31   ar
    33    31    32   ar
    34    32    24   ar
    35     8     5    1
    36    32    27   ar
    37    14     9    1
    38    19    15   ar
    39    21    22    1
    40     3     4    1
@<TRIPOS>MOLECULE
*****
 36 40 0 0 0
SMALL
GASTEIGER

@<TRIPOS>ATOM
      1 C           3.9868   -1.1445   27.1647 C.2     1  UNL1        0.2425
      2 O           4.9396   -1.8486   28.0847 O.2     1  UNL1       -0.2733
      3 N           3.0684   -0.0872   27.7019 N.am    1  UNL1       -0.3018
      4 H           2.4431    0.3748   27.0980 H       1  UNL1        0.1495
      5 C           3.1029    0.2661   29.1593 C.3     1  UNL1        0.1035
      6 C           2.4231   -0.2511   30.3925 C.3     1  UNL1        0.0933
      7 N           3.1516    0.7656   31.2204 N.3     1  UNL1       -0.2711
      8 C           3.8314    1.2827   29.9874 C.3     1  UNL1        0.0933
      9 C           3.1861    1.1189   32.6778 C.3     1  UNL1        0.0576
     10 C           2.2226    2.1284   33.2278 C.3     1  UNL1        0.0163
     11 C           2.2571    2.4817   34.6851 C.3     1  UNL1        0.0063
     12 C           3.2550    1.8255   35.5927 C.3     1  UNL1        0.0301
     13 C           4.2185    0.8159   35.0427 C.3     1  UNL1        0.0063
     14 C           4.1840    0.4626   33.5853 C.3     1  UNL1        0.0163
     15 C           3.2894    2.1788   37.0500 C.ar    1  UNL1        0.0275
     16 C           4.2080    1.5889   38.0788 C.ar    1  UNL1        0.1016
     17 N           3.8976    2.2296   39.3991 N.ar    1  UNL1       -0.2351
     18 C           2.7873    3.2154   39.1864 C.ar    1  UNL1        0.1342
     19 S           2.4114    3.1840   37.7346 S.2     1  UNL1       -0.0688
     20 C           3.9523   -1.4978   25.7073 C.3     1  UNL1        0.1747
     21 N           4.2849   -0.4605   24.6760 N.pl3   1  UNL1       -0.3093
     22 H           5.1454    0.0161   24.7169 H       1  UNL1        0.1487
     23 C           0.3710    1.7751   21.9258 C.3     1  UNL1        0.1537
     24 N           1.5074    0.8782   22.3184 N.ar    1  UNL1       -0.2476
     25 N           2.2567    0.9215   23.6171 N.ar    1  UNL1       -0.1544
     26 C           3.3064   -0.1493   23.5825 C.ar    1  UNL1        0.1500
     27 C           3.2060   -0.8545   22.2624 C.ar    1  UNL1        0.0503
     28 C           3.9833   -1.9928   21.6708 C.ar    1  UNL1        0.0082
     29 C           3.6487   -2.4960   20.2979 C.ar    1  UNL1        0.0716
     30 C           2.5368   -1.8609   19.5166 C.ar    1  UNL1        0.0054
     31 C           1.7595   -0.7226   20.1082 C.ar    1  UNL1        0.0188
     32 C           2.0941   -0.2194   21.4811 C.ar    1  UNL1        0.0807
     33 C           4.4260   -3.6343   19.7063 C.3     1  UNL1        0.4186
     34 F           5.2033   -4.7726   19.1146 F       1  UNL1       -0.1659
     35 F           3.2133   -4.0606   18.9333 F       1  UNL1       -0.1659
     36 F           5.6388   -3.2080   20.4792 F       1  UNL1       -0.1659
@<TRIPOS>BOND
     1    23    24    1
     2    24    25   ar
     3    25    26   ar
     4    26    21    1
     5    21    20    1
     6    20     1    1
     7     1     2    2
     8     1     3   am
     9     3     5    1
    10     5     6    1
    11     6     7    1
    12     9     7    1
    13     9    10    1
    14    10    11    1
    15    11    12    1
    16    12    15    1
    17    15    16   ar
    18    16    17   ar
    19    17    18   ar
    20    18    19   ar
    21    12    13    1
    22    13    14    1
    23     7     8    1
    24    26    27   ar
    25    27    28   ar
    26    28    29   ar
    27    29    33    1
    28    33    34    1
    29    33    35    1
    30    33    36    1
    31    29    30   ar
    32    30    31   ar
    33    31    32   ar
    34    32    24   ar
    35     8     5    1
    36    32    27   ar
    37    14     9    1
    38    19    15   ar
    39    21    22    1
    40     3     4    1
@<TRIPOS>MOLECULE
*****
 36 40 0 0 0
SMALL
GASTEIGER

@<TRIPOS>ATOM
      1 C           0.7142    2.1280   20.5590 C.2     1  UNL1        0.2425
      2 O           0.8438    3.5329   21.0684 O.2     1  UNL1       -0.2733
      3 N           0.6758    0.9807   21.5245 N.am    1  UNL1       -0.3018
      4 H           0.5907    0.0586   21.1902 H       1  UNL1        0.1495
      5 C           0.7672    1.2383   22.9994 C.3     1  UNL1        0.1035
      6 C           0.0399    2.1225   23.9687 C.3     1  UNL1        0.0933
      7 N           0.8962    1.6027   25.0852 N.3     1  UNL1       -0.2711
      8 C           1.6234    0.7186   24.1159 C.3     1  UNL1        0.0933
      9 C           0.9875    1.8603   26.5601 C.3     1  UNL1        0.0576
     10 C           2.0369    2.7887   27.0957 C.3     1  UNL1        0.0163
     11 C           2.1282    3.0463   28.5705 C.3     1  UNL1        0.0063
     12 C           1.1702    2.3756   29.5099 C.3     1  UNL1        0.0301
     13 C           0.1208    1.4472   28.9743 C.3     1  UNL1        0.0063
     14 C           0.0295    1.1896   27.4994 C.3     1  UNL1        0.0163
     15 C           1.2616    2.6333   30.9847 C.ar    1  UNL1        0.0275
     16 C           1.8121    1.6892   32.0122 C.ar    1  UNL1        0.1016
     17 N           1.7093    2.3526   33.3536 N.ar    1  UNL1       -0.2351
     18 C           1.0953    3.7067   33.1552 C.ar    1  UNL1        0.1342
     19 S           0.8186    3.8802   31.6911 S.2     1  UNL1       -0.0688
     20 C           0.6229    1.8703   19.0841 C.3     1  UNL1        0.1747
     21 N           1.2689    0.6518   18.4942 N.pl3   1  UNL1       -0.3093
     22 H           0.7129   -0.0545   18.0926 H       1  UNL1        0.1487
     23 C           6.4229    1.7360   18.1189 C.3     1  UNL1        0.1537
     24 N           5.1310    1.0077   18.3437 N.ar    1  UNL1       -0.2476
     25 N           3.7552    1.5866   18.1952 N.ar    1  UNL1       -0.1544
     26 C           2.7619    0.5094   18.5162 C.ar    1  UNL1        0.1500
     27 C           3.5239   -0.7353   18.8631 C.ar    1  UNL1        0.0503
     28 C           3.0736   -2.1092   19.2622 C.ar    1  UNL1        0.0082
     29 C           4.0875   -3.1752   19.5547 C.ar    1  UNL1        0.0716
     30 C           5.5517   -2.8672   19.4481 C.ar    1  UNL1        0.0054
     31 C           6.0019   -1.4932   19.0490 C.ar    1  UNL1        0.0188
     32 C           4.9880   -0.4273   18.7564 C.ar    1  UNL1        0.0807
     33 C           3.6373   -4.5493   19.9539 C.3     1  UNL1        0.4186
     34 F           3.1871   -5.9233   20.3531 F       1  UNL1       -0.1659
     35 F           4.4754   -4.4634   21.1949 F       1  UNL1       -0.1659
     36 F           2.7992   -4.6353   18.7129 F       1  UNL1       -0.1659
@<TRIPOS>BOND
     1    23    24    1
     2    24    25   ar
     3    25    26   ar
     4    26    21    1
     5    21    20    1
     6    20     1    1
     7     1     2    2
     8     1     3   am
     9     3     5    1
    10     5     6    1
    11     6     7    1
    12     9     7    1
    13     9    10    1
    14    10    11    1
    15    11    12    1
    16    12    15    1
    17    15    16   ar
    18    16    17   ar
    19    17    18   ar
    20    18    19   ar
    21    12    13    1
    22    13    14    1
    23     7     8    1
    24    26    27   ar
    25    27    28   ar
    26    28    29   ar
    27    29    33    1
    28    33    34    1
    29    33    35    1
    30    33    36    1
    31    29    30   ar
    32    30    31   ar
    33    31    32   ar
    34    32    24   ar
    35     8     5    1
    36    32    27   ar
    37    14     9    1
    38    19    15   ar
    39    21    22    1
    40     3     4    1
