@<TRIPOS>MOLECULE
*****
 29 31 0 0 0
SMALL
GASTEIGER

@<TRIPOS>ATOM
      1 C         -10.0884  -19.1360   21.3503 C.ar    1  UNL1        0.0267
      2 C          -8.6667  -18.6615   21.4109 C.ar    1  UNL1        0.0144
      3 C          -7.7615  -18.8524   20.2303 C.ar    1  UNL1        0.0505
      4 C          -8.2779  -19.5177   18.9890 C.ar    1  UNL1        0.0170
      5 C          -9.6995  -19.9922   18.9284 C.ar    1  UNL1        0.0306
      6 C         -10.6048  -19.8013   20.1091 C.ar    1  UNL1        0.1379
      7 F         -12.0266  -20.2757   20.0485 F       1  UNL1       -0.2044
      8 C         -10.1893  -20.1185   23.0066 C.3     1  UNL1        0.0292
      9 C         -10.9938  -18.9451   22.5310 C.3     1  UNL1        0.1133
     10 C         -11.4838  -17.8381   21.6454 C.3     1  UNL1        0.0742
     11 C         -12.5998  -16.9477   22.1056 C.3     1  UNL1        0.2107
     12 O         -13.2257  -17.1644   23.4515 O.2     1  UNL1       -0.4501
     13 C         -12.7357  -18.2714   24.3371 C.2     1  UNL1        0.2768
     14 N         -13.3616  -18.4880   25.6830 N.pl3   1  UNL1       -0.3133
     15 N         -11.6197  -19.1618   23.8769 N.2     1  UNL1       -0.2241
     16 H         -14.0941  -17.9037   25.9850 H       1  UNL1        0.1466
     17 H         -13.0400  -19.2146   26.2642 H       1  UNL1        0.1466
     18 N          -6.3397  -18.3780   20.2908 N.am    1  UNL1       -0.2791
     19 C          -5.2153  -19.3694   20.2373 C.2     1  UNL1        0.2681
     20 O          -5.5127  -20.8352   20.1232 O.2     1  UNL1       -0.2681
     21 H          -6.1446  -17.4159   20.3657 H       1  UNL1        0.1552
     22 C          -3.7936  -18.8950   20.2978 C.ar    1  UNL1        0.1453
     23 N          -3.0163  -18.6915   19.0312 N.ar    1  UNL1       -0.2375
     24 C          -1.5945  -18.2171   19.0918 C.ar    1  UNL1        0.1104
     25 C          -0.9502  -17.9462   20.4190 C.ar    1  UNL1        0.0776
     26 CL          0.4715  -17.4718   20.4795 Cl      1  UNL1       -0.0806
     27 C          -1.7275  -18.1497   21.6856 C.ar    1  UNL1        0.0260
     28 C          -3.1492  -18.6240   21.6250 C.ar    1  UNL1        0.0806
     29 CL         -3.9266  -18.8275   22.8916 Cl      1  UNL1       -0.0805
@<TRIPOS>BOND
     1     9     8    1
     2     9     1    1
     3     1     2   ar
     4     2     3   ar
     5     3    18    1
     6    18    19   am
     7    19    20    2
     8    19    22    1
     9    22    23   ar
    10    23    24   ar
    11    24    25   ar
    12    25    26    1
    13    25    27   ar
    14    27    28   ar
    15    28    29    1
    16     3     4   ar
    17     4     5   ar
    18     5     6   ar
    19     6     7    1
    20     9    10    1
    21    10    11    1
    22    11    12    1
    23    12    13    1
    24    13    14    1
    25    13    15    2
    26    15     9    1
    27     6     1   ar
    28    28    22   ar
    29    18    21    1
    30    14    16    1
    31    14    17    1
@<TRIPOS>MOLECULE
*****
 29 31 0 0 0
SMALL
GASTEIGER

@<TRIPOS>ATOM
      1 C          -3.7753  -19.7128   20.4822 C.ar    1  UNL1        0.0267
      2 C          -4.9626  -18.9677   21.0160 C.ar    1  UNL1        0.0144
      3 C          -6.3161  -19.6142   21.0152 C.ar    1  UNL1        0.0505
      4 C          -6.4822  -21.0059   20.4806 C.ar    1  UNL1        0.0170
      5 C          -5.2949  -21.7510   19.9469 C.ar    1  UNL1        0.0306
      6 C          -3.9414  -21.1045   19.9477 C.ar    1  UNL1        0.1379
      7 F          -2.7539  -21.8496   19.4139 F       1  UNL1       -0.2044
      8 C          -2.4349  -19.6447   21.8670 C.3     1  UNL1        0.0292
      9 C          -2.4217  -19.0663   20.4830 C.3     1  UNL1        0.1133
     10 C          -2.8786  -18.7124   19.0988 C.3     1  UNL1        0.0742
     11 C          -1.9865  -17.9129   18.1961 C.3     1  UNL1        0.2107
     12 O          -0.6375  -17.4673   18.6775 O.2     1  UNL1       -0.4501
     13 C          -0.1807  -17.8212   20.0617 C.2     1  UNL1        0.2768
     14 N           1.1683  -17.3756   20.5431 N.pl3   1  UNL1       -0.3133
     15 N          -1.0727  -18.6207   20.9645 N.2     1  UNL1       -0.2241
     16 H           1.7538  -16.8508   19.9506 H       1  UNL1        0.1466
     17 H           1.4681  -17.6078   21.4517 H       1  UNL1        0.1466
     18 N          -7.5036  -18.8691   21.5489 N.am    1  UNL1       -0.2791
     19 C          -8.7263  -18.6978   20.6972 C.2     1  UNL1        0.2681
     20 O          -8.7617  -19.2716   19.3117 O.2     1  UNL1       -0.2681
     21 H          -7.4804  -18.4925   22.4583 H       1  UNL1        0.1552
     22 C          -9.9138  -17.9527   21.2309 C.ar    1  UNL1        0.1453
     23 N          -9.9684  -16.4572   21.1293 N.ar    1  UNL1       -0.2375
     24 C         -11.1559  -15.7121   21.6630 C.ar    1  UNL1        0.1104
     25 C         -12.2887  -16.4626   22.2983 C.ar    1  UNL1        0.0776
     26 CL        -13.4761  -15.7175   22.8320 Cl      1  UNL1       -0.0806
     27 C         -12.2340  -17.9581   22.3999 C.ar    1  UNL1        0.0260
     28 C         -11.0466  -18.7032   21.8662 C.ar    1  UNL1        0.0806
     29 CL        -10.9919  -20.1988   21.9677 Cl      1  UNL1       -0.0805
@<TRIPOS>BOND
     1     9     8    1
     2     9     1    1
     3     1     2   ar
     4     2     3   ar
     5     3    18    1
     6    18    19   am
     7    19    20    2
     8    19    22    1
     9    22    23   ar
    10    23    24   ar
    11    24    25   ar
    12    25    26    1
    13    25    27   ar
    14    27    28   ar
    15    28    29    1
    16     3     4   ar
    17     4     5   ar
    18     5     6   ar
    19     6     7    1
    20     9    10    1
    21    10    11    1
    22    11    12    1
    23    12    13    1
    24    13    14    1
    25    13    15    2
    26    15     9    1
    27     6     1   ar
    28    28    22   ar
    29    18    21    1
    30    14    16    1
    31    14    17    1
@<TRIPOS>MOLECULE
*****
 29 31 0 0 0
SMALL
GASTEIGER

@<TRIPOS>ATOM
      1 C         -11.5230   -4.4426   18.3010 C.ar    1  UNL1        0.0267
      2 C         -12.6941   -5.3175   17.9650 C.ar    1  UNL1        0.0144
      3 C         -12.5971   -6.8032   18.1471 C.ar    1  UNL1        0.0505
      4 C         -11.3288   -7.4140   18.6652 C.ar    1  UNL1        0.0170
      5 C         -10.1577   -6.5391   19.0012 C.ar    1  UNL1        0.0306
      6 C         -10.2548   -5.0534   18.8192 C.ar    1  UNL1        0.1379
      7 F          -9.0836   -4.1785   19.1552 F       1  UNL1       -0.2044
      8 C         -12.4196   -3.1177   19.3779 C.3     1  UNL1        0.0292
      9 C         -11.6200   -2.9568   18.1189 C.3     1  UNL1        0.1133
     10 C         -10.7869   -3.3119   16.9233 C.3     1  UNL1        0.0742
     11 C         -10.3284   -2.2371   15.9827 C.3     1  UNL1        0.2107
     12 O         -10.7031   -0.8072   16.2379 O.2     1  UNL1       -0.4501
     13 C         -11.5363   -0.4521   17.4336 C.2     1  UNL1        0.2768
     14 N         -11.9110    0.9777   17.6887 N.pl3   1  UNL1       -0.3133
     15 N         -11.9948   -1.5269   18.3741 N.2     1  UNL1       -0.2241
     16 H         -11.6101    1.6832   17.0714 H       1  UNL1        0.1466
     17 H         -12.4579    1.2108   18.4735 H       1  UNL1        0.1466
     18 N         -13.7683   -7.6781   17.8110 N.am    1  UNL1       -0.2791
     19 C         -15.0394   -7.5652   18.5994 C.2     1  UNL1        0.2681
     20 O         -15.1393   -6.5774   19.7238 O.2     1  UNL1       -0.2681
     21 H         -13.7026   -8.3264   17.0730 H       1  UNL1        0.1552
     22 C         -16.2105   -8.4401   18.2634 C.ar    1  UNL1        0.1453
     23 N         -16.2488   -9.8600   18.7456 N.ar    1  UNL1       -0.2375
     24 C         -17.4200  -10.7349   18.4095 C.ar    1  UNL1        0.1104
     25 C         -18.5529  -10.1899   17.5913 C.ar    1  UNL1        0.0776
     26 CL        -19.7240  -11.0648   17.2553 Cl      1  UNL1       -0.0806
     27 C         -18.5146   -8.7700   17.1092 C.ar    1  UNL1        0.0260
     28 C         -17.3435   -7.8951   17.4452 C.ar    1  UNL1        0.0806
     29 CL        -17.3053   -6.4753   16.9630 Cl      1  UNL1       -0.0805
@<TRIPOS>BOND
     1     9     8    1
     2     9     1    1
     3     1     2   ar
     4     2     3   ar
     5     3    18    1
     6    18    19   am
     7    19    20    2
     8    19    22    1
     9    22    23   ar
    10    23    24   ar
    11    24    25   ar
    12    25    26    1
    13    25    27   ar
    14    27    28   ar
    15    28    29    1
    16     3     4   ar
    17     4     5   ar
    18     5     6   ar
    19     6     7    1
    20     9    10    1
    21    10    11    1
    22    11    12    1
    23    12    13    1
    24    13    14    1
    25    13    15    2
    26    15     9    1
    27     6     1   ar
    28    28    22   ar
    29    18    21    1
    30    14    16    1
    31    14    17    1
@<TRIPOS>MOLECULE
*****
 29 31 0 0 0
SMALL
GASTEIGER

@<TRIPOS>ATOM
      1 C           3.2751   -0.9056   19.7181 C.ar    1  UNL1        0.0267
      2 C           2.3382   -0.4845   20.8111 C.ar    1  UNL1        0.0144
      3 C           1.2056    0.4514   20.5089 C.ar    1  UNL1        0.0505
      4 C           1.0101    0.9662   19.1136 C.ar    1  UNL1        0.0170
      5 C           1.9470    0.5451   18.0206 C.ar    1  UNL1        0.0306
      6 C           3.0795   -0.3908   18.3229 C.ar    1  UNL1        0.1379
      7 F           4.0166   -0.8120   17.2298 F       1  UNL1       -0.2044
      8 C           5.0409   -0.5355   20.3991 C.3     1  UNL1        0.0292
      9 C           4.4077   -1.8416   20.0203 C.3     1  UNL1        0.1133
     10 C           3.3812   -2.8225   19.5366 C.3     1  UNL1        0.0742
     11 C           3.7071   -4.2858   19.4867 C.3     1  UNL1        0.2107
     12 O           5.0597   -4.7681   19.9204 O.2     1  UNL1       -0.4501
     13 C           6.0862   -3.7872   20.4041 C.2     1  UNL1        0.2768
     14 N           7.4387   -4.2696   20.8378 N.pl3   1  UNL1       -0.3133
     15 N           5.7602   -2.3239   20.4541 N.2     1  UNL1       -0.2241
     16 H           7.6526   -5.2300   20.8051 H       1  UNL1        0.1466
     17 H           8.1124   -3.6257   21.1553 H       1  UNL1        0.1466
     18 N           0.2686    0.8726   21.6019 N.am    1  UNL1       -0.2791
     19 C           0.4989    2.1629   22.3314 C.2     1  UNL1        0.2681
     20 O           1.6662    3.0320   21.9678 O.2     1  UNL1       -0.2681
     21 H          -0.4975    0.3022   21.8405 H       1  UNL1        0.1552
     22 C          -0.4380    2.5841   23.4244 C.ar    1  UNL1        0.1453
     23 N          -1.5762    3.5126   23.1202 N.ar    1  UNL1       -0.2375
     24 C          -2.5132    3.9338   24.2133 C.ar    1  UNL1        0.1104
     25 C          -2.3120    3.4265   25.6105 C.ar    1  UNL1        0.0776
     26 CL         -3.2489    3.8476   26.7035 Cl      1  UNL1       -0.0806
     27 C          -1.1738    2.4980   25.9147 C.ar    1  UNL1        0.0260
     28 C          -0.2369    2.0768   24.8217 C.ar    1  UNL1        0.0806
     29 CL          0.9013    1.1483   25.1258 Cl      1  UNL1       -0.0805
@<TRIPOS>BOND
     1     9     8    1
     2     9     1    1
     3     1     2   ar
     4     2     3   ar
     5     3    18    1
     6    18    19   am
     7    19    20    2
     8    19    22    1
     9    22    23   ar
    10    23    24   ar
    11    24    25   ar
    12    25    26    1
    13    25    27   ar
    14    27    28   ar
    15    28    29    1
    16     3     4   ar
    17     4     5   ar
    18     5     6   ar
    19     6     7    1
    20     9    10    1
    21    10    11    1
    22    11    12    1
    23    12    13    1
    24    13    14    1
    25    13    15    2
    26    15     9    1
    27     6     1   ar
    28    28    22   ar
    29    18    21    1
    30    14    16    1
    31    14    17    1
@<TRIPOS>MOLECULE
*****
 29 31 0 0 0
SMALL
GASTEIGER

@<TRIPOS>ATOM
      1 C         -11.6131   -5.1013   17.5181 C.ar    1  UNL1        0.0267
      2 C         -12.2234   -3.7781   17.1622 C.ar    1  UNL1        0.0144
      3 C         -11.3527   -2.6563   16.6792 C.ar    1  UNL1        0.0505
      4 C          -9.8717   -2.8576   16.5521 C.ar    1  UNL1        0.0170
      5 C          -9.2614   -4.1808   16.9080 C.ar    1  UNL1        0.0306
      6 C         -10.1321   -5.3026   17.3910 C.ar    1  UNL1        0.1379
      7 F          -9.5218   -6.6259   17.7470 F       1  UNL1       -0.2044
      8 C         -12.1272   -5.5873   19.3121 C.3     1  UNL1        0.0292
      9 C         -12.4837   -6.2233   18.0011 C.3     1  UNL1        0.1133
     10 C         -12.5379   -6.4695   16.5225 C.3     1  UNL1        0.0742
     11 C         -13.3389   -7.6169   15.9822 C.3     1  UNL1        0.2107
     12 O         -14.0858   -8.5179   16.9205 O.2     1  UNL1       -0.4501
     13 C         -14.0316   -8.2716   18.3991 C.2     1  UNL1        0.2768
     14 N         -14.7784   -9.1727   19.3374 N.pl3   1  UNL1       -0.3133
     15 N         -13.2306   -7.1243   18.9395 N.2     1  UNL1       -0.2241
     16 H         -15.3041   -9.9257   18.9828 H       1  UNL1        0.1466
     17 H         -14.7428   -9.0110   20.3079 H       1  UNL1        0.1466
     18 N         -11.9630   -1.3330   16.3233 N.am    1  UNL1       -0.2791
     19 C         -12.3449   -0.3677   17.4061 C.2     1  UNL1        0.2681
     20 O         -12.1164   -0.7257   18.8448 O.2     1  UNL1       -0.2681
     21 H         -12.1129   -1.0981   15.3791 H       1  UNL1        0.1552
     22 C         -12.9551    0.9554   17.0502 C.ar    1  UNL1        0.1453
     23 N         -12.1054    2.1914   17.0271 N.ar    1  UNL1       -0.2375
     24 C         -12.7158    3.5146   16.6712 C.ar    1  UNL1        0.1104
     25 C         -14.1758    3.6019   16.3384 C.ar    1  UNL1        0.0776
     26 CL        -14.7860    4.9251   15.9826 Cl      1  UNL1       -0.0806
     27 C         -15.0255    2.3660   16.3615 C.ar    1  UNL1        0.0260
     28 C         -14.4152    1.0428   16.7174 C.ar    1  UNL1        0.0806
     29 CL        -15.2649   -0.1931   16.7405 Cl      1  UNL1       -0.0805
@<TRIPOS>BOND
     1     9     8    1
     2     9     1    1
     3     1     2   ar
     4     2     3   ar
     5     3    18    1
     6    18    19   am
     7    19    20    2
     8    19    22    1
     9    22    23   ar
    10    23    24   ar
    11    24    25   ar
    12    25    26    1
    13    25    27   ar
    14    27    28   ar
    15    28    29    1
    16     3     4   ar
    17     4     5   ar
    18     5     6   ar
    19     6     7    1
    20     9    10    1
    21    10    11    1
    22    11    12    1
    23    12    13    1
    24    13    14    1
    25    13    15    2
    26    15     9    1
    27     6     1   ar
    28    28    22   ar
    29    18    21    1
    30    14    16    1
    31    14    17    1
@<TRIPOS>MOLECULE
*****
 29 31 0 0 0
SMALL
GASTEIGER

@<TRIPOS>ATOM
      1 C           3.1433    0.6053   18.4682 C.ar    1  UNL1        0.0267
      2 C           1.6925    0.9783   18.5458 C.ar    1  UNL1        0.0144
      3 C           1.2863    2.4218   18.5088 C.ar    1  UNL1        0.0505
      4 C           2.3309    3.4922   18.3943 C.ar    1  UNL1        0.0170
      5 C           3.7817    3.1191   18.3167 C.ar    1  UNL1        0.0306
      6 C           4.1879    1.6757   18.3537 C.ar    1  UNL1        0.1379
      7 F           5.6387    1.3025   18.2761 F       1  UNL1       -0.2044
      8 C           3.5875   -0.5948   17.0255 C.3     1  UNL1        0.0292
      9 C           3.5495   -0.8383   18.5052 C.3     1  UNL1        0.1133
     10 C           3.3705   -0.5805   19.9719 C.3     1  UNL1        0.0742
     11 C           3.6109   -1.6815   20.9618 C.3     1  UNL1        0.2107
     12 O           4.0303   -3.0405   20.4848 O.2     1  UNL1       -0.4501
     13 C           4.2093   -3.2983   19.0180 C.2     1  UNL1        0.2768
     14 N           4.6288   -4.6572   18.5411 N.pl3   1  UNL1       -0.3133
     15 N           3.9690   -2.1972   18.0282 N.2     1  UNL1       -0.2241
     16 H           4.7866   -5.3799   19.1907 H       1  UNL1        0.1466
     17 H           4.7463   -4.8264   17.5784 H       1  UNL1        0.1466
     18 N          -0.1645    2.7949   18.5864 N.am    1  UNL1       -0.2791
     19 C          -0.7443    3.2865   19.8795 C.2     1  UNL1        0.2681
     20 O           0.1266    3.4050   21.0950 O.2     1  UNL1       -0.2681
     21 H          -0.7361    2.7171   17.7886 H       1  UNL1        0.1552
     22 C          -2.1951    3.6596   19.9571 C.ar    1  UNL1        0.1453
     23 N          -3.1473    2.8087   20.7440 N.ar    1  UNL1       -0.2375
     24 C          -4.5981    3.1819   20.8216 C.ar    1  UNL1        0.1104
     25 C          -5.0966    4.4059   20.1123 C.ar    1  UNL1        0.0776
     26 CL         -6.5474    4.7791   20.1899 Cl      1  UNL1       -0.0806
     27 C          -4.1444    5.2569   19.3254 C.ar    1  UNL1        0.0260
     28 C          -2.6937    4.8837   19.2478 C.ar    1  UNL1        0.0806
     29 CL         -1.7415    5.7346   18.4609 Cl      1  UNL1       -0.0805
@<TRIPOS>BOND
     1     9     8    1
     2     9     1    1
     3     1     2   ar
     4     2     3   ar
     5     3    18    1
     6    18    19   am
     7    19    20    2
     8    19    22    1
     9    22    23   ar
    10    23    24   ar
    11    24    25   ar
    12    25    26    1
    13    25    27   ar
    14    27    28   ar
    15    28    29    1
    16     3     4   ar
    17     4     5   ar
    18     5     6   ar
    19     6     7    1
    20     9    10    1
    21    10    11    1
    22    11    12    1
    23    12    13    1
    24    13    14    1
    25    13    15    2
    26    15     9    1
    27     6     1   ar
    28    28    22   ar
    29    18    21    1
    30    14    16    1
    31    14    17    1
@<TRIPOS>MOLECULE
*****
 29 31 0 0 0
SMALL
GASTEIGER

@<TRIPOS>ATOM
      1 C           3.7631   -0.5208   19.3303 C.ar    1  UNL1        0.0267
      2 C           4.5521   -1.0317   20.4993 C.ar    1  UNL1        0.0144
      3 C           5.5776   -2.1078   20.2991 C.ar    1  UNL1        0.0505
      4 C           5.8142   -2.6731   18.9299 C.ar    1  UNL1        0.0170
      5 C           5.0252   -2.1622   17.7610 C.ar    1  UNL1        0.0306
      6 C           3.9996   -1.0860   17.9612 C.ar    1  UNL1        0.1379
      7 F           3.2106   -0.5751   16.7922 F       1  UNL1       -0.2044
      8 C           3.8905    1.3818   19.0429 C.3     1  UNL1        0.0292
      9 C           2.7375    0.5554   19.5305 C.3     1  UNL1        0.1133
     10 C           1.9407   -0.6447   19.9485 C.3     1  UNL1        0.0742
     11 C           0.5187   -0.4817   20.3974 C.3     1  UNL1        0.2107
     12 O          -0.1064    0.8815   20.4282 O.2     1  UNL1       -0.4501
     13 C           0.6904    2.0817   20.0102 C.2     1  UNL1        0.2768
     14 N           0.0652    3.4449   20.0410 N.pl3   1  UNL1       -0.3133
     15 N           2.1123    1.9186   19.5613 N.2     1  UNL1       -0.2241
     16 H          -0.8680    3.5519   20.3356 H       1  UNL1        0.1466
     17 H           0.5882    4.2326   19.7666 H       1  UNL1        0.1466
     18 N           6.3667   -2.6187   21.4680 N.am    1  UNL1       -0.2791
     19 C           5.8477   -3.7700   22.2775 C.2     1  UNL1        0.2681
     20 O           4.5397   -4.4104   21.9180 O.2     1  UNL1       -0.2681
     21 H           7.2251   -2.1984   21.7040 H       1  UNL1        0.1552
     22 C           6.6367   -4.2810   23.4464 C.ar    1  UNL1        0.1453
     23 N           7.5636   -5.4475   23.2733 N.ar    1  UNL1       -0.2375
     24 C           8.3526   -5.9585   24.4423 C.ar    1  UNL1        0.1104
     25 C           8.2147   -5.3028   25.7844 C.ar    1  UNL1        0.0776
     26 CL          9.0037   -5.8138   26.9533 Cl      1  UNL1       -0.0806
     27 C           7.2878   -4.1362   25.9575 C.ar    1  UNL1        0.0260
     28 C           6.4988   -3.6253   24.7885 C.ar    1  UNL1        0.0806
     29 CL          5.5719   -2.4587   24.9616 Cl      1  UNL1       -0.0805
@<TRIPOS>BOND
     1     9     8    1
     2     9     1    1
     3     1     2   ar
     4     2     3   ar
     5     3    18    1
     6    18    19   am
     7    19    20    2
     8    19    22    1
     9    22    23   ar
    10    23    24   ar
    11    24    25   ar
    12    25    26    1
    13    25    27   ar
    14    27    28   ar
    15    28    29    1
    16     3     4   ar
    17     4     5   ar
    18     5     6   ar
    19     6     7    1
    20     9    10    1
    21    10    11    1
    22    11    12    1
    23    12    13    1
    24    13    14    1
    25    13    15    2
    26    15     9    1
    27     6     1   ar
    28    28    22   ar
    29    18    21    1
    30    14    16    1
    31    14    17    1
@<TRIPOS>MOLECULE
*****
 29 31 0 0 0
SMALL
GASTEIGER

@<TRIPOS>ATOM
      1 C           3.6139   -1.1528   19.6883 C.ar    1  UNL1        0.0267
      2 C           2.6628   -0.7034   20.7576 C.ar    1  UNL1        0.0144
      3 C           1.5350    0.2247   20.4164 C.ar    1  UNL1        0.0505
      4 C           1.3582    0.7034   19.0058 C.ar    1  UNL1        0.0170
      5 C           2.3093    0.2540   17.9365 C.ar    1  UNL1        0.0306
      6 C           3.4371   -0.6741   18.2778 C.ar    1  UNL1        0.1379
      7 F           4.3883   -1.1236   17.2085 F       1  UNL1       -0.2044
      8 C           3.6809   -3.0800   19.6743 C.3     1  UNL1        0.0292
      9 C           4.7419   -2.0809   20.0296 C.3     1  UNL1        0.1133
     10 C           5.4111   -0.7596   20.2664 C.3     1  UNL1        0.0742
     11 C           6.8398   -0.7133   20.7210 C.3     1  UNL1        0.2107
     12 O           7.5993   -1.9884   20.9388 O.2     1  UNL1       -0.4501
     13 C           6.9300   -3.3097   20.7020 C.2     1  UNL1        0.2768
     14 N           7.6894   -4.5849   20.9198 N.pl3   1  UNL1       -0.3133
     15 N           5.5013   -3.3560   20.2474 N.2     1  UNL1       -0.2241
     16 H           8.6271   -4.5545   21.2182 H       1  UNL1        0.1466
     17 H           7.2502   -5.4521   20.7644 H       1  UNL1        0.1466
     18 N           0.5838    0.6742   21.4857 N.am    1  UNL1       -0.2791
     19 C           0.8943    1.8943   22.3011 C.2     1  UNL1        0.2681
     20 O           2.1559    2.6650   22.0472 O.2     1  UNL1       -0.2681
     21 H          -0.2442    0.1684   21.6523 H       1  UNL1        0.1552
     22 C          -0.0568    2.3438   23.3703 C.ar    1  UNL1        0.1453
     23 N          -1.1907    3.2638   23.0271 N.ar    1  UNL1       -0.2375
     24 C          -2.1418    3.7133   24.0965 C.ar    1  UNL1        0.1104
     25 C          -1.9590    3.2427   25.5089 C.ar    1  UNL1        0.0776
     26 CL         -2.9101    3.6922   26.5782 Cl      1  UNL1       -0.0806
     27 C          -0.8251    2.3227   25.8521 C.ar    1  UNL1        0.0260
     28 C           0.1260    1.8732   24.7829 C.ar    1  UNL1        0.0806
     29 CL          1.2599    0.9532   25.1261 Cl      1  UNL1       -0.0805
@<TRIPOS>BOND
     1     9     8    1
     2     9     1    1
     3     1     2   ar
     4     2     3   ar
     5     3    18    1
     6    18    19   am
     7    19    20    2
     8    19    22    1
     9    22    23   ar
    10    23    24   ar
    11    24    25   ar
    12    25    26    1
    13    25    27   ar
    14    27    28   ar
    15    28    29    1
    16     3     4   ar
    17     4     5   ar
    18     5     6   ar
    19     6     7    1
    20     9    10    1
    21    10    11    1
    22    11    12    1
    23    12    13    1
    24    13    14    1
    25    13    15    2
    26    15     9    1
    27     6     1   ar
    28    28    22   ar
    29    18    21    1
    30    14    16    1
    31    14    17    1
@<TRIPOS>MOLECULE
*****
 29 31 0 0 0
SMALL
GASTEIGER

@<TRIPOS>ATOM
      1 C           4.6262   -1.2037   19.7244 C.ar    1  UNL1        0.0267
      2 C           3.7212   -0.1853   20.3519 C.ar    1  UNL1        0.0144
      3 C           2.7259    0.5546   19.5083 C.ar    1  UNL1        0.0505
      4 C           2.6355    0.2762   18.0372 C.ar    1  UNL1        0.0170
      5 C           3.5404   -0.7422   17.4096 C.ar    1  UNL1        0.0306
      6 C           4.5358   -1.4821   18.2532 C.ar    1  UNL1        0.1379
      7 F           5.4408   -2.5006   17.6257 F       1  UNL1       -0.2044
      8 C           6.4967   -0.8495   20.0320 C.3     1  UNL1        0.0292
      9 C           5.6217   -1.9437   20.5680 C.3     1  UNL1        0.1133
     10 C           4.4010   -2.7808   20.8110 C.3     1  UNL1        0.0742
     11 C           4.4795   -3.9779   21.7114 C.3     1  UNL1        0.2107
     12 O           5.7789   -4.3379   22.3688 O.2     1  UNL1       -0.4501
     13 C           6.9996   -3.5008   22.1258 C.2     1  UNL1        0.2768
     14 N           8.2989   -3.8607   22.7833 N.pl3   1  UNL1       -0.3133
     15 N           6.9210   -2.3036   21.2254 N.2     1  UNL1       -0.2241
     16 H           8.3505   -4.6464   23.3742 H       1  UNL1        0.1466
     17 H           9.1001   -3.3113   22.6238 H       1  UNL1        0.1466
     18 N           1.8208    1.5731   20.1359 N.am    1  UNL1       -0.2791
     19 C           0.4997    1.1514   20.7076 C.2     1  UNL1        0.2681
     20 O           0.0836   -0.2887   20.6517 O.2     1  UNL1       -0.2681
     21 H           2.0939    2.5182   20.1726 H       1  UNL1        0.1552
     22 C          -0.4053    2.1698   21.3351 C.ar    1  UNL1        0.1453
     23 N          -1.5978    2.6793   20.5812 N.ar    1  UNL1       -0.2375
     24 C          -2.5028    3.6977   21.2088 C.ar    1  UNL1        0.1104
     25 C          -2.2154    4.2065   22.5903 C.ar    1  UNL1        0.0776
     26 CL         -3.1204    5.2249   23.2178 Cl      1  UNL1       -0.0806
     27 C          -1.0229    3.6970   23.3442 C.ar    1  UNL1        0.0260
     28 C          -0.1179    2.6786   22.7166 C.ar    1  UNL1        0.0806
     29 CL          1.0746    2.1691   23.4706 Cl      1  UNL1       -0.0805
@<TRIPOS>BOND
     1     9     8    1
     2     9     1    1
     3     1     2   ar
     4     2     3   ar
     5     3    18    1
     6    18    19   am
     7    19    20    2
     8    19    22    1
     9    22    23   ar
    10    23    24   ar
    11    24    25   ar
    12    25    26    1
    13    25    27   ar
    14    27    28   ar
    15    28    29    1
    16     3     4   ar
    17     4     5   ar
    18     5     6   ar
    19     6     7    1
    20     9    10    1
    21    10    11    1
    22    11    12    1
    23    12    13    1
    24    13    14    1
    25    13    15    2
    26    15     9    1
    27     6     1   ar
    28    28    22   ar
    29    18    21    1
    30    14    16    1
    31    14    17    1
