@<TRIPOS>MOLECULE
*****
 31 35 0 0 0
SMALL
GASTEIGER

@<TRIPOS>ATOM
      1 N          -7.9135  -20.8701   22.9991 N.pl3   1  UNL1       -0.2927
      2 H          -7.8803  -21.7909   23.3460 H       1  UNL1        0.1541
      3 C          -9.1610  -20.0527   23.1593 C.ar    1  UNL1        0.1629
      4 N          -9.5611  -18.8798   22.3143 N.ar    1  UNL1       -0.2284
      5 C         -10.8748  -18.3669   22.8254 C.ar    1  UNL1        0.0666
      6 C         -11.2866  -19.2230   23.9862 C.ar    1  UNL1        0.0237
      7 S         -10.2274  -20.2649   24.1926 S.2     1  UNL1       -0.0561
      8 C         -12.5729  -18.9432   24.7054 C.3     1  UNL1        0.0343
      9 C         -13.4473  -17.8074   24.2637 C.3     1  UNL1        0.0060
     10 C         -13.0355  -16.9513   23.1028 C.3     1  UNL1        0.0107
     11 C         -11.7493  -17.2311   22.3837 C.3     1  UNL1        0.0627
     12 C         -11.3375  -16.3750   21.2229 C.ar    1  UNL1       -0.0169
     13 C         -12.1828  -16.3335   19.9844 C.ar    1  UNL1       -0.0039
     14 C         -11.7709  -15.4775   18.8236 C.ar    1  UNL1       -0.0003
     15 C         -10.5138  -14.6629   18.9012 C.ar    1  UNL1       -0.0000
     16 C          -9.6685  -14.7044   20.1396 C.ar    1  UNL1       -0.0003
     17 C         -10.0803  -15.5604   21.3004 C.ar    1  UNL1       -0.0039
     18 C          -4.3224  -19.1134   20.9331 C.ar    1  UNL1        0.0992
     19 C          -4.9655  -20.3560   20.3923 C.ar    1  UNL1        0.0219
     20 C          -6.1626  -20.9416   21.0810 C.ar    1  UNL1        0.0163
     21 C          -6.7165  -20.2845   22.3104 C.ar    1  UNL1        0.0529
     22 C          -6.0733  -19.0419   22.8512 C.ar    1  UNL1        0.0528
     23 C          -4.8763  -18.4564   22.1625 C.ar    1  UNL1        0.1509
     24 O          -4.2332  -17.2138   22.7033 O.3     1  UNL1       -0.5040
     25 H          -4.5792  -16.8033   23.4713 H       1  UNL1        0.2923
     26 C           0.6075  -17.5137   19.9243 C.3     1  UNL1        0.0538
     27 C          -0.8593  -17.7925   19.7808 C.ar    1  UNL1        0.0786
     28 C          -1.7358  -18.4519   20.8041 C.ar    1  UNL1        0.0963
     29 N          -3.1254  -18.5278   20.2444 N.ar    1  UNL1       -0.2839
     30 C          -3.1078  -17.9153   18.8753 C.ar    1  UNL1        0.1826
     31 N          -1.7073  -17.4609   18.5887 N.ar    1  UNL1       -0.2280
@<TRIPOS>BOND
     1    26    27    1
     2    27    28   ar
     3    28    29   ar
     4    29    18    1
     5    18    19   ar
     6    19    20   ar
     7    20    21   ar
     8    21     1    1
     9     1     3    1
    10     3     4   ar
    11     4     5   ar
    12     5     6   ar
    13     6     7   ar
    14     6     8    1
    15     8     9    1
    16     9    10    1
    17    10    11    1
    18    11    12    1
    19    12    13   ar
    20    13    14   ar
    21    14    15   ar
    22    15    16   ar
    23    16    17   ar
    24    21    22   ar
    25    22    23   ar
    26    23    24    1
    27    29    30   ar
    28    30    31   ar
    29    31    27   ar
    30    23    18   ar
    31     7     3   ar
    32    17    12   ar
    33    11     5    1
    34     1     2    1
    35    24    25    1
@<TRIPOS>MOLECULE
*****
 31 35 0 0 0
SMALL
GASTEIGER

@<TRIPOS>ATOM
      1 N           3.8094    0.9156   25.9565 N.pl3   1  UNL1       -0.2927
      2 H           3.6532    1.8602   25.7273 H       1  UNL1        0.1541
      3 C           3.9464   -0.1076   24.8682 C.ar    1  UNL1        0.1629
      4 N           3.4111    0.0131   23.4722 N.ar    1  UNL1       -0.2284
      5 C           3.7767   -1.2357   22.7260 C.ar    1  UNL1        0.0666
      6 C           4.5380   -2.1282   23.6608 C.ar    1  UNL1        0.0237
      7 S           4.6429   -1.4309   24.9848 S.2     1  UNL1       -0.0561
      8 C           5.0373   -3.4605   23.1857 C.3     1  UNL1        0.0343
      9 C           4.7754   -3.9002   21.7758 C.3     1  UNL1        0.0060
     10 C           4.0141   -3.0077   20.8410 C.3     1  UNL1        0.0107
     11 C           3.5148   -1.6755   21.3160 C.3     1  UNL1        0.0627
     12 C           2.7535   -0.7830   20.3812 C.ar    1  UNL1       -0.0169
     13 C           3.4299   -0.2160   19.1684 C.ar    1  UNL1       -0.0039
     14 C           2.6686    0.6765   18.2335 C.ar    1  UNL1       -0.0003
     15 C           1.2310    1.0020   18.5115 C.ar    1  UNL1       -0.0000
     16 C           0.5546    0.4349   19.7243 C.ar    1  UNL1       -0.0003
     17 C           1.3159   -0.4576   20.6591 C.ar    1  UNL1       -0.0039
     18 C           4.1120   -0.3328   30.2693 C.ar    1  UNL1        0.0992
     19 C           5.3369    0.1211   29.5322 C.ar    1  UNL1        0.0219
     20 C           5.2361    0.5372   28.0946 C.ar    1  UNL1        0.0163
     21 C           3.9102    0.4994   27.3941 C.ar    1  UNL1        0.0529
     22 C           2.6852    0.0455   28.1312 C.ar    1  UNL1        0.0528
     23 C           2.7861   -0.3706   29.5688 C.ar    1  UNL1        0.1509
     24 O           1.5611   -0.8245   30.3060 O.3     1  UNL1       -0.5040
     25 H           0.7328   -0.8482   29.8684 H       1  UNL1        0.2923
     26 C           4.6387   -0.1656   35.5206 C.3     1  UNL1        0.0538
     27 C           4.4549   -0.6720   34.1207 C.ar    1  UNL1        0.0786
     28 C           4.4128    0.1670   32.8779 C.ar    1  UNL1        0.0963
     29 N           4.2128   -0.7490   31.7069 N.ar    1  UNL1       -0.2839
     30 C           4.1313   -2.1539   32.2259 C.ar    1  UNL1        0.1826
     31 N           4.2810   -2.1064   33.7177 N.ar    1  UNL1       -0.2280
@<TRIPOS>BOND
     1    26    27    1
     2    27    28   ar
     3    28    29   ar
     4    29    18    1
     5    18    19   ar
     6    19    20   ar
     7    20    21   ar
     8    21     1    1
     9     1     3    1
    10     3     4   ar
    11     4     5   ar
    12     5     6   ar
    13     6     7   ar
    14     6     8    1
    15     8     9    1
    16     9    10    1
    17    10    11    1
    18    11    12    1
    19    12    13   ar
    20    13    14   ar
    21    14    15   ar
    22    15    16   ar
    23    16    17   ar
    24    21    22   ar
    25    22    23   ar
    26    23    24    1
    27    29    30   ar
    28    30    31   ar
    29    31    27   ar
    30    23    18   ar
    31     7     3   ar
    32    17    12   ar
    33    11     5    1
    34     1     2    1
    35    24    25    1
@<TRIPOS>MOLECULE
*****
 31 35 0 0 0
SMALL
GASTEIGER

@<TRIPOS>ATOM
      1 N           4.3128   -0.0856   32.7425 N.pl3   1  UNL1       -0.2927
      2 H           3.4879    0.2692   32.3388 H       1  UNL1        0.1541
      3 C           4.8081    0.4678   34.0457 C.ar    1  UNL1        0.1629
      4 N           3.9677    0.7748   35.2496 N.ar    1  UNL1       -0.2284
      5 C           4.8710    1.3081   36.3218 C.ar    1  UNL1        0.0666
      6 C           6.2697    1.3308   35.7805 C.ar    1  UNL1        0.0237
      7 S           6.2309    0.8115   34.3738 S.2     1  UNL1       -0.0561
      8 C           7.3981    1.8214   36.6385 C.3     1  UNL1        0.0343
      9 C           7.1277    2.2893   38.0377 C.3     1  UNL1        0.0060
     10 C           5.7289    2.2667   38.5790 C.3     1  UNL1        0.0107
     11 C           4.6006    1.7761   37.7210 C.3     1  UNL1        0.0627
     12 C           3.2018    1.7534   38.2623 C.ar    1  UNL1       -0.0169
     13 C           2.3424    2.9794   38.1712 C.ar    1  UNL1       -0.0039
     14 C           0.9437    2.9568   38.7124 C.ar    1  UNL1       -0.0003
     15 C           0.4043    1.7081   39.3448 C.ar    1  UNL1       -0.0000
     16 C           1.2637    0.4822   39.4360 C.ar    1  UNL1       -0.0003
     17 C           2.6625    0.5048   38.8947 C.ar    1  UNL1       -0.0039
     18 C           6.5970   -3.3674   30.6781 C.ar    1  UNL1        0.0992
     19 C           6.3821   -2.0538   29.9867 C.ar    1  UNL1        0.0219
     20 C           5.6207   -0.9597   30.6749 C.ar    1  UNL1        0.0163
     21 C           5.0742   -1.1795   32.0544 C.ar    1  UNL1        0.0529
     22 C           5.2891   -2.4933   32.7457 C.ar    1  UNL1        0.0528
     23 C           6.0505   -3.5872   32.0576 C.ar    1  UNL1        0.1509
     24 O           6.2654   -4.9009   32.7490 O.3     1  UNL1       -0.5040
     25 H           5.9240   -5.0382   33.6107 H       1  UNL1        0.2923
     26 C           7.8376   -7.3647   27.4588 C.3     1  UNL1        0.0538
     27 C           7.9286   -6.2988   28.5102 C.ar    1  UNL1        0.0786
     28 C           6.8327   -5.3534   28.9046 C.ar    1  UNL1        0.0963
     29 N           7.3584   -4.4614   29.9900 N.ar    1  UNL1       -0.2839
     30 C           8.7791   -4.8555   30.2665 C.ar    1  UNL1        0.1826
     31 N           9.1315   -5.9910   29.3519 N.ar    1  UNL1       -0.2280
@<TRIPOS>BOND
     1    26    27    1
     2    27    28   ar
     3    28    29   ar
     4    29    18    1
     5    18    19   ar
     6    19    20   ar
     7    20    21   ar
     8    21     1    1
     9     1     3    1
    10     3     4   ar
    11     4     5   ar
    12     5     6   ar
    13     6     7   ar
    14     6     8    1
    15     8     9    1
    16     9    10    1
    17    10    11    1
    18    11    12    1
    19    12    13   ar
    20    13    14   ar
    21    14    15   ar
    22    15    16   ar
    23    16    17   ar
    24    21    22   ar
    25    22    23   ar
    26    23    24    1
    27    29    30   ar
    28    30    31   ar
    29    31    27   ar
    30    23    18   ar
    31     7     3   ar
    32    17    12   ar
    33    11     5    1
    34     1     2    1
    35    24    25    1
@<TRIPOS>MOLECULE
*****
 31 35 0 0 0
SMALL
GASTEIGER

@<TRIPOS>ATOM
      1 N          -7.3650  -19.9466   19.9521 N.pl3   1  UNL1       -0.2927
      2 H          -7.4489  -20.4412   19.1050 H       1  UNL1        0.1541
      3 C          -6.0118  -19.5275   20.4451 C.ar    1  UNL1        0.1629
      4 N          -5.7364  -18.6819   21.6530 N.ar    1  UNL1       -0.2284
      5 C          -4.2507  -18.5122   21.7711 C.ar    1  UNL1        0.0666
      6 C          -3.6078  -19.2529   20.6362 C.ar    1  UNL1        0.0237
      7 S          -4.6963  -19.8804   19.8167 S.2     1  UNL1       -0.0561
      8 C          -2.1145  -19.2604   20.4956 C.3     1  UNL1        0.0343
      9 C          -1.2640  -18.5270   21.4900 C.3     1  UNL1        0.0060
     10 C          -1.9068  -17.7863   22.6249 C.3     1  UNL1        0.0107
     11 C          -3.4001  -17.7788   22.7655 C.3     1  UNL1        0.0627
     12 C          -4.0430  -17.0381   23.9004 C.ar    1  UNL1       -0.0169
     13 C          -4.9239  -15.8565   23.6215 C.ar    1  UNL1       -0.0039
     14 C          -5.5667  -15.1157   24.7564 C.ar    1  UNL1       -0.0003
     15 C          -5.3286  -15.5565   26.1702 C.ar    1  UNL1       -0.0000
     16 C          -4.4477  -16.7381   26.4491 C.ar    1  UNL1       -0.0003
     17 C          -3.8049  -17.4789   25.3142 C.ar    1  UNL1       -0.0039
     18 C         -11.0415  -18.9432   22.3452 C.ar    1  UNL1        0.0992
     19 C         -11.1356  -19.1008   20.8565 C.ar    1  UNL1        0.0219
     20 C          -9.9101  -19.4353   20.0588 C.ar    1  UNL1        0.0163
     21 C          -8.5905  -19.6121   20.7498 C.ar    1  UNL1        0.0529
     22 C          -8.4964  -19.4544   22.2386 C.ar    1  UNL1        0.0528
     23 C          -9.7219  -19.1199   23.0362 C.ar    1  UNL1        0.1509
     24 O          -9.6278  -18.9622   24.5250 O.3     1  UNL1       -0.5040
     25 H          -8.8036  -19.0726   24.9567 H       1  UNL1        0.2923
     26 C         -14.4761  -18.5172   26.3331 C.3     1  UNL1        0.0538
     27 C         -13.8457  -18.4129   24.9760 C.ar    1  UNL1        0.0786
     28 C         -12.4903  -18.9281   24.5914 C.ar    1  UNL1        0.0963
     29 N         -12.2670  -18.6087   23.1430 N.ar    1  UNL1       -0.2839
     30 C         -13.4841  -17.8961   22.6323 C.ar    1  UNL1        0.1826
     31 N         -14.4598  -17.7751   23.7652 N.ar    1  UNL1       -0.2280
@<TRIPOS>BOND
     1    26    27    1
     2    27    28   ar
     3    28    29   ar
     4    29    18    1
     5    18    19   ar
     6    19    20   ar
     7    20    21   ar
     8    21     1    1
     9     1     3    1
    10     3     4   ar
    11     4     5   ar
    12     5     6   ar
    13     6     7   ar
    14     6     8    1
    15     8     9    1
    16     9    10    1
    17    10    11    1
    18    11    12    1
    19    12    13   ar
    20    13    14   ar
    21    14    15   ar
    22    15    16   ar
    23    16    17   ar
    24    21    22   ar
    25    22    23   ar
    26    23    24    1
    27    29    30   ar
    28    30    31   ar
    29    31    27   ar
    30    23    18   ar
    31     7     3   ar
    32    17    12   ar
    33    11     5    1
    34     1     2    1
    35    24    25    1
@<TRIPOS>MOLECULE
*****
 31 35 0 0 0
SMALL
GASTEIGER

@<TRIPOS>ATOM
      1 N           0.4533    3.7888   19.9934 N.pl3   1  UNL1       -0.2927
      2 H           0.7246    4.6624   19.6295 H       1  UNL1        0.1541
      3 C          -0.7645    3.6841   20.8629 C.ar    1  UNL1        0.1629
      4 N          -0.7795    3.6823   22.3628 N.ar    1  UNL1       -0.2284
      5 C          -2.2054    3.5599   22.8120 C.ar    1  UNL1        0.0666
      6 C          -3.0718    3.4860   21.5897 C.ar    1  UNL1        0.0237
      7 S          -2.1812    3.5628   20.3851 S.2     1  UNL1       -0.0561
      8 C          -4.5595    3.3584   21.7315 C.3     1  UNL1        0.0343
      9 C          -5.1810    3.3046   23.0956 C.3     1  UNL1        0.0060
     10 C          -4.3147    3.3785   24.3179 C.3     1  UNL1        0.0107
     11 C          -2.8269    3.5061   24.1761 C.3     1  UNL1        0.0627
     12 C          -1.9606    3.5800   25.3984 C.ar    1  UNL1       -0.0169
     13 C          -1.1534    2.3876   25.8188 C.ar    1  UNL1       -0.0039
     14 C          -0.2871    2.4615   27.0411 C.ar    1  UNL1       -0.0003
     15 C          -0.2280    3.7277   27.8430 C.ar    1  UNL1       -0.0000
     16 C          -1.0351    4.9200   27.4227 C.ar    1  UNL1       -0.0003
     17 C          -1.9015    4.8462   26.2004 C.ar    1  UNL1       -0.0039
     18 C           2.8665    0.1101   19.0486 C.ar    1  UNL1        0.0992
     19 C           1.6903    0.4756   18.1927 C.ar    1  UNL1        0.0219
     20 C           0.8858    1.7020   18.5076 C.ar    1  UNL1        0.0163
     21 C           1.2577    2.5626   19.6785 C.ar    1  UNL1        0.0529
     22 C           2.4340    2.1970   20.5344 C.ar    1  UNL1        0.0528
     23 C           3.2384    0.9707   20.2195 C.ar    1  UNL1        0.1509
     24 O           4.4147    0.6051   21.0755 O.3     1  UNL1       -0.5040
     25 H           4.6470    1.1427   21.8069 H       1  UNL1        0.2923
     26 C           4.5635   -4.8886   18.9284 C.3     1  UNL1        0.0538
     27 C           4.4510   -3.4139   18.6784 C.ar    1  UNL1        0.0786
     28 C           3.4029   -2.5013   19.2433 C.ar    1  UNL1        0.0963
     29 N           3.6710   -1.1162   18.7337 N.ar    1  UNL1       -0.2839
     30 C           4.8846   -1.1727   17.8540 C.ar    1  UNL1        0.1826
     31 N           5.3667   -2.5927   17.8198 N.ar    1  UNL1       -0.2280
@<TRIPOS>BOND
     1    26    27    1
     2    27    28   ar
     3    28    29   ar
     4    29    18    1
     5    18    19   ar
     6    19    20   ar
     7    20    21   ar
     8    21     1    1
     9     1     3    1
    10     3     4   ar
    11     4     5   ar
    12     5     6   ar
    13     6     7   ar
    14     6     8    1
    15     8     9    1
    16     9    10    1
    17    10    11    1
    18    11    12    1
    19    12    13   ar
    20    13    14   ar
    21    14    15   ar
    22    15    16   ar
    23    16    17   ar
    24    21    22   ar
    25    22    23   ar
    26    23    24    1
    27    29    30   ar
    28    30    31   ar
    29    31    27   ar
    30    23    18   ar
    31     7     3   ar
    32    17    12   ar
    33    11     5    1
    34     1     2    1
    35    24    25    1
@<TRIPOS>MOLECULE
*****
 31 35 0 0 0
SMALL
GASTEIGER

@<TRIPOS>ATOM
      1 N          -0.1428    4.2541   19.6937 N.pl3   1  UNL1       -0.2927
      2 H           0.2829    5.1091   19.9326 H       1  UNL1        0.1541
      3 C          -1.6370    4.1601   19.6018 C.ar    1  UNL1        0.1629
      4 N          -2.5948    4.1863   20.7560 N.ar    1  UNL1       -0.2284
      5 C          -3.9855    4.0658   20.2071 C.ar    1  UNL1        0.0666
      6 C          -3.8873    3.9650   18.7137 C.ar    1  UNL1        0.0237
      7 S          -2.4359    4.0233   18.3397 S.2     1  UNL1       -0.0561
      8 C          -5.1322    3.8332   17.8874 C.3     1  UNL1        0.0343
      9 C          -6.4753    3.8021   18.5545 C.3     1  UNL1        0.0060
     10 C          -6.5735    3.9029   20.0479 C.3     1  UNL1        0.0107
     11 C          -5.3286    4.0347   20.8742 C.3     1  UNL1        0.0627
     12 C          -5.4268    4.1355   22.3676 C.ar    1  UNL1       -0.0169
     13 C          -6.3078    5.1762   22.9927 C.ar    1  UNL1       -0.0039
     14 C          -6.4060    5.2770   24.4861 C.ar    1  UNL1       -0.0003
     15 C          -5.6232    4.3371   25.3544 C.ar    1  UNL1       -0.0000
     16 C          -4.7422    3.2965   24.7292 C.ar    1  UNL1       -0.0003
     17 C          -4.6440    3.1957   23.2358 C.ar    1  UNL1       -0.0039
     18 C           2.3943    0.6282   18.8775 C.ar    1  UNL1        0.0992
     19 C           2.8433    1.9794   18.4056 C.ar    1  UNL1        0.0219
     20 C           1.9976    3.1881   18.6776 C.ar    1  UNL1        0.0163
     21 C           0.7029    3.0455   19.4217 C.ar    1  UNL1        0.0529
     22 C           0.2539    1.6943   19.8936 C.ar    1  UNL1        0.0528
     23 C           1.0996    0.4857   19.6215 C.ar    1  UNL1        0.1509
     24 O           0.6507   -0.8656   20.0935 O.3     1  UNL1       -0.5040
     25 H          -0.1580   -0.9546   20.5582 H       1  UNL1        0.2923
     26 C           4.9924   -3.9263   19.4997 C.3     1  UNL1        0.0538
     27 C           4.4342   -2.6740   18.8915 C.ar    1  UNL1        0.0786
     28 C           3.5636   -1.6687   19.5857 C.ar    1  UNL1        0.0963
     29 N           3.2400   -0.5805   18.6055 N.ar    1  UNL1       -0.2839
     30 C           3.9104   -0.9130   17.3055 C.ar    1  UNL1        0.1826
     31 N           4.6485   -2.2068   17.4823 N.ar    1  UNL1       -0.2280
@<TRIPOS>BOND
     1    26    27    1
     2    27    28   ar
     3    28    29   ar
     4    29    18    1
     5    18    19   ar
     6    19    20   ar
     7    20    21   ar
     8    21     1    1
     9     1     3    1
    10     3     4   ar
    11     4     5   ar
    12     5     6   ar
    13     6     7   ar
    14     6     8    1
    15     8     9    1
    16     9    10    1
    17    10    11    1
    18    11    12    1
    19    12    13   ar
    20    13    14   ar
    21    14    15   ar
    22    15    16   ar
    23    16    17   ar
    24    21    22   ar
    25    22    23   ar
    26    23    24    1
    27    29    30   ar
    28    30    31   ar
    29    31    27   ar
    30    23    18   ar
    31     7     3   ar
    32    17    12   ar
    33    11     5    1
    34     1     2    1
    35    24    25    1
@<TRIPOS>MOLECULE
*****
 31 35 0 0 0
SMALL
GASTEIGER

@<TRIPOS>ATOM
      1 N           5.6071   -1.3550   24.6415 N.pl3   1  UNL1       -0.2927
      2 H           6.5729   -1.2749   24.8151 H       1  UNL1        0.1541
      3 C           5.1235   -1.9595   23.3567 C.ar    1  UNL1        0.1629
      4 N           4.2248   -1.2980   22.3544 N.ar    1  UNL1       -0.2284
      5 C           3.9996   -2.2613   21.2268 C.ar    1  UNL1        0.0666
      6 C           4.7592   -3.5181   21.5323 C.ar    1  UNL1        0.0237
      7 S           5.4539   -3.3316   22.8486 S.2     1  UNL1       -0.0561
      8 C           4.7203   -4.6701   20.5723 C.3     1  UNL1        0.0343
      9 C           3.9217   -4.5651   19.3069 C.3     1  UNL1        0.0060
     10 C           3.1621   -3.3083   19.0015 C.3     1  UNL1        0.0107
     11 C           3.2010   -2.1564   19.9615 C.3     1  UNL1        0.0627
     12 C           2.4414   -0.8995   19.6560 C.ar    1  UNL1       -0.0169
     13 C           1.1264   -0.6359   20.3279 C.ar    1  UNL1       -0.0039
     14 C           0.3668    0.6209   20.0224 C.ar    1  UNL1       -0.0003
     15 C           0.9221    1.6142   19.0452 C.ar    1  UNL1       -0.0000
     16 C           2.2370    1.3506   18.3734 C.ar    1  UNL1       -0.0003
     17 C           2.9967    0.0937   18.6788 C.ar    1  UNL1       -0.0039
     18 C           2.6434    0.0925   27.7028 C.ar    1  UNL1        0.0992
     19 C           3.5350   -1.0728   28.0145 C.ar    1  UNL1        0.0219
     20 C           4.5229   -1.5554   26.9940 C.ar    1  UNL1        0.0163
     21 C           4.6192   -0.8725   25.6619 C.ar    1  UNL1        0.0529
     22 C           3.7277    0.2929   25.3503 C.ar    1  UNL1        0.0528
     23 C           2.7398    0.7753   26.3707 C.ar    1  UNL1        0.1509
     24 O           1.8482    1.9407   26.0591 O.3     1  UNL1       -0.5040
     25 H           1.9084    2.3673   25.2270 H       1  UNL1        0.2923
     26 C           0.4361    2.7750   31.6794 C.3     1  UNL1        0.0538
     27 C           0.6410    1.8081   30.5511 C.ar    1  UNL1        0.0786
     28 C           1.8930    1.6522   29.7397 C.ar    1  UNL1        0.0963
     29 N           1.6555    0.5750   28.7232 N.ar    1  UNL1       -0.2839
     30 C           0.2568    0.0652   28.9062 C.ar    1  UNL1        0.1826
     31 N          -0.3703    0.8272   30.0359 N.ar    1  UNL1       -0.2280
@<TRIPOS>BOND
     1    26    27    1
     2    27    28   ar
     3    28    29   ar
     4    29    18    1
     5    18    19   ar
     6    19    20   ar
     7    20    21   ar
     8    21     1    1
     9     1     3    1
    10     3     4   ar
    11     4     5   ar
    12     5     6   ar
    13     6     7   ar
    14     6     8    1
    15     8     9    1
    16     9    10    1
    17    10    11    1
    18    11    12    1
    19    12    13   ar
    20    13    14   ar
    21    14    15   ar
    22    15    16   ar
    23    16    17   ar
    24    21    22   ar
    25    22    23   ar
    26    23    24    1
    27    29    30   ar
    28    30    31   ar
    29    31    27   ar
    30    23    18   ar
    31     7     3   ar
    32    17    12   ar
    33    11     5    1
    34     1     2    1
    35    24    25    1
@<TRIPOS>MOLECULE
*****
 31 35 0 0 0
SMALL
GASTEIGER

@<TRIPOS>ATOM
      1 N           0.4764    3.1773   21.4560 N.pl3   1  UNL1       -0.2927
      2 H           0.6849    3.9419   20.8719 H       1  UNL1        0.1541
      3 C          -0.5652    3.3136   22.5267 C.ar    1  UNL1        0.1629
      4 N          -0.3557    3.0868   23.9946 N.ar    1  UNL1       -0.2284
      5 C          -1.6601    3.3337   24.6927 C.ar    1  UNL1        0.0666
      6 C          -2.6759    3.7131   23.6563 C.ar    1  UNL1        0.0237
      7 S          -1.9992    3.7007   22.3177 S.2     1  UNL1       -0.0561
      8 C          -4.0858    4.0209   24.0653 C.3     1  UNL1        0.0343
      9 C          -4.4800    3.9493   25.5108 C.3     1  UNL1        0.0060
     10 C          -3.4642    3.5698   26.5473 C.3     1  UNL1        0.0107
     11 C          -2.0543    3.2620   26.1382 C.3     1  UNL1        0.0627
     12 C          -1.0385    2.8825   27.1746 C.ar    1  UNL1       -0.0169
     13 C          -1.0264    1.4931   27.7396 C.ar    1  UNL1       -0.0039
     14 C          -0.0106    1.1136   28.7760 C.ar    1  UNL1       -0.0003
     15 C           0.9931    2.1236   29.2475 C.ar    1  UNL1       -0.0000
     16 C           0.9811    3.5131   28.6825 C.ar    1  UNL1       -0.0003
     17 C          -0.0347    3.8925   27.6461 C.ar    1  UNL1       -0.0039
     18 C           2.6480   -0.7265   20.9134 C.ar    1  UNL1        0.0992
     19 C           1.1990   -0.6164   20.5415 C.ar    1  UNL1        0.0219
     20 C           0.4751    0.6850   20.7224 C.ar    1  UNL1        0.0163
     21 C           1.2002    1.8760   21.2751 C.ar    1  UNL1        0.0529
     22 C           2.6493    1.7658   21.6470 C.ar    1  UNL1        0.0528
     23 C           3.3731    0.4646   21.4661 C.ar    1  UNL1        0.1509
     24 O           4.8221    0.3543   21.8380 O.3     1  UNL1       -0.5040
     25 H           5.2751    1.0984   22.1833 H       1  UNL1        0.2923
     26 C           4.6547   -5.0956   18.7303 C.3     1  UNL1        0.0538
     27 C           4.2943   -4.0360   19.7290 C.ar    1  UNL1        0.0786
     28 C           3.4874   -2.8020   19.4529 C.ar    1  UNL1        0.0963
     29 N           3.3719   -2.0278   20.7325 N.ar    1  UNL1       -0.2839
     30 C           4.1074   -2.7833   21.7994 C.ar    1  UNL1        0.1826
     31 N           4.6774   -4.0245   21.1792 N.ar    1  UNL1       -0.2280
@<TRIPOS>BOND
     1    26    27    1
     2    27    28   ar
     3    28    29   ar
     4    29    18    1
     5    18    19   ar
     6    19    20   ar
     7    20    21   ar
     8    21     1    1
     9     1     3    1
    10     3     4   ar
    11     4     5   ar
    12     5     6   ar
    13     6     7   ar
    14     6     8    1
    15     8     9    1
    16     9    10    1
    17    10    11    1
    18    11    12    1
    19    12    13   ar
    20    13    14   ar
    21    14    15   ar
    22    15    16   ar
    23    16    17   ar
    24    21    22   ar
    25    22    23   ar
    26    23    24    1
    27    29    30   ar
    28    30    31   ar
    29    31    27   ar
    30    23    18   ar
    31     7     3   ar
    32    17    12   ar
    33    11     5    1
    34     1     2    1
    35    24    25    1
@<TRIPOS>MOLECULE
*****
 31 35 0 0 0
SMALL
GASTEIGER

@<TRIPOS>ATOM
      1 N           0.3946    3.9897   20.1188 N.pl3   1  UNL1       -0.2927
      2 H           0.6338    4.8559   19.7168 H       1  UNL1        0.1541
      3 C          -0.7609    3.8982   21.0709 C.ar    1  UNL1        0.1629
      4 N          -2.2115    4.0282   20.7120 N.ar    1  UNL1       -0.2284
      5 C          -3.0158    3.8711   21.9683 C.ar    1  UNL1        0.0666
      6 C          -2.0623    3.6440   23.1038 C.ar    1  UNL1        0.0237
      7 S          -0.6687    3.6608   22.5491 S.2     1  UNL1       -0.0561
      8 C          -2.5862    3.4513   24.4960 C.3     1  UNL1        0.0343
      9 C          -4.0636    3.4857   24.7528 C.3     1  UNL1        0.0060
     10 C          -5.0171    3.7127   23.6174 C.3     1  UNL1        0.0107
     11 C          -4.4932    3.9055   22.2252 C.3     1  UNL1        0.0627
     12 C          -5.4468    4.1325   21.0897 C.ar    1  UNL1       -0.0169
     13 C          -6.4102    5.2812   21.1377 C.ar    1  UNL1       -0.0039
     14 C          -7.3638    5.5083   20.0023 C.ar    1  UNL1       -0.0003
     15 C          -7.3539    4.5867   18.8189 C.ar    1  UNL1       -0.0000
     16 C          -6.3905    3.4380   18.7709 C.ar    1  UNL1       -0.0003
     17 C          -5.4369    3.2110   19.9063 C.ar    1  UNL1       -0.0039
     18 C           2.7676    0.3045   19.1001 C.ar    1  UNL1        0.0992
     19 C           1.5394    0.6476   18.3104 C.ar    1  UNL1        0.0219
     20 C           0.7483    1.8761   18.6500 C.ar    1  UNL1        0.0163
     21 C           1.1856    2.7613   19.7792 C.ar    1  UNL1        0.0529
     22 C           2.4139    2.4181   20.5689 C.ar    1  UNL1        0.0528
     23 C           3.2049    1.1897   20.2293 C.ar    1  UNL1        0.1509
     24 O           4.4332    0.8465   21.0190 O.3     1  UNL1       -0.5040
     25 H           4.7063    1.3995   21.7244 H       1  UNL1        0.2923
     26 C           4.5642   -4.6606   19.0635 C.3     1  UNL1        0.0538
     27 C           4.3845   -3.2062   18.7437 C.ar    1  UNL1        0.0786
     28 C           3.3902   -2.2800   19.3792 C.ar    1  UNL1        0.0963
     29 N           3.5587   -0.9240   18.7605 N.ar    1  UNL1       -0.2839
     30 C           4.6571   -1.0120   17.7428 C.ar    1  UNL1        0.1826
     31 N           5.1675   -2.4224   17.7324 N.ar    1  UNL1       -0.2280
@<TRIPOS>BOND
     1    26    27    1
     2    27    28   ar
     3    28    29   ar
     4    29    18    1
     5    18    19   ar
     6    19    20   ar
     7    20    21   ar
     8    21     1    1
     9     1     3    1
    10     3     4   ar
    11     4     5   ar
    12     5     6   ar
    13     6     7   ar
    14     6     8    1
    15     8     9    1
    16     9    10    1
    17    10    11    1
    18    11    12    1
    19    12    13   ar
    20    13    14   ar
    21    14    15   ar
    22    15    16   ar
    23    16    17   ar
    24    21    22   ar
    25    22    23   ar
    26    23    24    1
    27    29    30   ar
    28    30    31   ar
    29    31    27   ar
    30    23    18   ar
    31     7     3   ar
    32    17    12   ar
    33    11     5    1
    34     1     2    1
    35    24    25    1
