@<TRIPOS>MOLECULE
*****
 25 28 0 0 0
SMALL
GASTEIGER

@<TRIPOS>ATOM
      1 N          -7.9626  -18.0605   22.3951 N.ar    1  UNL1       -0.3100
      2 C          -8.2177  -16.7505   23.0799 C.ar    1  UNL1        0.1317
      3 N          -9.4476  -16.1424   22.4736 N.ar    1  UNL1       -0.2300
      4 C          -9.9527  -17.0766   21.4142 C.ar    1  UNL1        0.0984
      5 C         -11.1296  -17.0009   20.4874 C.ar    1  UNL1        0.0206
      6 C         -11.3888  -18.1106   19.5121 C.ar    1  UNL1        0.0016
      7 C         -10.4710  -19.2961   19.4636 C.ar    1  UNL1        0.0016
      8 C          -9.2940  -19.3717   20.3904 C.ar    1  UNL1        0.0188
      9 C          -9.0348  -18.2620   21.3657 C.ar    1  UNL1        0.0789
     10 C          -7.3886  -16.1535   24.1781 C.3     1  UNL1        0.1199
     11 C          -6.0320  -15.5910   23.8724 C.3     1  UNL1        0.0871
     12 N          -5.2029  -14.9940   24.9706 N.3     1  UNL1       -0.2957
     13 C          -5.7302  -14.9594   26.3744 C.3     1  UNL1        0.0804
     14 C          -7.0867  -15.5219   26.6800 C.3     1  UNL1        0.0750
     15 S          -7.9159  -16.1189   25.5818 S.3     1  UNL1       -0.1306
     16 H          -5.0123  -14.0281   24.7038 H       1  UNL1        0.1233
     17 C          -6.8335  -19.0034   22.6883 C.3     1  UNL1        0.1339
     18 C          -2.9923  -18.7064   20.3631 C.ar    1  UNL1        0.1387
     19 C          -3.0034  -18.4117   21.8339 C.ar    1  UNL1        0.0366
     20 C          -4.2838  -18.5107   22.6089 C.ar    1  UNL1        0.0007
     21 C          -5.5532  -18.9044   21.9133 C.ar    1  UNL1        0.0006
     22 C          -5.5420  -19.1991   20.4425 C.ar    1  UNL1        0.0007
     23 C          -4.2615  -19.1000   19.6675 C.ar    1  UNL1        0.0366
     24 C          -0.6205  -17.6910   20.0566 C.3     1  UNL1        0.2525
     25 O          -1.7118  -18.6073   19.5881 O.3     1  UNL1       -0.4714
@<TRIPOS>BOND
     1    24    25    1
     2    25    18    1
     3    18    19   ar
     4    19    20   ar
     5    20    21   ar
     6    21    17    1
     7    17     1    1
     8     1     2   ar
     9    10     2    1
    10    10    11    1
    11    11    12    1
    12    12    13    1
    13    13    14    1
    14    14    15    1
    15     2     3   ar
    16     3     4   ar
    17     4     5   ar
    18     5     6   ar
    19     6     7   ar
    20     7     8   ar
    21     8     9   ar
    22    21    22   ar
    23    22    23   ar
    24    23    18   ar
    25     9     1   ar
    26    15    10    1
    27     9     4   ar
    28    12    16    1
@<TRIPOS>MOLECULE
*****
 25 28 0 0 0
SMALL
GASTEIGER

@<TRIPOS>ATOM
      1 N          -6.5282  -18.1696   22.4863 N.ar    1  UNL1       -0.3100
      2 C          -7.8774  -17.8124   21.9367 C.ar    1  UNL1        0.1317
      3 N          -8.3291  -16.5468   22.6033 N.ar    1  UNL1       -0.2300
      4 C          -7.2591  -16.1219   23.5648 C.ar    1  UNL1        0.0984
      5 C          -7.1544  -14.9512   24.4968 C.ar    1  UNL1        0.0206
      6 C          -5.9368  -14.7836   25.3565 C.ar    1  UNL1        0.0016
      7 C          -4.8238  -15.7866   25.2842 C.ar    1  UNL1        0.0016
      8 C          -4.9284  -16.9572   24.3522 C.ar    1  UNL1        0.0188
      9 C          -6.1460  -17.1248   23.4925 C.ar    1  UNL1        0.0789
     10 C          -8.6408  -18.5850   20.9023 C.3     1  UNL1        0.1199
     11 C          -7.9050  -19.3313   19.8292 C.3     1  UNL1        0.0871
     12 N          -8.6685  -20.1040   18.7947 N.3     1  UNL1       -0.2957
     13 C         -10.1677  -20.1304   18.8333 C.3     1  UNL1        0.0804
     14 C         -10.9035  -19.3841   19.9064 C.3     1  UNL1        0.0750
     15 S         -10.1401  -18.6114   20.9409 S.3     1  UNL1       -0.1306
     16 H          -8.3552  -21.0725   18.8599 H       1  UNL1        0.1233
     17 C          -5.7056  -19.3623   22.0980 C.3     1  UNL1        0.1339
     18 C          -1.6518  -18.7881   20.2304 C.ar    1  UNL1        0.1387
     19 C          -1.7832  -18.8895   21.7213 C.ar    1  UNL1        0.0366
     20 C          -3.1345  -19.0809   22.3437 C.ar    1  UNL1        0.0007
     21 C          -4.3544  -19.1709   21.4755 C.ar    1  UNL1        0.0006
     22 C          -4.2229  -19.0695   19.9847 C.ar    1  UNL1        0.0007
     23 C          -2.8717  -18.8781   19.3622 C.ar    1  UNL1        0.0366
     24 C           0.5713  -17.4565   20.0438 C.3     1  UNL1        0.2525
     25 O          -0.3006  -18.5967   19.6080 O.3     1  UNL1       -0.4714
@<TRIPOS>BOND
     1    24    25    1
     2    25    18    1
     3    18    19   ar
     4    19    20   ar
     5    20    21   ar
     6    21    17    1
     7    17     1    1
     8     1     2   ar
     9    10     2    1
    10    10    11    1
    11    11    12    1
    12    12    13    1
    13    13    14    1
    14    14    15    1
    15     2     3   ar
    16     3     4   ar
    17     4     5   ar
    18     5     6   ar
    19     6     7   ar
    20     7     8   ar
    21     8     9   ar
    22    21    22   ar
    23    22    23   ar
    24    23    18   ar
    25     9     1   ar
    26    15    10    1
    27     9     4   ar
    28    12    16    1
@<TRIPOS>MOLECULE
*****
 25 28 0 0 0
SMALL
GASTEIGER

@<TRIPOS>ATOM
      1 N         -13.2059   -5.1377   18.1501 N.ar    1  UNL1       -0.3100
      2 C         -12.8492   -3.8600   18.8503 C.ar    1  UNL1        0.1317
      3 N         -11.4285   -3.9693   19.3188 N.ar    1  UNL1       -0.2300
      4 C         -10.9071   -5.3144   18.9081 C.ar    1  UNL1        0.0984
      5 C          -9.5740   -5.9751   19.0985 C.ar    1  UNL1        0.0206
      6 C          -9.3394   -7.3578   18.5667 C.ar    1  UNL1        0.0016
      7 C         -10.4380   -8.0800   17.8444 C.ar    1  UNL1        0.0016
      8 C         -11.7711   -7.4193   17.6540 C.ar    1  UNL1        0.0188
      9 C         -12.0056   -6.0366   18.1858 C.ar    1  UNL1        0.0789
     10 C         -13.7544   -2.6802   19.0474 C.3     1  UNL1        0.1199
     11 C         -14.8222   -2.7218   20.1000 C.3     1  UNL1        0.0871
     12 N         -15.7274   -1.5420   20.2971 N.3     1  UNL1       -0.2957
     13 C         -15.5646   -0.3206   19.4417 C.3     1  UNL1        0.0804
     14 C         -14.4967   -0.2791   18.3892 C.3     1  UNL1        0.0750
     15 S         -13.5916   -1.4588   18.1921 S.3     1  UNL1       -0.1306
     16 H         -15.6124   -1.2411   21.2649 H       1  UNL1        0.1233
     17 C         -14.5304   -5.4599   17.5241 C.3     1  UNL1        0.1339
     18 C         -17.7070   -7.5512   19.9295 C.ar    1  UNL1        0.1387
     19 C         -17.9611   -6.1764   19.3861 C.ar    1  UNL1        0.0366
     20 C         -16.9023   -5.4793   18.5843 C.ar    1  UNL1        0.0007
     21 C         -15.5892   -6.1570   18.3259 C.ar    1  UNL1        0.0006
     22 C         -15.3351   -7.5318   18.8693 C.ar    1  UNL1        0.0007
     23 C         -16.3940   -8.2289   19.6711 C.ar    1  UNL1        0.0366
     24 C         -20.2049   -7.8538   20.5770 C.3     1  UNL1        0.2525
     25 O         -18.7658   -8.2483   20.7313 O.3     1  UNL1       -0.4714
@<TRIPOS>BOND
     1    24    25    1
     2    25    18    1
     3    18    19   ar
     4    19    20   ar
     5    20    21   ar
     6    21    17    1
     7    17     1    1
     8     1     2   ar
     9    10     2    1
    10    10    11    1
    11    11    12    1
    12    12    13    1
    13    13    14    1
    14    14    15    1
    15     2     3   ar
    16     3     4   ar
    17     4     5   ar
    18     5     6   ar
    19     6     7   ar
    20     7     8   ar
    21     8     9   ar
    22    21    22   ar
    23    22    23   ar
    24    23    18   ar
    25     9     1   ar
    26    15    10    1
    27     9     4   ar
    28    12    16    1
@<TRIPOS>MOLECULE
*****
 25 28 0 0 0
SMALL
GASTEIGER

@<TRIPOS>ATOM
      1 N         -13.3741   -4.8007   18.0511 N.ar    1  UNL1       -0.3100
      2 C         -13.2050   -3.3832   18.5117 C.ar    1  UNL1        0.1317
      3 N         -11.8058   -3.2280   19.0298 N.ar    1  UNL1       -0.2300
      4 C         -11.1102   -4.5496   18.8893 C.ar    1  UNL1        0.0984
      5 C          -9.7195   -4.9934   19.2340 C.ar    1  UNL1        0.0206
      6 C          -9.2981   -6.4093   18.9739 C.ar    1  UNL1        0.0016
      7 C         -10.2673   -7.3812   18.3690 C.ar    1  UNL1        0.0016
      8 C         -11.6580   -6.9374   18.0243 C.ar    1  UNL1        0.0188
      9 C         -12.0795   -5.5215   18.2845 C.ar    1  UNL1        0.0789
     10 C         -14.2512   -2.3095   18.4629 C.3     1  UNL1        0.1199
     11 C         -14.5102   -1.5723   17.1825 C.3     1  UNL1        0.0871
     12 N         -15.5565   -0.4986   17.1337 N.3     1  UNL1       -0.2957
     13 C         -16.3438   -0.1620   18.3652 C.3     1  UNL1        0.0804
     14 C         -16.0849   -0.8992   19.6456 C.3     1  UNL1        0.0750
     15 S         -15.0386   -1.9729   19.6945 S.3     1  UNL1       -0.1306
     16 H         -16.2304   -0.7763   16.4202 H       1  UNL1        0.1233
     17 C         -14.6192   -5.3933   17.4608 C.3     1  UNL1        0.1339
     18 C         -16.3178   -9.2027   19.1498 C.ar    1  UNL1        0.1387
     19 C         -15.5043   -9.2381   17.8900 C.ar    1  UNL1        0.0366
     20 C         -14.9381   -7.9683   17.3270 C.ar    1  UNL1        0.0007
     21 C         -15.1854   -6.6630   18.0238 C.ar    1  UNL1        0.0006
     22 C         -15.9988   -6.6278   19.2836 C.ar    1  UNL1        0.0007
     23 C         -16.5650   -7.8976   19.8466 C.ar    1  UNL1        0.0366
     24 C         -16.8595  -11.7311   18.8970 C.3     1  UNL1        0.2525
     25 O         -16.8839  -10.4726   19.7128 O.3     1  UNL1       -0.4714
@<TRIPOS>BOND
     1    24    25    1
     2    25    18    1
     3    18    19   ar
     4    19    20   ar
     5    20    21   ar
     6    21    17    1
     7    17     1    1
     8     1     2   ar
     9    10     2    1
    10    10    11    1
    11    11    12    1
    12    12    13    1
    13    13    14    1
    14    14    15    1
    15     2     3   ar
    16     3     4   ar
    17     4     5   ar
    18     5     6   ar
    19     6     7   ar
    20     7     8   ar
    21     8     9   ar
    22    21    22   ar
    23    22    23   ar
    24    23    18   ar
    25     9     1   ar
    26    15    10    1
    27     9     4   ar
    28    12    16    1
@<TRIPOS>MOLECULE
*****
 25 28 0 0 0
SMALL
GASTEIGER

@<TRIPOS>ATOM
      1 N          -5.9321  -18.0877   22.6211 N.ar    1  UNL1       -0.3100
      2 C          -6.5886  -19.2695   21.9711 C.ar    1  UNL1        0.1317
      3 N          -5.5135  -20.1197   21.3616 N.ar    1  UNL1       -0.2300
      4 C          -4.1927  -19.4633   21.6348 C.ar    1  UNL1        0.0984
      5 C          -2.7879  -19.8469   21.2754 C.ar    1  UNL1        0.0206
      6 C          -1.6418  -18.9747   21.6944 C.ar    1  UNL1        0.0016
      7 C          -1.9005  -17.7189   22.4728 C.ar    1  UNL1        0.0016
      8 C          -3.3053  -17.3353   22.8322 C.ar    1  UNL1        0.0188
      9 C          -4.4514  -18.2075   22.4132 C.ar    1  UNL1        0.0789
     10 C          -8.0614  -19.5517   21.9367 C.3     1  UNL1        0.1199
     11 C          -8.7441  -20.1223   23.1443 C.3     1  UNL1        0.0871
     12 N         -10.2169  -20.4044   23.1099 N.3     1  UNL1       -0.2957
     13 C         -11.0070  -20.1159   21.8679 C.3     1  UNL1        0.0804
     14 C         -10.3243  -19.5452   20.6604 C.3     1  UNL1        0.0750
     15 S          -8.8515  -19.2631   20.6948 S.3     1  UNL1       -0.1306
     16 H         -10.6390  -19.8583   23.8609 H       1  UNL1        0.1233
     17 C          -6.6333  -16.9805   23.3508 C.3     1  UNL1        0.1339
     18 C         -11.0020  -16.2046   22.6012 C.ar    1  UNL1        0.1387
     19 C         -10.5674  -16.8864   23.8646 C.ar    1  UNL1        0.0366
     20 C          -9.1112  -17.1451   24.1144 C.ar    1  UNL1        0.0007
     21 C          -8.0895  -16.7219   23.1009 C.ar    1  UNL1        0.0006
     22 C          -8.5242  -16.0400   21.8375 C.ar    1  UNL1        0.0007
     23 C          -9.9804  -15.7814   21.5877 C.ar    1  UNL1        0.0366
     24 C         -13.2773  -16.9445   21.5882 C.3     1  UNL1        0.2525
     25 O         -12.4583  -15.9459   22.3513 O.3     1  UNL1       -0.4714
@<TRIPOS>BOND
     1    24    25    1
     2    25    18    1
     3    18    19   ar
     4    19    20   ar
     5    20    21   ar
     6    21    17    1
     7    17     1    1
     8     1     2   ar
     9    10     2    1
    10    10    11    1
    11    11    12    1
    12    12    13    1
    13    13    14    1
    14    14    15    1
    15     2     3   ar
    16     3     4   ar
    17     4     5   ar
    18     5     6   ar
    19     6     7   ar
    20     7     8   ar
    21     8     9   ar
    22    21    22   ar
    23    22    23   ar
    24    23    18   ar
    25     9     1   ar
    26    15    10    1
    27     9     4   ar
    28    12    16    1
@<TRIPOS>MOLECULE
*****
 25 28 0 0 0
SMALL
GASTEIGER

@<TRIPOS>ATOM
      1 N          -7.7288  -17.9258   21.5136 N.ar    1  UNL1       -0.3100
      2 C          -8.9374  -18.7964   21.3366 C.ar    1  UNL1        0.1317
      3 N          -8.4758  -20.1351   20.8417 N.ar    1  UNL1       -0.2300
      4 C          -6.9820  -20.0918   20.7128 C.ar    1  UNL1        0.0984
      5 C          -5.9825  -21.1192   20.2709 C.ar    1  UNL1        0.0206
      6 C          -4.5213  -20.7812   20.2443 C.ar    1  UNL1        0.0016
      7 C          -4.0597  -19.4158   20.6595 C.ar    1  UNL1        0.0016
      8 C          -5.0592  -18.3883   21.1014 C.ar    1  UNL1        0.0188
      9 C          -6.5203  -18.7263   21.1280 C.ar    1  UNL1        0.0789
     10 C         -10.3581  -18.3983   21.6071 C.3     1  UNL1        0.1199
     11 C         -11.1662  -17.7283   20.5357 C.3     1  UNL1        0.0871
     12 N         -12.5869  -17.3302   20.8062 N.3     1  UNL1       -0.2957
     13 C         -13.1995  -17.6022   22.1481 C.3     1  UNL1        0.0804
     14 C         -12.3914  -18.2723   23.2195 C.3     1  UNL1        0.0750
     15 S         -10.9707  -18.6703   22.9490 S.3     1  UNL1       -0.1306
     16 H         -13.1639  -17.8111   20.1162 H       1  UNL1        0.1233
     17 C          -7.7287  -16.5041   21.9920 C.3     1  UNL1        0.1339
     18 C          -6.8882  -15.5854   26.3163 C.ar    1  UNL1        0.1387
     19 C          -5.7710  -15.5701   25.3154 C.ar    1  UNL1        0.0366
     20 C          -6.0512  -15.8764   23.8740 C.ar    1  UNL1        0.0007
     21 C          -7.4486  -16.1979   23.4334 C.ar    1  UNL1        0.0006
     22 C          -8.5657  -16.2131   24.4343 C.ar    1  UNL1        0.0007
     23 C          -8.2855  -15.9069   25.8757 C.ar    1  UNL1        0.0366
     24 C          -7.0199  -13.9585   28.3377 C.3     1  UNL1        0.2525
     25 O          -6.6079  -15.2791   27.7577 O.3     1  UNL1       -0.4714
@<TRIPOS>BOND
     1    24    25    1
     2    25    18    1
     3    18    19   ar
     4    19    20   ar
     5    20    21   ar
     6    21    17    1
     7    17     1    1
     8     1     2   ar
     9    10     2    1
    10    10    11    1
    11    11    12    1
    12    12    13    1
    13    13    14    1
    14    14    15    1
    15     2     3   ar
    16     3     4   ar
    17     4     5   ar
    18     5     6   ar
    19     6     7   ar
    20     7     8   ar
    21     8     9   ar
    22    21    22   ar
    23    22    23   ar
    24    23    18   ar
    25     9     1   ar
    26    15    10    1
    27     9     4   ar
    28    12    16    1
@<TRIPOS>MOLECULE
*****
 25 28 0 0 0
SMALL
GASTEIGER

@<TRIPOS>ATOM
      1 N          -7.7582  -17.4183   22.9008 N.ar    1  UNL1       -0.3100
      2 C          -9.1038  -16.8492   23.2406 C.ar    1  UNL1        0.1317
      3 N          -8.9135  -15.8177   24.3128 N.ar    1  UNL1       -0.2300
      4 C          -7.4503  -15.7493   24.6358 C.ar    1  UNL1        0.0984
      5 C          -6.6758  -14.9140   25.6117 C.ar    1  UNL1        0.0206
      6 C          -5.1874  -15.0680   25.7150 C.ar    1  UNL1        0.0016
      7 C          -4.4734  -16.0573   24.8423 C.ar    1  UNL1        0.0016
      8 C          -5.2478  -16.8925   23.8664 C.ar    1  UNL1        0.0188
      9 C          -6.7363  -16.7385   23.7631 C.ar    1  UNL1        0.0789
     10 C         -10.4104  -17.2425   22.6174 C.3     1  UNL1        0.1199
     11 C         -10.6403  -17.0180   21.1523 C.3     1  UNL1        0.0871
     12 N         -11.9468  -17.4113   20.5292 N.3     1  UNL1       -0.2957
     13 C         -13.0234  -18.0292   21.3712 C.3     1  UNL1        0.0804
     14 C         -12.7935  -18.2538   22.8364 C.3     1  UNL1        0.0750
     15 S         -11.4870  -17.8604   23.4595 S.3     1  UNL1       -0.1306
     16 H         -11.7309  -18.0801   19.7899 H       1  UNL1        0.1233
     17 C          -7.4829  -18.4807   21.8784 C.3     1  UNL1        0.1339
     18 C          -3.2449  -19.4106   20.6848 C.ar    1  UNL1        0.1387
     19 C          -3.7031  -19.6719   22.0890 C.ar    1  UNL1        0.0366
     20 C          -5.1158  -19.3619   22.4868 C.ar    1  UNL1        0.0007
     21 C          -6.0703  -18.7907   21.4805 C.ar    1  UNL1        0.0006
     22 C          -5.6120  -18.5294   20.0763 C.ar    1  UNL1        0.0007
     23 C          -4.1993  -18.8394   19.6785 C.ar    1  UNL1        0.0366
     24 C          -0.8937  -18.6079   19.9247 C.3     1  UNL1        0.2525
     25 O          -1.8322  -19.7206   20.2870 O.3     1  UNL1       -0.4714
@<TRIPOS>BOND
     1    24    25    1
     2    25    18    1
     3    18    19   ar
     4    19    20   ar
     5    20    21   ar
     6    21    17    1
     7    17     1    1
     8     1     2   ar
     9    10     2    1
    10    10    11    1
    11    11    12    1
    12    12    13    1
    13    13    14    1
    14    14    15    1
    15     2     3   ar
    16     3     4   ar
    17     4     5   ar
    18     5     6   ar
    19     6     7   ar
    20     7     8   ar
    21     8     9   ar
    22    21    22   ar
    23    22    23   ar
    24    23    18   ar
    25     9     1   ar
    26    15    10    1
    27     9     4   ar
    28    12    16    1
@<TRIPOS>MOLECULE
*****
 25 28 0 0 0
SMALL
GASTEIGER

@<TRIPOS>ATOM
      1 N           6.1878   -0.9569   18.7781 N.ar    1  UNL1       -0.3100
      2 C           7.0374   -1.1806   19.9939 C.ar    1  UNL1        0.1317
      3 N           8.2376   -0.2867   19.8914 N.ar    1  UNL1       -0.2300
      4 C           8.1297    0.4894   18.6123 C.ar    1  UNL1        0.0984
      5 C           9.0214    1.5197   17.9852 C.ar    1  UNL1        0.0206
      6 C           8.6463    2.1358   16.6701 C.ar    1  UNL1        0.0016
      7 C           7.3794    1.7216   15.9820 C.ar    1  UNL1        0.0016
      8 C           6.4877    0.6912   16.6091 C.ar    1  UNL1        0.0188
      9 C           6.8629    0.0751   17.9242 C.ar    1  UNL1        0.0789
     10 C           6.7391   -2.1312   21.1152 C.3     1  UNL1        0.1199
     11 C           7.1249   -3.5758   20.9964 C.3     1  UNL1        0.0871
     12 N           6.8266   -4.5264   22.1178 N.3     1  UNL1       -0.2957
     13 C           6.1427   -4.0323   23.3579 C.3     1  UNL1        0.0804
     14 C           5.7569   -2.5877   23.4768 C.3     1  UNL1        0.0750
     15 S           6.0552   -1.6371   22.3554 S.3     1  UNL1       -0.1306
     16 H           7.7188   -4.9238   22.4120 H       1  UNL1        0.1233
     17 C           4.8907   -1.6446   18.4702 C.3     1  UNL1        0.1339
     18 C           0.9988    0.2107   19.7587 C.ar    1  UNL1        0.1387
     19 C           1.6254   -0.8703   20.5887 C.ar    1  UNL1        0.0366
     20 C           2.9227   -1.4887   20.1592 C.ar    1  UNL1        0.0007
     21 C           3.5935   -1.0262   18.8996 C.ar    1  UNL1        0.0006
     22 C           2.9668    0.0547   18.0697 C.ar    1  UNL1        0.0007
     23 C           1.6694    0.6732   18.4992 C.ar    1  UNL1        0.0366
     24 C          -0.3903    2.3120   20.3953 C.3     1  UNL1        0.2525
     25 O          -0.2985    0.8291   20.1882 O.3     1  UNL1       -0.4714
@<TRIPOS>BOND
     1    24    25    1
     2    25    18    1
     3    18    19   ar
     4    19    20   ar
     5    20    21   ar
     6    21    17    1
     7    17     1    1
     8     1     2   ar
     9    10     2    1
    10    10    11    1
    11    11    12    1
    12    12    13    1
    13    13    14    1
    14    14    15    1
    15     2     3   ar
    16     3     4   ar
    17     4     5   ar
    18     5     6   ar
    19     6     7   ar
    20     7     8   ar
    21     8     9   ar
    22    21    22   ar
    23    22    23   ar
    24    23    18   ar
    25     9     1   ar
    26    15    10    1
    27     9     4   ar
    28    12    16    1
@<TRIPOS>MOLECULE
*****
 25 28 0 0 0
SMALL
GASTEIGER

@<TRIPOS>ATOM
      1 N           0.3351    1.4484   21.4464 N.ar    1  UNL1       -0.3100
      2 C          -0.3205    2.7907   21.3116 C.ar    1  UNL1        0.1317
      3 N           0.0786    3.6223   22.4944 N.ar    1  UNL1       -0.2300
      4 C           0.9808    2.7939   23.3603 C.ar    1  UNL1        0.0984
      5 C           1.6785    3.0895   24.6548 C.ar    1  UNL1        0.0206
      6 C           2.5347    2.0414   25.3016 C.ar    1  UNL1        0.0016
      7 C           2.6933    0.6978   24.6539 C.ar    1  UNL1        0.0016
      8 C           1.9956    0.4022   23.3594 C.ar    1  UNL1        0.0188
      9 C           1.1394    1.4503   22.7126 C.ar    1  UNL1        0.0789
     10 C          -1.2176    3.2252   20.1907 C.3     1  UNL1        0.1199
     11 C          -2.7050    3.2425   20.3842 C.3     1  UNL1        0.0871
     12 N          -3.6021    3.6770   19.2633 N.3     1  UNL1       -0.2957
     13 C          -3.0120    4.0942   17.9490 C.3     1  UNL1        0.0804
     14 C          -1.5246    4.0770   17.7555 C.3     1  UNL1        0.0750
     15 S          -0.6275    3.6425   18.8764 S.3     1  UNL1       -0.1306
     16 H          -4.1419    4.4705   19.6089 H       1  UNL1        0.1233
     17 C           0.2087    0.3048   20.4840 C.3     1  UNL1        0.1339
     18 C           3.8176   -1.1360   18.2147 C.ar    1  UNL1        0.1387
     19 C           3.3896   -1.8400   19.4682 C.ar    1  UNL1        0.0366
     20 C           2.1866   -1.3597   20.2246 C.ar    1  UNL1        0.0007
     21 C           1.4116   -0.1754   19.7276 C.ar    1  UNL1        0.0006
     22 C           1.8396    0.5285   18.4741 C.ar    1  UNL1        0.0007
     23 C           3.0426    0.0482   17.7176 C.ar    1  UNL1        0.0366
     24 C           5.9863   -2.5628   18.1077 C.3     1  UNL1        0.2525
     25 O           5.0206   -1.6162   17.4582 O.3     1  UNL1       -0.4714
@<TRIPOS>BOND
     1    24    25    1
     2    25    18    1
     3    18    19   ar
     4    19    20   ar
     5    20    21   ar
     6    21    17    1
     7    17     1    1
     8     1     2   ar
     9    10     2    1
    10    10    11    1
    11    11    12    1
    12    12    13    1
    13    13    14    1
    14    14    15    1
    15     2     3   ar
    16     3     4   ar
    17     4     5   ar
    18     5     6   ar
    19     6     7   ar
    20     7     8   ar
    21     8     9   ar
    22    21    22   ar
    23    22    23   ar
    24    23    18   ar
    25     9     1   ar
    26    15    10    1
    27     9     4   ar
    28    12    16    1
