@<TRIPOS>MOLECULE
*****
 36 40 0 0 0
SMALL
GASTEIGER

@<TRIPOS>ATOM
      1 C           5.0475   -1.1083   31.5594 C.ar    1  UNL1        0.0503
      2 C           5.6895   -1.4941   30.2598 C.ar    1  UNL1        0.0143
      3 C           6.4432   -2.7864   30.1502 C.ar    1  UNL1       -0.0029
      4 C           6.5547   -3.6928   31.3401 C.ar    1  UNL1       -0.0208
      5 C           5.9126   -3.3070   32.6396 C.ar    1  UNL1       -0.0029
      6 C           5.1590   -2.0147   32.7493 C.ar    1  UNL1        0.0143
      7 O           2.1317   -1.0083   30.8605 O.2     1  UNL1       -0.2727
      8 C           2.8359    0.2339   31.3196 C.2     1  UNL1        0.2469
      9 N           4.2938    0.1840   31.6691 N.am    1  UNL1       -0.2824
     10 H           4.7560    0.9993   31.9704 H       1  UNL1        0.1549
     11 C           2.0822    1.5262   31.4293 C.3     1  UNL1        0.1662
     12 C           1.3060    2.1902   30.3308 C.3     1  UNL1        0.0400
     13 C           0.7166    3.4557   30.8794 C.3     1  UNL1        0.0665
     14 C           1.1284    3.5739   32.3169 C.ar    1  UNL1        0.1229
     15 N           0.8439    4.6133   33.3603 N.ar    1  UNL1       -0.2306
     16 C           1.4035    4.4602   34.7435 C.ar    1  UNL1        0.1051
     17 C           2.2475    3.2676   35.0834 C.ar    1  UNL1        0.0814
     18 C           2.5320    2.2282   34.0400 C.ar    1  UNL1        0.2637
     19 O           3.3760    1.0357   34.3799 O.2     1  UNL1       -0.2669
     20 N           1.9724    2.3814   32.6568 N.ar    1  UNL1       -0.2773
     21 C           7.3084   -4.9851   31.2305 C.3     1  UNL1        0.0420
     22 C           7.7771   -5.4686   29.8901 C.3     1  UNL1        0.0585
     23 C           9.1515   -5.2851   29.3178 C.3     1  UNL1        0.0175
     24 C           9.1776   -5.9235   27.9607 C.3     1  UNL1        0.0199
     25 C           7.8194   -6.5016   27.6942 C.3     1  UNL1        0.0855
     26 N           6.9538   -6.2205   28.8867 N.3     1  UNL1       -0.2971
     27 H           6.6289   -7.0977   29.2931 H       1  UNL1        0.1233
     28 C           7.4002   -7.2325   26.4533 C.3     1  UNL1        0.1470
     29 O           6.5380   -8.4555   26.5582 O.3     1  UNL1       -0.3787
     30 H           6.3606   -8.8032   25.6703 H       1  UNL1        0.2108
     31 C           7.8431   -6.7405   25.1073 C.ar    1  UNL1        0.0055
     32 C           8.6509   -7.6320   24.2114 C.ar    1  UNL1       -0.0019
     33 C           9.0938   -7.1400   22.8653 C.ar    1  UNL1       -0.0002
     34 C           8.7289   -5.7564   22.4153 C.ar    1  UNL1       -0.0000
     35 C           7.9211   -4.8649   23.3112 C.ar    1  UNL1       -0.0002
     36 C           7.4782   -5.3568   24.6571 C.ar    1  UNL1       -0.0019
@<TRIPOS>BOND
     1     7     8    2
     2     8     9   am
     3     9     1    1
     4     1     2   ar
     5     2     3   ar
     6     3     4   ar
     7     4    21    1
     8    22    21    1
     9    22    23    1
    10    23    24    1
    11    25    24    1
    12    25    28    1
    13    28    29    1
    14    28    31    1
    15    31    32   ar
    16    32    33   ar
    17    33    34   ar
    18    34    35   ar
    19    35    36   ar
    20    25    26    1
    21     4     5   ar
    22     5     6   ar
    23    11     8    1
    24    11    12    1
    25    12    13    1
    26    13    14    1
    27    14    15   ar
    28    15    16   ar
    29    16    17   ar
    30    17    18   ar
    31    18    19    2
    32    18    20   ar
    33     6     1   ar
    34    20    11    1
    35    26    22    1
    36    20    14   ar
    37    36    31   ar
    38     9    10    1
    39    29    30    1
    40    26    27    1
@<TRIPOS>MOLECULE
*****
 36 40 0 0 0
SMALL
GASTEIGER

@<TRIPOS>ATOM
      1 C           7.4064   -4.0185   25.1215 C.ar    1  UNL1        0.0503
      2 C           8.5260   -4.6419   24.3419 C.ar    1  UNL1        0.0143
      3 C           8.4604   -4.6914   22.8442 C.ar    1  UNL1       -0.0029
      4 C           7.2751   -4.1176   22.1261 C.ar    1  UNL1       -0.0208
      5 C           6.1554   -3.4942   22.9057 C.ar    1  UNL1       -0.0029
      6 C           6.2210   -3.4447   24.4034 C.ar    1  UNL1        0.0143
      7 O           6.3498   -6.3088   26.7458 O.2     1  UNL1       -0.2727
      8 C           6.9437   -5.1142   27.4314 C.2     1  UNL1        0.2469
      9 N           7.4720   -3.9690   26.6192 N.am    1  UNL1       -0.2824
     10 H           7.8618   -3.1849   27.0692 H       1  UNL1        0.1549
     11 C           7.0093   -5.0647   28.9292 C.3     1  UNL1        0.1662
     12 C           7.4798   -6.1694   29.8281 C.3     1  UNL1        0.0400
     13 C           7.3772   -5.6892   31.2454 C.3     1  UNL1        0.0665
     14 C           6.8433   -4.2876   31.2225 C.ar    1  UNL1        0.1229
     15 N           6.5348   -3.3130   32.3201 N.ar    1  UNL1       -0.2306
     16 C           5.9989   -1.9524   31.9862 C.ar    1  UNL1        0.1051
     17 C           5.7715   -1.5664   30.5547 C.ar    1  UNL1        0.0814
     18 C           6.0800   -2.5410   29.4570 C.ar    1  UNL1        0.2637
     19 O           5.8526   -2.1550   28.0255 O.2     1  UNL1       -0.2669
     20 N           6.6159   -3.9016   29.7909 N.ar    1  UNL1       -0.2773
     21 C           7.2094   -4.1671   20.6283 C.3     1  UNL1        0.0420
     22 C           5.9508   -3.7634   19.9191 C.3     1  UNL1        0.0585
     23 C           4.7174   -4.6032   19.7650 C.3     1  UNL1        0.0175
     24 C           3.7089   -3.8079   18.9902 C.3     1  UNL1        0.0199
     25 C           4.3189   -2.4766   18.6654 C.3     1  UNL1        0.0855
     26 N           5.7044   -2.4490   19.2395 N.3     1  UNL1       -0.2971
     27 H           5.7839   -1.6895   19.9157 H       1  UNL1        0.1233
     28 C           3.6592   -1.3674   17.9008 C.3     1  UNL1        0.1470
     29 O           3.8663   -1.2510   16.4197 O.3     1  UNL1       -0.3787
     30 H           3.3736   -0.4861   16.0835 H       1  UNL1        0.2108
     31 C           2.7925   -0.3747   18.6172 C.ar    1  UNL1        0.0055
     32 C           1.9195   -0.8224   19.7518 C.ar    1  UNL1       -0.0019
     33 C           1.0527    0.1703   20.4682 C.ar    1  UNL1       -0.0002
     34 C           1.0590    1.6108   20.0500 C.ar    1  UNL1       -0.0000
     35 C           1.9320    2.0585   18.9153 C.ar    1  UNL1       -0.0002
     36 C           2.7988    1.0659   18.1989 C.ar    1  UNL1       -0.0019
@<TRIPOS>BOND
     1     7     8    2
     2     8     9   am
     3     9     1    1
     4     1     2   ar
     5     2     3   ar
     6     3     4   ar
     7     4    21    1
     8    22    21    1
     9    22    23    1
    10    23    24    1
    11    25    24    1
    12    25    28    1
    13    28    29    1
    14    28    31    1
    15    31    32   ar
    16    32    33   ar
    17    33    34   ar
    18    34    35   ar
    19    35    36   ar
    20    25    26    1
    21     4     5   ar
    22     5     6   ar
    23    11     8    1
    24    11    12    1
    25    12    13    1
    26    13    14    1
    27    14    15   ar
    28    15    16   ar
    29    16    17   ar
    30    17    18   ar
    31    18    19    2
    32    18    20   ar
    33     6     1   ar
    34    20    11    1
    35    26    22    1
    36    20    14   ar
    37    36    31   ar
    38     9    10    1
    39    29    30    1
    40    26    27    1
@<TRIPOS>MOLECULE
*****
 36 40 0 0 0
SMALL
GASTEIGER

@<TRIPOS>ATOM
      1 C           2.2869   -0.1566   18.6491 C.ar    1  UNL1        0.0503
      2 C           2.2154   -0.9206   19.9380 C.ar    1  UNL1        0.0143
      3 C           3.1810   -2.0377   20.2022 C.ar    1  UNL1       -0.0029
      4 C           4.2180   -2.3907   19.1775 C.ar    1  UNL1       -0.0208
      5 C           4.2894   -1.6267   17.8887 C.ar    1  UNL1       -0.0029
      6 C           3.3239   -0.5096   17.6244 C.ar    1  UNL1        0.0143
      7 O           3.0563    2.6727   19.2837 O.2     1  UNL1       -0.2727
      8 C           1.7061    2.3753   18.7022 C.2     1  UNL1        0.2469
      9 N           1.3213    0.9605   18.3849 N.am    1  UNL1       -0.2824
     10 H           0.4351    0.7652   18.0032 H       1  UNL1        0.1549
     11 C           0.7405    3.4923   18.4380 C.3     1  UNL1        0.1662
     12 C           0.9479    4.6293   17.4819 C.3     1  UNL1        0.0400
     13 C          -0.2664    5.5082   17.5365 C.3     1  UNL1        0.0665
     14 C          -1.2243    4.9144   18.5264 C.ar    1  UNL1        0.1229
     15 N          -2.5828    5.3472   18.9924 N.ar    1  UNL1       -0.2306
     16 C          -3.3189    4.5341   20.0156 C.ar    1  UNL1        0.1051
     17 C          -2.6966    3.2882   20.5728 C.ar    1  UNL1        0.0814
     18 C          -1.3381    2.8554   20.1068 C.ar    1  UNL1        0.2637
     19 O          -0.7158    1.6095   20.6639 O.2     1  UNL1       -0.2669
     20 N          -0.6020    3.6685   19.0836 N.ar    1  UNL1       -0.2773
     21 C           5.1836   -3.5078   19.4417 C.3     1  UNL1        0.0420
     22 C           5.9697   -3.5333   20.7189 C.3     1  UNL1        0.0585
     23 C           7.3824   -3.0604   20.8945 C.3     1  UNL1        0.0175
     24 C           7.7669   -3.2710   22.3290 C.3     1  UNL1        0.0199
     25 C           6.5919   -3.8740   23.0400 C.3     1  UNL1        0.0855
     26 N           5.4811   -4.0361   22.0450 N.3     1  UNL1       -0.2971
     27 H           4.6686   -3.4958   22.3421 H       1  UNL1        0.1233
     28 C           6.5371   -4.2491   24.4913 C.3     1  UNL1        0.1470
     29 O           5.8267   -3.3608   25.4693 O.3     1  UNL1       -0.3787
     30 H           5.8851   -3.7461   26.3576 H       1  UNL1        0.2108
     31 C           7.1927   -5.5124   24.9648 C.ar    1  UNL1        0.0055
     32 C           7.0020   -5.9716   26.3800 C.ar    1  UNL1       -0.0019
     33 C           7.6576   -7.2349   26.8534 C.ar    1  UNL1       -0.0002
     34 C           8.5040   -8.0391   25.9117 C.ar    1  UNL1       -0.0000
     35 C           8.6947   -7.5799   24.4965 C.ar    1  UNL1       -0.0002
     36 C           8.0392   -6.3167   24.0230 C.ar    1  UNL1       -0.0019
@<TRIPOS>BOND
     1     7     8    2
     2     8     9   am
     3     9     1    1
     4     1     2   ar
     5     2     3   ar
     6     3     4   ar
     7     4    21    1
     8    22    21    1
     9    22    23    1
    10    23    24    1
    11    25    24    1
    12    25    28    1
    13    28    29    1
    14    28    31    1
    15    31    32   ar
    16    32    33   ar
    17    33    34   ar
    18    34    35   ar
    19    35    36   ar
    20    25    26    1
    21     4     5   ar
    22     5     6   ar
    23    11     8    1
    24    11    12    1
    25    12    13    1
    26    13    14    1
    27    14    15   ar
    28    15    16   ar
    29    16    17   ar
    30    17    18   ar
    31    18    19    2
    32    18    20   ar
    33     6     1   ar
    34    20    11    1
    35    26    22    1
    36    20    14   ar
    37    36    31   ar
    38     9    10    1
    39    29    30    1
    40    26    27    1
@<TRIPOS>MOLECULE
*****
 36 40 0 0 0
SMALL
GASTEIGER

@<TRIPOS>ATOM
      1 C           6.5298   -3.8808   26.6328 C.ar    1  UNL1        0.0503
      2 C           7.0591   -5.2354   26.2655 C.ar    1  UNL1        0.0143
      3 C           7.6518   -5.4659   24.9069 C.ar    1  UNL1       -0.0029
      4 C           7.7152   -4.3418   23.9158 C.ar    1  UNL1       -0.0208
      5 C           7.1858   -2.9872   24.2832 C.ar    1  UNL1       -0.0029
      6 C           6.5931   -2.7567   25.6417 C.ar    1  UNL1        0.0143
      7 O           8.2308   -2.7779   28.8441 O.2     1  UNL1       -0.2727
      8 C           6.7876   -3.0988   29.0970 C.2     1  UNL1        0.2469
      9 N           5.9370   -3.6503   27.9913 N.am    1  UNL1       -0.2824
     10 H           4.9898   -3.8610   28.1573 H       1  UNL1        0.1549
     11 C           6.1949   -2.8684   30.4555 C.3     1  UNL1        0.1662
     12 C           6.5329   -3.6262   31.7051 C.3     1  UNL1        0.0400
     13 C           5.7070   -3.0657   32.8248 C.3     1  UNL1        0.0665
     14 C           4.8586   -1.9615   32.2672 C.ar    1  UNL1        0.1229
     15 N           3.8504   -1.0513   32.9037 N.ar    1  UNL1       -0.2306
     16 C           3.1438   -0.0192   32.0759 C.ar    1  UNL1        0.1051
     17 C           3.4454    0.1028   30.6116 C.ar    1  UNL1        0.0814
     18 C           4.4535   -0.8073   29.9751 C.ar    1  UNL1        0.2637
     19 O           4.7551   -0.6853   28.5108 O.2     1  UNL1       -0.2669
     20 N           5.1601   -1.8395   30.8029 N.ar    1  UNL1       -0.2773
     21 C           8.3079   -4.5722   22.5573 C.3     1  UNL1        0.0420
     22 C           7.6274   -4.0219   21.3390 C.3     1  UNL1        0.0585
     23 C           8.2551   -3.1388   20.3016 C.3     1  UNL1        0.0175
     24 C           7.2154   -2.8292   19.2657 C.3     1  UNL1        0.0199
     25 C           5.9451   -3.5210   19.6628 C.3     1  UNL1        0.0855
     26 N           6.1997   -4.2581   20.9443 N.3     1  UNL1       -0.2971
     27 H           6.0389   -5.2560   20.8073 H       1  UNL1        0.1233
     28 C           4.6478   -3.4824   18.9108 C.3     1  UNL1        0.1470
     29 O           4.1348   -4.7202   18.2364 O.3     1  UNL1       -0.3787
     30 H           3.2915   -4.5242   17.7989 H       1  UNL1        0.2108
     31 C           3.8636   -2.2062   18.8329 C.ar    1  UNL1        0.0055
     32 C           4.0679   -1.2695   17.6793 C.ar    1  UNL1       -0.0019
     33 C           3.2836    0.0068   17.6015 C.ar    1  UNL1       -0.0002
     34 C           2.2950    0.3463   18.6773 C.ar    1  UNL1       -0.0000
     35 C           2.0908   -0.5904   19.8310 C.ar    1  UNL1       -0.0002
     36 C           2.8750   -1.8666   19.9088 C.ar    1  UNL1       -0.0019
@<TRIPOS>BOND
     1     7     8    2
     2     8     9   am
     3     9     1    1
     4     1     2   ar
     5     2     3   ar
     6     3     4   ar
     7     4    21    1
     8    22    21    1
     9    22    23    1
    10    23    24    1
    11    25    24    1
    12    25    28    1
    13    28    29    1
    14    28    31    1
    15    31    32   ar
    16    32    33   ar
    17    33    34   ar
    18    34    35   ar
    19    35    36   ar
    20    25    26    1
    21     4     5   ar
    22     5     6   ar
    23    11     8    1
    24    11    12    1
    25    12    13    1
    26    13    14    1
    27    14    15   ar
    28    15    16   ar
    29    16    17   ar
    30    17    18   ar
    31    18    19    2
    32    18    20   ar
    33     6     1   ar
    34    20    11    1
    35    26    22    1
    36    20    14   ar
    37    36    31   ar
    38     9    10    1
    39    29    30    1
    40    26    27    1
@<TRIPOS>MOLECULE
*****
 36 40 0 0 0
SMALL
GASTEIGER

@<TRIPOS>ATOM
      1 C           6.2313   -2.3110   27.1715 C.ar    1  UNL1        0.0503
      2 C           6.4371   -1.5666   25.8856 C.ar    1  UNL1        0.0143
      3 C           6.8918   -2.3003   24.6588 C.ar    1  UNL1       -0.0029
      4 C           7.1406   -3.7783   24.7180 C.ar    1  UNL1       -0.0208
      5 C           6.9348   -4.5226   26.0040 C.ar    1  UNL1       -0.0029
      6 C           6.4801   -3.7890   27.2307 C.ar    1  UNL1        0.0143
      7 O           3.3204   -1.6986   27.5605 O.2     1  UNL1       -0.2727
      8 C           4.3211   -1.2711   28.5928 C.2     1  UNL1        0.2469
      9 N           5.7766   -1.5773   28.3983 N.am    1  UNL1       -0.2824
     10 H           6.4335   -1.2967   29.0758 H       1  UNL1        0.1549
     11 C           3.8664   -0.5374   29.8196 C.3     1  UNL1        0.1662
     12 C           2.9451    0.6460   29.8484 C.3     1  UNL1        0.0400
     13 C           2.7625    1.0564   31.2796 C.3     1  UNL1        0.0665
     14 C           3.5710    0.1267   32.1352 C.ar    1  UNL1        0.1229
     15 N           3.7741    0.0499   33.6194 N.ar    1  UNL1       -0.2306
     16 C           4.6594   -1.0120   34.2012 C.ar    1  UNL1        0.1051
     17 C           5.3416   -1.9971   33.2988 C.ar    1  UNL1        0.0814
     18 C           5.1385   -1.9202   31.8147 C.ar    1  UNL1        0.2637
     19 O           5.8207   -2.9053   30.9123 O.2     1  UNL1       -0.2669
     20 N           4.2532   -0.8583   31.2329 N.ar    1  UNL1       -0.2773
     21 C           7.5953   -4.5121   23.4913 C.3     1  UNL1        0.0420
     22 C           7.1875   -4.0257   22.1322 C.3     1  UNL1        0.0585
     23 C           8.0400   -3.2316   21.1874 C.3     1  UNL1        0.0175
     24 C           7.2349   -2.9631   19.9506 C.3     1  UNL1        0.0199
     25 C           5.8848   -3.5913   20.1309 C.3     1  UNL1        0.0855
     26 N           5.8555   -4.2481   21.4793 N.3     1  UNL1       -0.2971
     27 H           5.6844   -5.2481   21.3736 H       1  UNL1        0.1233
     28 C           4.7613   -3.5671   19.1374 C.3     1  UNL1        0.1470
     29 O           4.4323   -4.7989   18.3471 O.3     1  UNL1       -0.3787
     30 H           3.6862   -4.6138   17.7556 H       1  UNL1        0.2108
     31 C           3.9667   -2.3112   18.9342 C.ar    1  UNL1        0.0055
     32 C           4.1961   -1.4676   17.7153 C.ar    1  UNL1       -0.0019
     33 C           3.4015   -0.2117   17.5120 C.ar    1  UNL1       -0.0002
     34 C           2.3775    0.2005   18.5277 C.ar    1  UNL1       -0.0000
     35 C           2.1482   -0.6431   19.7466 C.ar    1  UNL1       -0.0002
     36 C           2.9427   -1.8989   19.9499 C.ar    1  UNL1       -0.0019
@<TRIPOS>BOND
     1     7     8    2
     2     8     9   am
     3     9     1    1
     4     1     2   ar
     5     2     3   ar
     6     3     4   ar
     7     4    21    1
     8    22    21    1
     9    22    23    1
    10    23    24    1
    11    25    24    1
    12    25    28    1
    13    28    29    1
    14    28    31    1
    15    31    32   ar
    16    32    33   ar
    17    33    34   ar
    18    34    35   ar
    19    35    36   ar
    20    25    26    1
    21     4     5   ar
    22     5     6   ar
    23    11     8    1
    24    11    12    1
    25    12    13    1
    26    13    14    1
    27    14    15   ar
    28    15    16   ar
    29    16    17   ar
    30    17    18   ar
    31    18    19    2
    32    18    20   ar
    33     6     1   ar
    34    20    11    1
    35    26    22    1
    36    20    14   ar
    37    36    31   ar
    38     9    10    1
    39    29    30    1
    40    26    27    1
@<TRIPOS>MOLECULE
*****
 36 40 0 0 0
SMALL
GASTEIGER

@<TRIPOS>ATOM
      1 C           1.3791    1.1991   22.6345 C.ar    1  UNL1        0.0503
      2 C           1.2317    0.8011   24.0732 C.ar    1  UNL1        0.0143
      3 C           0.1998    1.4678   24.9339 C.ar    1  UNL1       -0.0029
      4 C          -0.6847    2.5324   24.3558 C.ar    1  UNL1       -0.0208
      5 C          -0.5372    2.9304   22.9171 C.ar    1  UNL1       -0.0029
      6 C           0.4947    2.2638   22.0565 C.ar    1  UNL1        0.0143
      7 O           0.5276   -0.6594   20.4390 O.2     1  UNL1       -0.2727
      8 C           1.9852   -0.3968   20.6760 C.2     1  UNL1        0.2469
      9 N           2.4110    0.5325   21.7739 N.am    1  UNL1       -0.2824
     10 H           3.3677    0.7049   21.9295 H       1  UNL1        0.1549
     11 C           3.0171   -1.0635   19.8153 C.3     1  UNL1        0.1662
     12 C           3.2352   -2.5418   19.6852 C.3     1  UNL1        0.0400
     13 C           4.3650   -2.7608   18.7232 C.3     1  UNL1        0.0665
     14 C           4.8452   -1.4178   18.2587 C.ar    1  UNL1        0.1229
     15 N           5.9333   -1.0146   17.3083 N.ar    1  UNL1       -0.2306
     16 C           6.1885    0.4377   17.0329 C.ar    1  UNL1        0.1051
     17 C           5.3555    1.4867   17.7080 C.ar    1  UNL1        0.0814
     18 C           4.2673    1.0835   18.6583 C.ar    1  UNL1        0.2637
     19 O           3.4343    2.1325   19.3334 O.2     1  UNL1       -0.2669
     20 N           4.0122   -0.3688   18.9337 N.ar    1  UNL1       -0.2773
     21 C          -1.7166    3.1991   25.2164 C.3     1  UNL1        0.0420
     22 C          -2.8651    3.9267   24.5827 C.3     1  UNL1        0.0585
     23 C          -3.0537    5.4144   24.5453 C.3     1  UNL1        0.0175
     24 C          -4.3318    5.7015   23.8146 C.3     1  UNL1        0.0199
     25 C          -4.9333    4.3912   23.4004 C.3     1  UNL1        0.0855
     26 N          -4.0268    3.2943   23.8751 N.3     1  UNL1       -0.2971
     27 H          -3.6932    2.7518   23.0784 H       1  UNL1        0.1233
     28 C          -6.2160    4.2097   22.6443 C.3     1  UNL1        0.1470
     29 O          -7.4929    3.9459   23.3860 O.3     1  UNL1       -0.3787
     30 H          -8.2217    3.8541   22.7525 H       1  UNL1        0.2108
     31 C          -6.2218    4.2918   21.1466 C.ar    1  UNL1        0.0055
     32 C          -5.2175    3.5141   20.3489 C.ar    1  UNL1       -0.0019
     33 C          -5.2234    3.5962   18.8511 C.ar    1  UNL1       -0.0002
     34 C          -6.2336    4.4562   18.1512 C.ar    1  UNL1       -0.0000
     35 C          -7.2379    5.2339   18.9489 C.ar    1  UNL1       -0.0002
     36 C          -7.2321    5.1518   20.4466 C.ar    1  UNL1       -0.0019
@<TRIPOS>BOND
     1     7     8    2
     2     8     9   am
     3     9     1    1
     4     1     2   ar
     5     2     3   ar
     6     3     4   ar
     7     4    21    1
     8    22    21    1
     9    22    23    1
    10    23    24    1
    11    25    24    1
    12    25    28    1
    13    28    29    1
    14    28    31    1
    15    31    32   ar
    16    32    33   ar
    17    33    34   ar
    18    34    35   ar
    19    35    36   ar
    20    25    26    1
    21     4     5   ar
    22     5     6   ar
    23    11     8    1
    24    11    12    1
    25    12    13    1
    26    13    14    1
    27    14    15   ar
    28    15    16   ar
    29    16    17   ar
    30    17    18   ar
    31    18    19    2
    32    18    20   ar
    33     6     1   ar
    34    20    11    1
    35    26    22    1
    36    20    14   ar
    37    36    31   ar
    38     9    10    1
    39    29    30    1
    40    26    27    1
@<TRIPOS>MOLECULE
*****
 36 40 0 0 0
SMALL
GASTEIGER

@<TRIPOS>ATOM
      1 C           1.8176    1.3106   22.7097 C.ar    1  UNL1        0.0503
      2 C           1.9902    0.6255   24.0329 C.ar    1  UNL1        0.0143
      3 C           1.1489    1.0354   25.2052 C.ar    1  UNL1       -0.0029
      4 C           0.1351    2.1305   25.0541 C.ar    1  UNL1       -0.0208
      5 C          -0.0375    2.8157   23.7310 C.ar    1  UNL1       -0.0029
      6 C           0.8038    2.4057   22.5587 C.ar    1  UNL1        0.0143
      7 O           0.6339   -0.3790   20.5317 O.2     1  UNL1       -0.2727
      8 C           2.0670    0.0558   20.4484 C.2     1  UNL1        0.2469
      9 N           2.6589    0.9007   21.5375 N.am    1  UNL1       -0.2824
     10 H           3.5996    1.1861   21.4828 H       1  UNL1        0.1549
     11 C           2.9083   -0.3541   19.2762 C.3     1  UNL1        0.1662
     12 C           2.6465   -0.0102   17.8398 C.3     1  UNL1        0.0400
     13 C           3.7355   -0.6235   17.0104 C.3     1  UNL1        0.0665
     14 C           4.6704   -1.3465   17.9342 C.ar    1  UNL1        0.1229
     15 N           5.9211   -2.1349   17.6812 N.ar    1  UNL1       -0.2306
     16 C           6.6606   -2.7568   18.8285 C.ar    1  UNL1        0.1051
     17 C           6.1493   -2.5903   20.2288 C.ar    1  UNL1        0.0814
     18 C           4.8986   -1.8019   20.4818 C.ar    1  UNL1        0.2637
     19 O           4.3874   -1.6354   21.8821 O.2     1  UNL1       -0.2669
     20 N           4.1591   -1.1800   19.3345 N.ar    1  UNL1       -0.2773
     21 C          -0.7063    2.5405   26.2264 C.3     1  UNL1        0.0420
     22 C          -0.4991    1.8904   27.5622 C.3     1  UNL1        0.0585
     23 C          -1.3461    0.8034   28.1546 C.3     1  UNL1        0.0175
     24 C          -0.7790    0.4542   29.4987 C.3     1  UNL1        0.0199
     25 C           0.4186    1.3254   29.7369 C.3     1  UNL1        0.0855
     26 N           0.5916    2.2131   28.5401 N.3     1  UNL1       -0.2971
     27 H           1.5017    2.0434   28.1120 H       1  UNL1        0.1233
     28 C           1.2901    1.3116   30.9576 C.3     1  UNL1        0.1470
     29 O           2.2770    0.2005   31.1620 O.3     1  UNL1       -0.3787
     30 H           2.7560    0.3424   31.9935 H       1  UNL1        0.2108
     31 C           1.1749    2.4087   31.9740 C.ar    1  UNL1        0.0055
     32 C           0.2383    3.5559   31.7363 C.ar    1  UNL1       -0.0019
     33 C           0.1231    4.6531   32.7527 C.ar    1  UNL1       -0.0002
     34 C           0.9445    4.6029   34.0068 C.ar    1  UNL1       -0.0000
     35 C           1.8812    3.4557   34.2444 C.ar    1  UNL1       -0.0002
     36 C           1.9965    2.3586   33.2281 C.ar    1  UNL1       -0.0019
@<TRIPOS>BOND
     1     7     8    2
     2     8     9   am
     3     9     1    1
     4     1     2   ar
     5     2     3   ar
     6     3     4   ar
     7     4    21    1
     8    22    21    1
     9    22    23    1
    10    23    24    1
    11    25    24    1
    12    25    28    1
    13    28    29    1
    14    28    31    1
    15    31    32   ar
    16    32    33   ar
    17    33    34   ar
    18    34    35   ar
    19    35    36   ar
    20    25    26    1
    21     4     5   ar
    22     5     6   ar
    23    11     8    1
    24    11    12    1
    25    12    13    1
    26    13    14    1
    27    14    15   ar
    28    15    16   ar
    29    16    17   ar
    30    17    18   ar
    31    18    19    2
    32    18    20   ar
    33     6     1   ar
    34    20    11    1
    35    26    22    1
    36    20    14   ar
    37    36    31   ar
    38     9    10    1
    39    29    30    1
    40    26    27    1
@<TRIPOS>MOLECULE
*****
 36 40 0 0 0
SMALL
GASTEIGER

@<TRIPOS>ATOM
      1 C           6.7380   -2.8186   22.9777 C.ar    1  UNL1        0.0503
      2 C           5.9492   -3.5349   24.0335 C.ar    1  UNL1        0.0143
      3 C           6.6598   -4.2791   25.1250 C.ar    1  UNL1       -0.0029
      4 C           8.1590   -4.3070   25.1606 C.ar    1  UNL1       -0.0208
      5 C           8.9478   -3.5907   24.1047 C.ar    1  UNL1       -0.0029
      6 C           8.2373   -2.8465   23.0133 C.ar    1  UNL1        0.0143
      7 O           5.7079   -4.2967   20.5790 O.2     1  UNL1       -0.2727
      8 C           5.5124   -2.8135   20.6868 C.2     1  UNL1        0.2469
      9 N           6.0275   -2.0744   21.8863 N.am    1  UNL1       -0.2824
     10 H           5.8992   -1.1008   21.9571 H       1  UNL1        0.1549
     11 C           4.8019   -2.0692   19.5954 C.3     1  UNL1        0.1662
     12 C           5.2067   -2.0228   18.1518 C.3     1  UNL1        0.0400
     13 C           4.2168   -1.1657   17.4202 C.3     1  UNL1        0.0665
     14 C           3.2001   -0.6823   18.4116 C.ar    1  UNL1        0.1229
     15 N           1.9919    0.1942   18.2638 N.ar    1  UNL1       -0.2306
     16 C           1.1453    0.5122   19.4605 C.ar    1  UNL1        0.1051
     17 C           1.5069   -0.0462   20.8049 C.ar    1  UNL1        0.0814
     18 C           2.7152   -0.9227   20.9526 C.ar    1  UNL1        0.2637
     19 O           3.0768   -1.4812   22.2970 O.2     1  UNL1       -0.2669
     20 N           3.5618   -1.2407   19.7559 N.ar    1  UNL1       -0.2773
     21 C           8.8697   -5.0512   26.2520 C.3     1  UNL1        0.0420
     22 C           8.2894   -5.0891   27.6347 C.3     1  UNL1        0.0585
     23 C           7.4720   -6.2036   28.2176 C.3     1  UNL1        0.0175
     24 C           7.1020   -5.8225   29.6204 C.3     1  UNL1        0.0199
     25 C           7.6906   -4.4724   29.9045 C.3     1  UNL1        0.0855
     26 N           8.4245   -4.0191   28.6772 N.3     1  UNL1       -0.2971
     27 H           9.4097   -3.8727   28.8973 H       1  UNL1        0.1233
     28 C           7.5672   -3.7095   31.1900 C.3     1  UNL1        0.1470
     29 O           8.6515   -3.7996   32.2227 O.3     1  UNL1       -0.3787
     30 H           8.4166   -3.2502   32.9868 H       1  UNL1        0.2108
     31 C           6.3596   -2.8565   31.4430 C.ar    1  UNL1        0.0055
     32 C           5.6206   -2.9695   32.7434 C.ar    1  UNL1       -0.0019
     33 C           4.4130   -2.1165   32.9964 C.ar    1  UNL1       -0.0002
     34 C           3.9444   -1.1504   31.9489 C.ar    1  UNL1       -0.0000
     35 C           4.6834   -1.0374   30.6485 C.ar    1  UNL1       -0.0002
     36 C           5.8910   -1.8904   30.3955 C.ar    1  UNL1       -0.0019
@<TRIPOS>BOND
     1     7     8    2
     2     8     9   am
     3     9     1    1
     4     1     2   ar
     5     2     3   ar
     6     3     4   ar
     7     4    21    1
     8    22    21    1
     9    22    23    1
    10    23    24    1
    11    25    24    1
    12    25    28    1
    13    28    29    1
    14    28    31    1
    15    31    32   ar
    16    32    33   ar
    17    33    34   ar
    18    34    35   ar
    19    35    36   ar
    20    25    26    1
    21     4     5   ar
    22     5     6   ar
    23    11     8    1
    24    11    12    1
    25    12    13    1
    26    13    14    1
    27    14    15   ar
    28    15    16   ar
    29    16    17   ar
    30    17    18   ar
    31    18    19    2
    32    18    20   ar
    33     6     1   ar
    34    20    11    1
    35    26    22    1
    36    20    14   ar
    37    36    31   ar
    38     9    10    1
    39    29    30    1
    40    26    27    1
@<TRIPOS>MOLECULE
*****
 36 40 0 0 0
SMALL
GASTEIGER

@<TRIPOS>ATOM
      1 C           4.5856   -2.9685   22.3987 C.ar    1  UNL1        0.0503
      2 C           4.8955   -3.6638   21.1062 C.ar    1  UNL1        0.0143
      3 C           4.5047   -3.0328   19.8026 C.ar    1  UNL1       -0.0029
      4 C           3.8042   -1.7065   19.7917 C.ar    1  UNL1       -0.0208
      5 C           3.4943   -1.0112   21.0842 C.ar    1  UNL1       -0.0029
      6 C           3.8851   -1.6422   22.3877 C.ar    1  UNL1        0.0143
      7 O           7.4411   -2.8754   23.3139 O.2     1  UNL1       -0.2727
      8 C           6.4042   -3.5529   24.1598 C.2     1  UNL1        0.2469
      9 N           4.9764   -3.5995   23.7022 N.am    1  UNL1       -0.2824
     10 H           4.2957   -4.0442   24.2574 H       1  UNL1        0.1549
     11 C           6.7949   -4.1839   25.4633 C.3     1  UNL1        0.1662
     12 C           6.5574   -3.6080   26.8279 C.3     1  UNL1        0.0400
     13 C           7.1075   -4.5698   27.8390 C.3     1  UNL1        0.0665
     14 C           7.6849   -5.7401   27.0994 C.ar    1  UNL1        0.1229
     15 N           8.3616   -6.9921   27.5732 N.ar    1  UNL1       -0.2306
     16 C           8.8451   -8.0056   26.5787 C.ar    1  UNL1        0.1051
     17 C           8.6519   -7.7671   25.1105 C.ar    1  UNL1        0.0814
     18 C           7.9752   -6.5151   24.6367 C.ar    1  UNL1        0.2637
     19 O           7.7820   -6.2766   23.1684 O.2     1  UNL1       -0.2669
     20 N           7.4917   -5.5017   25.6311 N.ar    1  UNL1       -0.2773
     21 C           3.4134   -1.0754   18.4882 C.3     1  UNL1        0.0420
     22 C           2.7969    0.2919   18.4720 C.3     1  UNL1        0.0585
     23 C           3.5408    1.5943   18.4434 C.3     1  UNL1        0.0175
     24 C           2.5319    2.7043   18.4353 C.3     1  UNL1        0.0199
     25 C           1.1646    2.0881   18.4589 C.3     1  UNL1        0.0855
     26 N           1.3283    0.5971   18.4816 N.3     1  UNL1       -0.2971
     27 H           0.8843    0.1876   17.6597 H       1  UNL1        0.1233
     28 C          -0.1379    2.8320   18.4597 C.3     1  UNL1        0.1470
     29 O          -0.7402    3.2911   17.1649 O.3     1  UNL1       -0.3787
     30 H          -1.5750    3.7522   17.3421 H       1  UNL1        0.2108
     31 C          -0.8381    3.1170   19.7553 C.ar    1  UNL1        0.0055
     32 C          -2.2370    3.6585   19.7485 C.ar    1  UNL1       -0.0019
     33 C          -2.9372    3.9435   21.0440 C.ar    1  UNL1       -0.0002
     34 C          -2.2386    3.6869   22.3464 C.ar    1  UNL1       -0.0000
     35 C          -0.8398    3.1454   22.3532 C.ar    1  UNL1       -0.0002
     36 C          -0.1395    2.8605   21.0577 C.ar    1  UNL1       -0.0019
@<TRIPOS>BOND
     1     7     8    2
     2     8     9   am
     3     9     1    1
     4     1     2   ar
     5     2     3   ar
     6     3     4   ar
     7     4    21    1
     8    22    21    1
     9    22    23    1
    10    23    24    1
    11    25    24    1
    12    25    28    1
    13    28    29    1
    14    28    31    1
    15    31    32   ar
    16    32    33   ar
    17    33    34   ar
    18    34    35   ar
    19    35    36   ar
    20    25    26    1
    21     4     5   ar
    22     5     6   ar
    23    11     8    1
    24    11    12    1
    25    12    13    1
    26    13    14    1
    27    14    15   ar
    28    15    16   ar
    29    16    17   ar
    30    17    18   ar
    31    18    19    2
    32    18    20   ar
    33     6     1   ar
    34    20    11    1
    35    26    22    1
    36    20    14   ar
    37    36    31   ar
    38     9    10    1
    39    29    30    1
    40    26    27    1
