@<TRIPOS>MOLECULE
*****
 62 68 0 0 0
SMALL
GASTEIGER

@<TRIPOS>ATOM
      1 C           0.2184    1.9302   22.7651 C.3     1  UNL1        0.1021
      2 N           3.5279   -1.1115   22.9784 N.3     1  UNL1       -0.2650
      3 C           2.9009   -0.7767   21.6575 C.3     1  UNL1        0.0900
      4 C           1.7977    0.2372   21.5864 C.3     1  UNL1        0.0901
      5 N           1.3215    0.9163   22.8362 N.3     1  UNL1       -0.2621
      6 C           1.9485    0.5816   24.1571 C.3     1  UNL1        0.1510
      7 C           3.0517   -0.4323   24.2282 C.3     1  UNL1        0.0980
      8 C           1.4724    1.2607   25.4070 C.2     1  UNL1        0.2386
      9 O           2.0869    2.5604   25.8350 O.2     1  UNL1       -0.2736
     10 N           0.3817    0.6402   26.2288 N.am    1  UNL1       -0.2961
     11 H          -0.0216   -0.2128   25.9478 H       1  UNL1        0.1497
     12 C          -0.0944    1.3193   27.4786 C.3     1  UNL1        0.1939
     13 C          -1.0171    0.6006   28.4178 C.3     1  UNL1        0.4154
     14 F          -1.9397   -0.1182   29.3570 F       1  UNL1       -0.1682
     15 F          -2.1301    1.5310   28.0365 F       1  UNL1       -0.1682
     16 F           0.0959   -0.3299   28.7991 F       1  UNL1       -0.1682
     17 C           4.6863   -1.9607   24.5394 C.3     1  UNL1        0.0255
     18 C           4.6310   -2.1254   23.0495 C.3     1  UNL1        0.1147
     19 C           4.5757   -2.2900   21.5596 C.3     1  UNL1        0.0255
     20 C           5.7342   -3.1393   23.1206 C.ar    1  UNL1        0.2185
     21 N           6.7987   -3.3579   22.0867 N.ar    1  UNL1       -0.2094
     22 C           7.6889   -4.4663   22.5652 C.ar    1  UNL1        0.1392
     23 C           7.1746   -4.9327   23.8948 C.ar    1  UNL1        0.1659
     24 O           5.9665   -4.1125   24.2381 O.2     1  UNL1       -0.4370
     25 C           7.7648   -6.0271   24.7339 C.ar    1  UNL1        0.0362
     26 C           8.8815   -6.8689   24.1914 C.ar    1  UNL1        0.0039
     27 C           9.4715   -7.9632   25.0305 C.ar    1  UNL1        0.0115
     28 C           8.9450   -8.2157   26.4121 C.ar    1  UNL1        0.0577
     29 CL          9.5351   -9.3102   27.2513 Cl      1  UNL1       -0.0822
     30 C           7.8283   -7.3739   26.9547 C.ar    1  UNL1        0.0115
     31 C           7.2382   -6.2796   26.1155 C.ar    1  UNL1        0.0039
     32 C           0.5375    3.3666   22.4737 C.3     1  UNL1        0.1269
     33 O           0.6223    4.3586   23.5957 O.3     1  UNL1       -0.3830
     34 H           0.8354    5.2345   23.2374 H       1  UNL1        0.2104
     35 C           0.7719    3.8110   21.0603 C.3     1  UNL1        0.0402
     36 C          -0.3000    3.6239   20.0278 C.3     1  UNL1        0.0864
     37 C          -1.7064    4.0563   20.3199 C.2     1  UNL1        0.2228
     38 O          -2.0900    5.5003   20.1868 O.2     1  UNL1       -0.2751
     39 N          -2.7290    3.0447   20.7450 N.am    1  UNL1       -0.2999
     40 H          -2.4773    2.0969   20.8323 H       1  UNL1        0.1498
     41 C          -4.1354    3.4770   21.0370 C.3     1  UNL1        0.1278
     42 C          -4.5771    3.6841   22.4556 C.ar    1  UNL1        0.0320
     43 C          -3.6125    3.4588   23.5819 C.ar    1  UNL1        0.0004
     44 C          -4.0542    3.6658   25.0003 C.ar    1  UNL1       -0.0001
     45 C          -5.4605    4.0982   25.2924 C.ar    1  UNL1        0.0031
     46 C          -6.4251    4.3235   24.1660 C.ar    1  UNL1        0.0366
     47 C          -5.9834    4.1165   22.7476 C.ar    1  UNL1        0.1362
     48 O          -6.9480    4.3418   21.6212 O.3     1  UNL1       -0.4730
     49 C          -6.5063    4.1347   20.2028 C.3     1  UNL1        0.2364
     50 C          -5.1000    3.7024   19.9107 C.3     1  UNL1        0.1762
     51 O          -4.6583    3.4953   18.4922 O.3     1  UNL1       -0.3788
     52 H          -5.3977    3.6822   17.8927 H       1  UNL1        0.2106
     53 C           0.0344    3.0045   18.7033 C.3     1  UNL1        0.0737
     54 C           1.3922    2.4091   18.4751 C.ar    1  UNL1        0.1234
     55 C           2.6819    3.1682   18.3729 C.ar    1  UNL1        0.0361
     56 C           3.7855    2.1784   18.1438 C.ar    1  UNL1        0.0404
     57 C           5.2651    2.3482   17.9659 C.ar    1  UNL1        0.0238
     58 C           6.1372    1.1472   17.7487 C.ar    1  UNL1        0.0991
     59 N           5.5295   -0.2236   17.7094 N.ar    1  UNL1       -0.2391
     60 C           4.0498   -0.3934   17.8873 C.ar    1  UNL1        0.1362
     61 C           3.1777    0.8076   18.1045 C.ar    1  UNL1        0.1639
     62 O           1.6987    0.9502   18.3093 O.2     1  UNL1       -0.4562
@<TRIPOS>BOND
     1    17    18    1
     2    18    19    1
     3    18    20    1
     4    20    21   ar
     5    21    22   ar
     6    22    23   ar
     7    23    25    1
     8    25    26   ar
     9    26    27   ar
    10    27    28   ar
    11    28    29    1
    12    28    30   ar
    13    30    31   ar
    14    23    24   ar
    15    18     2    1
    16     2     3    1
    17     3     4    1
    18     4     5    1
    19     5     1    1
    20     1    32    1
    21    32    33    1
    22    32    35    1
    23    36    35    1
    24    36    53    1
    25    53    54    1
    26    54    55   ar
    27    55    56   ar
    28    56    57   ar
    29    57    58   ar
    30    58    59   ar
    31    59    60   ar
    32    60    61   ar
    33    61    62   ar
    34    36    37    1
    35    37    38    2
    36    37    39   am
    37    41    39    1
    38    41    42    1
    39    42    43   ar
    40    43    44   ar
    41    44    45   ar
    42    45    46   ar
    43    46    47   ar
    44    47    48    1
    45    48    49    1
    46    49    50    1
    47    50    51    1
    48     5     6    1
    49     6     8    1
    50     8     9    2
    51     8    10   am
    52    10    12    1
    53    12    13    1
    54    13    14    1
    55    13    15    1
    56    13    16    1
    57     6     7    1
    58    24    20   ar
    59     7     2    1
    60    31    25   ar
    61    62    54   ar
    62    50    41    1
    63    61    56   ar
    64    47    42   ar
    65    33    34    1
    66    39    40    1
    67    51    52    1
    68    10    11    1
@<TRIPOS>MOLECULE
*****
 62 68 0 0 0
SMALL
GASTEIGER

@<TRIPOS>ATOM
      1 C           3.9616   -0.6665   33.2474 C.3     1  UNL1        0.1021
      2 N           1.6037    0.9843   29.7883 N.3     1  UNL1       -0.2650
      3 C           2.0595   -0.4447   29.7714 C.3     1  UNL1        0.0900
      4 C           2.8454   -0.9949   30.9244 C.3     1  UNL1        0.0901
      5 N           3.1756   -0.1162   32.0943 N.3     1  UNL1       -0.2621
      6 C           2.7199    1.3127   32.1112 C.3     1  UNL1        0.1510
      7 C           1.9339    1.8630   30.9582 C.3     1  UNL1        0.0980
      8 C           3.0501    2.1915   33.2812 C.2     1  UNL1        0.2386
      9 O           4.2613    3.0753   33.2371 O.2     1  UNL1       -0.2736
     10 N           2.1692    2.1865   34.4952 N.am    1  UNL1       -0.2961
     11 H           1.3742    1.6064   34.5242 H       1  UNL1        0.1497
     12 C           2.4994    3.0652   35.6651 C.3     1  UNL1        0.1939
     13 C           1.6225    4.2370   35.9941 C.3     1  UNL1        0.4154
     14 F           0.7458    5.4087   36.3230 F       1  UNL1       -0.1682
     15 F           1.2540    3.5950   37.2987 F       1  UNL1       -0.1682
     16 F           1.9911    4.8790   34.6895 F       1  UNL1       -0.1682
     17 C          -0.3983    0.7971   29.1122 C.3     1  UNL1        0.0255
     18 C           0.8178    1.5345   28.6352 C.3     1  UNL1        0.1147
     19 C           2.0338    2.2719   28.1582 C.3     1  UNL1        0.0255
     20 C           0.0318    2.0848   27.4822 C.ar    1  UNL1        0.2185
     21 N           0.5236    2.2390   26.0735 N.ar    1  UNL1       -0.2094
     22 C          -0.5882    2.8270   25.2561 C.ar    1  UNL1        0.1392
     23 C          -1.7672    3.0361   26.1596 C.ar    1  UNL1        0.1659
     24 O          -1.3840    2.5774   27.5354 O.2     1  UNL1       -0.4370
     25 C          -3.0960    3.6042   25.7578 C.ar    1  UNL1        0.0362
     26 C          -3.9564    4.2922   26.7760 C.ar    1  UNL1        0.0039
     27 C          -5.2851    4.8602   26.3742 C.ar    1  UNL1        0.0115
     28 C          -5.7537    4.7404   24.9543 C.ar    1  UNL1        0.0577
     29 CL         -7.0826    5.3085   24.5524 Cl      1  UNL1       -0.0822
     30 C          -4.8933    4.0524   23.9361 C.ar    1  UNL1        0.0115
     31 C          -3.5645    3.4844   24.3379 C.ar    1  UNL1        0.0039
     32 C           4.5991   -2.0202   33.1425 C.3     1  UNL1        0.1269
     33 O           3.7809   -3.2549   33.3797 O.3     1  UNL1       -0.3830
     34 H           4.3413   -4.0395   33.2735 H       1  UNL1        0.2104
     35 C           6.0547   -2.1393   32.8005 C.3     1  UNL1        0.0402
     36 C           6.4782   -2.8989   31.5783 C.3     1  UNL1        0.0864
     37 C           6.6419   -2.1836   30.2700 C.2     1  UNL1        0.2228
     38 O           8.0092   -2.0021   29.6804 O.2     1  UNL1       -0.2751
     39 N           5.4383   -1.6499   29.5513 N.am    1  UNL1       -0.2999
     40 H           4.5410   -1.7690   29.9383 H       1  UNL1        0.1498
     41 C           5.6020   -0.9346   28.2430 C.3     1  UNL1        0.1278
     42 C           5.6455    0.5644   28.2081 C.ar    1  UNL1        0.0320
     43 C           5.5253    1.3481   29.4814 C.ar    1  UNL1        0.0004
     44 C           5.5687    2.8470   29.4465 C.ar    1  UNL1       -0.0001
     45 C           5.7324    3.5623   28.1382 C.ar    1  UNL1        0.0031
     46 C           5.8526    2.7786   26.8649 C.ar    1  UNL1        0.0366
     47 C           5.8092    1.2797   26.8999 C.ar    1  UNL1        0.1362
     48 O           5.9294    0.4960   25.6265 O.3     1  UNL1       -0.4730
     49 C           5.8859   -1.0030   25.6615 C.3     1  UNL1        0.2364
     50 C           5.7222   -1.7182   26.9697 C.3     1  UNL1        0.1762
     51 O           5.6788   -3.2173   27.0046 O.3     1  UNL1       -0.3788
     52 H           5.7694   -3.5644   26.1034 H       1  UNL1        0.2106
     53 C           6.7380   -4.3737   31.6644 C.3     1  UNL1        0.0737
     54 C           7.1018   -5.1445   30.4300 C.ar    1  UNL1        0.1234
     55 C           8.2833   -6.0557   30.2758 C.ar    1  UNL1        0.0361
     56 C           8.2596   -6.6139   28.8837 C.ar    1  UNL1        0.0404
     57 C           9.1727   -7.5645   28.1678 C.ar    1  UNL1        0.0238
     58 C           8.8897   -7.9489   26.7458 C.ar    1  UNL1        0.0991
     59 N           7.6936   -7.3827   26.0397 N.ar    1  UNL1       -0.2391
     60 C           6.7805   -6.4319   26.7555 C.ar    1  UNL1        0.1362
     61 C           7.0635   -6.0475   28.1775 C.ar    1  UNL1        0.1639
     62 O           6.3479   -5.1395   29.1332 O.2     1  UNL1       -0.4562
@<TRIPOS>BOND
     1    17    18    1
     2    18    19    1
     3    18    20    1
     4    20    21   ar
     5    21    22   ar
     6    22    23   ar
     7    23    25    1
     8    25    26   ar
     9    26    27   ar
    10    27    28   ar
    11    28    29    1
    12    28    30   ar
    13    30    31   ar
    14    23    24   ar
    15    18     2    1
    16     2     3    1
    17     3     4    1
    18     4     5    1
    19     5     1    1
    20     1    32    1
    21    32    33    1
    22    32    35    1
    23    36    35    1
    24    36    53    1
    25    53    54    1
    26    54    55   ar
    27    55    56   ar
    28    56    57   ar
    29    57    58   ar
    30    58    59   ar
    31    59    60   ar
    32    60    61   ar
    33    61    62   ar
    34    36    37    1
    35    37    38    2
    36    37    39   am
    37    41    39    1
    38    41    42    1
    39    42    43   ar
    40    43    44   ar
    41    44    45   ar
    42    45    46   ar
    43    46    47   ar
    44    47    48    1
    45    48    49    1
    46    49    50    1
    47    50    51    1
    48     5     6    1
    49     6     8    1
    50     8     9    2
    51     8    10   am
    52    10    12    1
    53    12    13    1
    54    13    14    1
    55    13    15    1
    56    13    16    1
    57     6     7    1
    58    24    20   ar
    59     7     2    1
    60    31    25   ar
    61    62    54   ar
    62    50    41    1
    63    61    56   ar
    64    47    42   ar
    65    33    34    1
    66    39    40    1
    67    51    52    1
    68    10    11    1
@<TRIPOS>MOLECULE
*****
 62 68 0 0 0
SMALL
GASTEIGER

@<TRIPOS>ATOM
      1 C           4.2649   -1.5544   25.0585 C.3     1  UNL1        0.1021
      2 N           1.5009    0.7848   22.3867 N.3     1  UNL1       -0.2650
      3 C           1.5946    1.1194   23.8458 C.3     1  UNL1        0.0900
      4 C           2.5160    0.3397   24.7364 C.3     1  UNL1        0.0901
      5 N           3.3435   -0.7747   24.1679 N.3     1  UNL1       -0.2621
      6 C           3.2498   -1.1093   22.7087 C.3     1  UNL1        0.1510
      7 C           2.3284   -0.3295   21.8181 C.3     1  UNL1        0.0980
      8 C           4.0774   -2.2237   22.1401 C.2     1  UNL1        0.2386
      9 O           4.2445   -3.5011   22.9083 O.2     1  UNL1       -0.2736
     10 N           4.7378   -2.0606   20.8032 N.am    1  UNL1       -0.2961
     11 H           4.6281   -1.2222   20.2989 H       1  UNL1        0.1497
     12 C           5.5653   -3.1749   20.2346 C.3     1  UNL1        0.1939
     13 C           4.9924   -4.0697   19.1757 C.3     1  UNL1        0.4154
     14 F           4.4195   -4.9644   18.1168 F       1  UNL1       -0.1682
     15 F           4.2673   -4.8528   20.2297 F       1  UNL1       -0.1682
     16 F           5.7175   -3.2866   18.1217 F       1  UNL1       -0.1682
     17 C           0.4496    0.3762   20.5900 C.3     1  UNL1        0.0255
     18 C           0.5795    1.5645   21.4961 C.3     1  UNL1        0.1147
     19 C           0.7094    2.7529   22.4021 C.3     1  UNL1        0.0255
     20 C          -0.3418    2.3443   20.6055 C.ar    1  UNL1        0.2185
     21 N           0.0568    3.1112   19.3796 N.ar    1  UNL1       -0.2094
     22 C          -1.1786    3.7349   18.8009 C.ar    1  UNL1        0.1392
     23 C          -2.3407    3.3534   19.6691 C.ar    1  UNL1        0.1659
     24 O          -1.8236    2.4939   20.7844 O.2     1  UNL1       -0.4370
     25 C          -3.7692    3.7599   19.4590 C.ar    1  UNL1        0.0362
     26 C          -4.2508    4.1253   18.0862 C.ar    1  UNL1        0.0039
     27 C          -5.6793    4.5318   17.8761 C.ar    1  UNL1        0.0115
     28 C          -6.6261    4.5730   19.0388 C.ar    1  UNL1        0.0577
     29 CL         -8.0547    4.9795   18.8287 Cl      1  UNL1       -0.0822
     30 C          -6.1444    4.2076   20.4116 C.ar    1  UNL1        0.0115
     31 C          -4.7160    3.8011   20.6216 C.ar    1  UNL1        0.0039
     32 C           5.6628   -1.0678   25.3015 C.3     1  UNL1        0.1269
     33 O           6.6378   -0.9888   24.1643 O.3     1  UNL1       -0.3830
     34 H           7.4889   -0.6570   24.4906 H       1  UNL1        0.2104
     35 C           6.0857   -0.6603   26.6817 C.3     1  UNL1        0.0402
     36 C           6.3169   -1.7039   27.7341 C.3     1  UNL1        0.0864
     37 C           7.0601   -2.9614   27.3928 C.2     1  UNL1        0.2228
     38 O           8.5452   -3.0324   27.5918 O.2     1  UNL1       -0.2751
     39 N           6.3182   -4.1479   26.8526 N.am    1  UNL1       -0.2999
     40 H           5.3435   -4.1013   26.7220 H       1  UNL1        0.1498
     41 C           7.0613   -5.4054   26.5113 C.3     1  UNL1        0.1278
     42 C           7.5837   -5.6139   25.1207 C.ar    1  UNL1        0.0320
     43 C           7.3630   -4.5649   24.0715 C.ar    1  UNL1        0.0004
     44 C           7.8853   -4.7734   22.6809 C.ar    1  UNL1       -0.0001
     45 C           8.6285   -6.0309   22.3396 C.ar    1  UNL1        0.0031
     46 C           8.8492   -7.0799   23.3889 C.ar    1  UNL1        0.0366
     47 C           8.3268   -6.8714   24.7794 C.ar    1  UNL1        0.1362
     48 O           8.5475   -7.9204   25.8287 O.3     1  UNL1       -0.4730
     49 C           8.0251   -7.7118   27.2192 C.3     1  UNL1        0.2364
     50 C           7.2820   -6.4543   27.5605 C.3     1  UNL1        0.1762
     51 O           6.7596   -6.2458   28.9511 O.3     1  UNL1       -0.3788
     52 H           6.9863   -7.0128   29.5000 H       1  UNL1        0.2106
     53 C           5.8050   -1.4901   29.1277 C.3     1  UNL1        0.0737
     54 C           4.4695   -0.8426   29.3450 C.ar    1  UNL1        0.1234
     55 C           4.1858    0.3050   30.2685 C.ar    1  UNL1        0.0361
     56 C           2.7242    0.6279   30.1713 C.ar    1  UNL1        0.0404
     57 C           1.8775    1.6626   30.8513 C.ar    1  UNL1        0.0238
     58 C           0.4111    1.7494   30.5477 C.ar    1  UNL1        0.0991
     59 N          -0.2085    0.8014   29.5642 N.ar    1  UNL1       -0.2391
     60 C           0.6382   -0.2334   28.8841 C.ar    1  UNL1        0.1362
     61 C           2.1046   -0.3201   29.1877 C.ar    1  UNL1        0.1639
     62 O           3.1832   -1.2289   28.6771 O.2     1  UNL1       -0.4562
@<TRIPOS>BOND
     1    17    18    1
     2    18    19    1
     3    18    20    1
     4    20    21   ar
     5    21    22   ar
     6    22    23   ar
     7    23    25    1
     8    25    26   ar
     9    26    27   ar
    10    27    28   ar
    11    28    29    1
    12    28    30   ar
    13    30    31   ar
    14    23    24   ar
    15    18     2    1
    16     2     3    1
    17     3     4    1
    18     4     5    1
    19     5     1    1
    20     1    32    1
    21    32    33    1
    22    32    35    1
    23    36    35    1
    24    36    53    1
    25    53    54    1
    26    54    55   ar
    27    55    56   ar
    28    56    57   ar
    29    57    58   ar
    30    58    59   ar
    31    59    60   ar
    32    60    61   ar
    33    61    62   ar
    34    36    37    1
    35    37    38    2
    36    37    39   am
    37    41    39    1
    38    41    42    1
    39    42    43   ar
    40    43    44   ar
    41    44    45   ar
    42    45    46   ar
    43    46    47   ar
    44    47    48    1
    45    48    49    1
    46    49    50    1
    47    50    51    1
    48     5     6    1
    49     6     8    1
    50     8     9    2
    51     8    10   am
    52    10    12    1
    53    12    13    1
    54    13    14    1
    55    13    15    1
    56    13    16    1
    57     6     7    1
    58    24    20   ar
    59     7     2    1
    60    31    25   ar
    61    62    54   ar
    62    50    41    1
    63    61    56   ar
    64    47    42   ar
    65    33    34    1
    66    39    40    1
    67    51    52    1
    68    10    11    1
@<TRIPOS>MOLECULE
*****
 62 68 0 0 0
SMALL
GASTEIGER

@<TRIPOS>ATOM
      1 C          -0.1060    3.9492   19.7972 C.3     1  UNL1        0.1021
      2 N          -0.0186    2.5175   24.0625 N.3     1  UNL1       -0.2650
      3 C           1.2411    2.5261   23.2483 C.3     1  UNL1        0.0900
      4 C           1.2120    3.0033   21.8265 C.3     1  UNL1        0.0901
      5 N          -0.0769    3.4720   21.2190 N.3     1  UNL1       -0.2621
      6 C          -1.3366    3.4634   22.0332 C.3     1  UNL1        0.1510
      7 C          -1.3075    2.9861   23.4549 C.3     1  UNL1        0.0980
      8 C          -2.6256    3.9321   21.4256 C.2     1  UNL1        0.2386
      9 O          -3.0403    5.3672   21.5610 O.2     1  UNL1       -0.2736
     10 N          -3.4996    2.9656   20.6827 N.am    1  UNL1       -0.2961
     11 H          -3.2274    2.0237   20.5939 H       1  UNL1        0.1497
     12 C          -4.7885    3.4344   20.0753 C.3     1  UNL1        0.1939
     13 C          -4.9208    3.5390   18.5847 C.3     1  UNL1        0.4154
     14 F          -5.0530    3.6437   17.0943 F       1  UNL1       -0.1682
     15 F          -6.2098    2.7744   18.6454 F       1  UNL1       -0.1682
     16 F          -3.6318    4.3037   18.5241 F       1  UNL1       -0.1682
     17 C           1.1259    1.0966   25.1446 C.3     1  UNL1        0.0255
     18 C           0.0105    2.0402   25.4842 C.3     1  UNL1        0.1147
     19 C          -1.1049    2.9839   25.8238 C.3     1  UNL1        0.0255
     20 C           0.0396    1.5630   26.9060 C.ar    1  UNL1        0.2185
     21 N          -1.1489    1.1466   27.7208 N.ar    1  UNL1       -0.2094
     22 C          -0.6607    0.7446   29.0810 C.ar    1  UNL1        0.1392
     23 C           0.8296    0.9125   29.1068 C.ar    1  UNL1        0.1659
     24 O           1.2625    1.4183   27.7626 O.2     1  UNL1       -0.4370
     25 C           1.7292    0.6251   30.2721 C.ar    1  UNL1        0.0362
     26 C           2.5724   -0.6155   30.2807 C.ar    1  UNL1        0.0039
     27 C           3.4720   -0.9029   31.4460 C.ar    1  UNL1        0.0115
     28 C           3.5284    0.0503   32.6029 C.ar    1  UNL1        0.0577
     29 CL          4.4280   -0.2371   33.7683 Cl      1  UNL1       -0.0822
     30 C           2.6852    1.2909   32.5943 C.ar    1  UNL1        0.0115
     31 C           1.7857    1.5782   31.4290 C.ar    1  UNL1        0.0039
     32 C           0.8351    3.3599   18.7888 C.3     1  UNL1        0.1269
     33 O           1.9187    4.2065   18.1897 O.3     1  UNL1       -0.3830
     34 H           2.4335    3.6761   17.5615 H       1  UNL1        0.2104
     35 C           0.6926    1.9238   18.3795 C.3     1  UNL1        0.0402
     36 C           1.6883    0.9067   18.8530 C.3     1  UNL1        0.0864
     37 C           3.1173    0.9907   18.4047 C.2     1  UNL1        0.2228
     38 O           3.6298    0.0520   17.3529 O.2     1  UNL1       -0.2751
     39 N           4.0337    2.0135   19.0080 N.am    1  UNL1       -0.2999
     40 H           3.6974    2.6296   19.6983 H       1  UNL1        0.1498
     41 C           5.4627    2.0975   18.5596 C.3     1  UNL1        0.1278
     42 C           6.4838    1.1575   19.1287 C.ar    1  UNL1        0.0320
     43 C           6.0760    0.1335   20.1460 C.ar    1  UNL1        0.0004
     44 C           7.0971   -0.8065   20.7150 C.ar    1  UNL1       -0.0001
     45 C           8.5260   -0.7224   20.2666 C.ar    1  UNL1        0.0031
     46 C           8.9339    0.3016   19.2493 C.ar    1  UNL1        0.0366
     47 C           7.9128    1.2415   18.6803 C.ar    1  UNL1        0.1362
     48 O           8.3206    2.2656   17.6629 O.3     1  UNL1       -0.4730
     49 C           7.2995    3.2055   17.0939 C.3     1  UNL1        0.2364
     50 C           5.8705    3.1215   17.5423 C.3     1  UNL1        0.1762
     51 O           4.8494    4.0615   16.9732 O.3     1  UNL1       -0.3788
     52 H           5.2759    4.6542   16.3347 H       1  UNL1        0.2106
     53 C           1.2550   -0.1944   19.7748 C.3     1  UNL1        0.0737
     54 C           2.2820   -1.0380   20.4704 C.ar    1  UNL1        0.1234
     55 C           2.7441   -0.8744   21.8881 C.ar    1  UNL1        0.0361
     56 C           3.7749   -1.9285   22.1642 C.ar    1  UNL1        0.0404
     57 C           4.5767   -2.2515   23.3900 C.ar    1  UNL1        0.0238
     58 C           5.5536   -3.3896   23.3689 C.ar    1  UNL1        0.0991
     59 N           5.7287   -4.2046   22.1219 N.ar    1  UNL1       -0.2391
     60 C           4.9268   -3.8817   20.8960 C.ar    1  UNL1        0.1362
     61 C           3.9499   -2.7436   20.9172 C.ar    1  UNL1        0.1639
     62 O           3.0273   -2.1932   19.8704 O.2     1  UNL1       -0.4562
@<TRIPOS>BOND
     1    17    18    1
     2    18    19    1
     3    18    20    1
     4    20    21   ar
     5    21    22   ar
     6    22    23   ar
     7    23    25    1
     8    25    26   ar
     9    26    27   ar
    10    27    28   ar
    11    28    29    1
    12    28    30   ar
    13    30    31   ar
    14    23    24   ar
    15    18     2    1
    16     2     3    1
    17     3     4    1
    18     4     5    1
    19     5     1    1
    20     1    32    1
    21    32    33    1
    22    32    35    1
    23    36    35    1
    24    36    53    1
    25    53    54    1
    26    54    55   ar
    27    55    56   ar
    28    56    57   ar
    29    57    58   ar
    30    58    59   ar
    31    59    60   ar
    32    60    61   ar
    33    61    62   ar
    34    36    37    1
    35    37    38    2
    36    37    39   am
    37    41    39    1
    38    41    42    1
    39    42    43   ar
    40    43    44   ar
    41    44    45   ar
    42    45    46   ar
    43    46    47   ar
    44    47    48    1
    45    48    49    1
    46    49    50    1
    47    50    51    1
    48     5     6    1
    49     6     8    1
    50     8     9    2
    51     8    10   am
    52    10    12    1
    53    12    13    1
    54    13    14    1
    55    13    15    1
    56    13    16    1
    57     6     7    1
    58    24    20   ar
    59     7     2    1
    60    31    25   ar
    61    62    54   ar
    62    50    41    1
    63    61    56   ar
    64    47    42   ar
    65    33    34    1
    66    39    40    1
    67    51    52    1
    68    10    11    1
@<TRIPOS>MOLECULE
*****
 62 68 0 0 0
SMALL
GASTEIGER

@<TRIPOS>ATOM
      1 C          -0.1703    1.7256   23.7423 C.3     1  UNL1        0.1021
      2 N           1.0003    1.7645   28.0872 N.3     1  UNL1       -0.2650
      3 C          -0.3796    2.1872   27.6784 C.3     1  UNL1        0.0900
      4 C          -0.7698    2.1742   26.2301 C.3     1  UNL1        0.0901
      5 N           0.2199    1.7386   25.1906 N.3     1  UNL1       -0.2621
      6 C           1.5998    1.3159   25.5994 C.3     1  UNL1        0.1510
      7 C           1.9900    1.3289   27.0477 C.3     1  UNL1        0.0980
      8 C           2.5896    0.8803   24.5598 C.2     1  UNL1        0.2386
      9 O           3.5251    1.8811   23.9490 O.2     1  UNL1       -0.2736
     10 N           2.6438   -0.5561   24.1312 N.am    1  UNL1       -0.2961
     11 H           2.0297   -1.2130   24.5321 H       1  UNL1        0.1497
     12 C           3.6335   -0.9917   23.0917 C.3     1  UNL1        0.1939
     13 C           3.1537   -1.4761   21.7555 C.3     1  UNL1        0.4154
     14 F           2.6740   -1.9605   20.4194 F       1  UNL1       -0.1682
     15 F           2.4076   -0.1901   21.5571 F       1  UNL1       -0.1682
     16 F           3.8998   -2.7622   21.9539 F       1  UNL1       -0.1682
     17 C           1.7373    0.3204   29.4551 C.3     1  UNL1        0.0255
     18 C           1.3905    1.7775   29.5355 C.3     1  UNL1        0.1147
     19 C           1.0437    3.2347   29.6159 C.3     1  UNL1        0.0255
     20 C           1.7807    1.7905   30.9838 C.ar    1  UNL1        0.2185
     21 N           1.0300    2.4655   32.0932 N.ar    1  UNL1       -0.2094
     22 C           1.7755    2.2229   33.3720 C.ar    1  UNL1        0.1392
     23 C           2.9869    1.3980   33.0530 C.ar    1  UNL1        0.1659
     24 O           2.9902    1.1307   31.5770 O.2     1  UNL1       -0.4370
     25 C           4.0147    0.9236   34.0372 C.ar    1  UNL1        0.0362
     26 C           5.1807    0.1047   33.5680 C.ar    1  UNL1        0.0039
     27 C           6.2084   -0.3696   34.5521 C.ar    1  UNL1        0.0115
     28 C           6.0703   -0.0252   36.0055 C.ar    1  UNL1        0.0577
     29 CL          7.0981   -0.4996   36.9897 Cl      1  UNL1       -0.0822
     30 C           4.9043    0.7937   36.4747 C.ar    1  UNL1        0.0115
     31 C           3.8766    1.2680   35.4905 C.ar    1  UNL1        0.0039
     32 C           0.1032    2.9229   22.8811 C.3     1  UNL1        0.1269
     33 O          -0.0714    4.3041   23.4396 O.3     1  UNL1       -0.3830
     34 H           0.1450    4.9586   22.7571 H       1  UNL1        0.2104
     35 C           0.5512    2.7391   21.4614 C.3     1  UNL1        0.0402
     36 C          -0.3901    3.0400   20.3329 C.3     1  UNL1        0.0864
     37 C          -1.7391    3.6304   20.6187 C.2     1  UNL1        0.2228
     38 O          -1.8780    5.1058   20.8514 O.2     1  UNL1       -0.2751
     39 N          -2.9491    2.7455   20.6718 N.am    1  UNL1       -0.2999
     40 H          -2.8579    1.7772   20.5192 H       1  UNL1        0.1498
     41 C          -4.2981    3.3359   20.9576 C.3     1  UNL1        0.1278
     42 C          -4.7094    3.6167   22.3726 C.ar    1  UNL1        0.0320
     43 C          -3.7717    3.3071   23.5017 C.ar    1  UNL1        0.0004
     44 C          -4.1831    3.5879   24.9165 C.ar    1  UNL1       -0.0001
     45 C          -5.5320    4.1783   25.2023 C.ar    1  UNL1        0.0031
     46 C          -6.4697    4.4879   24.0732 C.ar    1  UNL1        0.0366
     47 C          -6.0583    4.2071   22.6584 C.ar    1  UNL1        0.1362
     48 O          -6.9960    4.5167   21.5292 O.3     1  UNL1       -0.4730
     49 C          -6.5847    4.2359   20.1143 C.3     1  UNL1        0.2364
     50 C          -5.2357    3.6455   19.8285 C.3     1  UNL1        0.1762
     51 O          -4.8244    3.3647   18.4135 O.3     1  UNL1       -0.3788
     52 H          -5.5406    3.6210   17.8117 H       1  UNL1        0.2106
     53 C           0.0176    2.7505   18.9188 C.3     1  UNL1        0.0737
     54 C           1.3349    2.0901   18.6382 C.ar    1  UNL1        0.1234
     55 C           1.5440    0.6387   18.3225 C.ar    1  UNL1        0.0361
     56 C           3.0127    0.4167   18.1132 C.ar    1  UNL1        0.0404
     57 C           3.8042   -0.8123   17.7771 C.ar    1  UNL1        0.0238
     58 C           5.2942   -0.7270   17.6272 C.ar    1  UNL1        0.0991
     59 N           5.9928    0.5872   17.8135 N.ar    1  UNL1       -0.2391
     60 C           5.2013    1.8163   18.1496 C.ar    1  UNL1        0.1362
     61 C           3.7112    1.7311   18.2995 C.ar    1  UNL1        0.1639
     62 O           2.6743    2.7653   18.6239 O.2     1  UNL1       -0.4562
@<TRIPOS>BOND
     1    17    18    1
     2    18    19    1
     3    18    20    1
     4    20    21   ar
     5    21    22   ar
     6    22    23   ar
     7    23    25    1
     8    25    26   ar
     9    26    27   ar
    10    27    28   ar
    11    28    29    1
    12    28    30   ar
    13    30    31   ar
    14    23    24   ar
    15    18     2    1
    16     2     3    1
    17     3     4    1
    18     4     5    1
    19     5     1    1
    20     1    32    1
    21    32    33    1
    22    32    35    1
    23    36    35    1
    24    36    53    1
    25    53    54    1
    26    54    55   ar
    27    55    56   ar
    28    56    57   ar
    29    57    58   ar
    30    58    59   ar
    31    59    60   ar
    32    60    61   ar
    33    61    62   ar
    34    36    37    1
    35    37    38    2
    36    37    39   am
    37    41    39    1
    38    41    42    1
    39    42    43   ar
    40    43    44   ar
    41    44    45   ar
    42    45    46   ar
    43    46    47   ar
    44    47    48    1
    45    48    49    1
    46    49    50    1
    47    50    51    1
    48     5     6    1
    49     6     8    1
    50     8     9    2
    51     8    10   am
    52    10    12    1
    53    12    13    1
    54    13    14    1
    55    13    15    1
    56    13    16    1
    57     6     7    1
    58    24    20   ar
    59     7     2    1
    60    31    25   ar
    61    62    54   ar
    62    50    41    1
    63    61    56   ar
    64    47    42   ar
    65    33    34    1
    66    39    40    1
    67    51    52    1
    68    10    11    1
@<TRIPOS>MOLECULE
*****
 62 68 0 0 0
SMALL
GASTEIGER

@<TRIPOS>ATOM
      1 C           1.7335    0.4136   22.1373 C.3     1  UNL1        0.1021
      2 N           1.7318    0.9820   26.6013 N.3     1  UNL1       -0.2650
      3 C           0.4774    1.2209   25.8143 C.3     1  UNL1        0.0900
      4 C           0.4780    1.0314   24.3263 C.3     1  UNL1        0.0901
      5 N           1.7330    0.6031   23.6253 N.3     1  UNL1       -0.2621
      6 C           2.9874    0.3642   24.4123 C.3     1  UNL1        0.1510
      7 C           2.9868    0.5537   25.9002 C.3     1  UNL1        0.0980
      8 C           4.2425   -0.0641   23.7112 C.2     1  UNL1        0.2386
      9 O           5.2405    0.9632   23.2656 O.2     1  UNL1       -0.2736
     10 N           4.4994   -1.5197   23.4559 N.am    1  UNL1       -0.2961
     11 H           3.8444   -2.1939   23.7484 H       1  UNL1        0.1497
     12 C           5.7545   -1.9480   22.7549 C.3     1  UNL1        0.1939
     13 C           6.2731   -3.3444   22.9316 C.3     1  UNL1        0.4154
     14 F           6.7916   -4.7407   23.1083 F       1  UNL1       -0.1682
     15 F           4.9862   -3.7385   23.5939 F       1  UNL1       -0.1682
     16 F           7.5599   -2.9503   22.2693 F       1  UNL1       -0.1682
     17 C           0.9194    2.4227   27.9296 C.3     1  UNL1        0.0255
     18 C           1.7312    1.1715   28.0892 C.3     1  UNL1        0.1147
     19 C           2.5430   -0.0797   28.2489 C.3     1  UNL1        0.0255
     20 C           1.7306    1.3610   29.5772 C.ar    1  UNL1        0.2185
     21 N           0.7033    2.1135   30.3698 N.ar    1  UNL1       -0.2094
     22 C           1.0950    2.0488   31.8163 C.ar    1  UNL1        0.1392
     23 C           2.3644    1.2563   31.9178 C.ar    1  UNL1        0.1659
     24 O           2.7572    0.8311   30.5339 O.2     1  UNL1       -0.4370
     25 C           3.1101    0.9437   33.1812 C.ar    1  UNL1        0.0362
     26 C           3.0569    1.8961   34.3387 C.ar    1  UNL1        0.0039
     27 C           3.8026    1.5835   35.6021 C.ar    1  UNL1        0.0115
     28 C           4.6015    0.3184   35.7079 C.ar    1  UNL1        0.0577
     29 CL          5.3473    0.0057   36.9713 Cl      1  UNL1       -0.0822
     30 C           4.6548   -0.6341   34.5503 C.ar    1  UNL1        0.0115
     31 C           3.9091   -0.3214   33.2870 C.ar    1  UNL1        0.0039
     32 C           0.5825    0.9156   21.3169 C.3     1  UNL1        0.1269
     33 O          -0.3021   -0.0555   20.5925 O.3     1  UNL1       -0.3830
     34 H          -0.9917    0.4304   20.1137 H       1  UNL1        0.2104
     35 C           0.3161    2.3886   21.2208 C.3     1  UNL1        0.0402
     36 C          -0.4622    2.9358   20.0610 C.3     1  UNL1        0.0864
     37 C          -1.8126    3.5488   20.2864 C.2     1  UNL1        0.2228
     38 O          -1.9850    5.0364   20.1991 O.2     1  UNL1       -0.2751
     39 N          -2.9904    2.6743   20.5990 N.am    1  UNL1       -0.2999
     40 H          -2.8773    1.6980   20.6563 H       1  UNL1        0.1498
     41 C          -4.3408    3.2873   20.8244 C.3     1  UNL1        0.1278
     42 C          -4.7968    3.6059   22.2175 C.ar    1  UNL1        0.0320
     43 C          -3.9024    3.3116   23.3851 C.ar    1  UNL1        0.0004
     44 C          -4.3583    3.6303   24.7782 C.ar    1  UNL1       -0.0001
     45 C          -5.7087    4.2432   25.0035 C.ar    1  UNL1        0.0031
     46 C          -6.6031    4.5375   23.8359 C.ar    1  UNL1        0.0366
     47 C          -6.1471    4.2189   22.4429 C.ar    1  UNL1        0.1362
     48 O          -7.0415    4.5132   21.2752 O.3     1  UNL1       -0.4730
     49 C          -6.5856    4.1945   19.8822 C.3     1  UNL1        0.2364
     50 C          -5.2352    3.5816   19.6568 C.3     1  UNL1        0.1762
     51 O          -4.7793    3.2629   18.2637 O.3     1  UNL1       -0.3788
     52 H          -5.4711    3.5136   17.6318 H       1  UNL1        0.2106
     53 C           0.1099    2.8701   18.6760 C.3     1  UNL1        0.0737
     54 C           1.3789    2.1109   18.4239 C.ar    1  UNL1        0.1234
     55 C           2.7686    2.6724   18.4821 C.ar    1  UNL1        0.0361
     56 C           3.7295    1.5655   18.1636 C.ar    1  UNL1        0.0404
     57 C           5.2263    1.5309   18.0728 C.ar    1  UNL1        0.0238
     58 C           5.9273    0.2506   17.7269 C.ar    1  UNL1        0.0991
     59 N           5.1314   -0.9949   17.4718 N.ar    1  UNL1       -0.2391
     60 C           3.6345   -0.9603   17.5626 C.ar    1  UNL1        0.1362
     61 C           2.9336    0.3199   17.9084 C.ar    1  UNL1        0.1639
     62 O           1.4808    0.6570   18.0693 O.2     1  UNL1       -0.4562
@<TRIPOS>BOND
     1    17    18    1
     2    18    19    1
     3    18    20    1
     4    20    21   ar
     5    21    22   ar
     6    22    23   ar
     7    23    25    1
     8    25    26   ar
     9    26    27   ar
    10    27    28   ar
    11    28    29    1
    12    28    30   ar
    13    30    31   ar
    14    23    24   ar
    15    18     2    1
    16     2     3    1
    17     3     4    1
    18     4     5    1
    19     5     1    1
    20     1    32    1
    21    32    33    1
    22    32    35    1
    23    36    35    1
    24    36    53    1
    25    53    54    1
    26    54    55   ar
    27    55    56   ar
    28    56    57   ar
    29    57    58   ar
    30    58    59   ar
    31    59    60   ar
    32    60    61   ar
    33    61    62   ar
    34    36    37    1
    35    37    38    2
    36    37    39   am
    37    41    39    1
    38    41    42    1
    39    42    43   ar
    40    43    44   ar
    41    44    45   ar
    42    45    46   ar
    43    46    47   ar
    44    47    48    1
    45    48    49    1
    46    49    50    1
    47    50    51    1
    48     5     6    1
    49     6     8    1
    50     8     9    2
    51     8    10   am
    52    10    12    1
    53    12    13    1
    54    13    14    1
    55    13    15    1
    56    13    16    1
    57     6     7    1
    58    24    20   ar
    59     7     2    1
    60    31    25   ar
    61    62    54   ar
    62    50    41    1
    63    61    56   ar
    64    47    42   ar
    65    33    34    1
    66    39    40    1
    67    51    52    1
    68    10    11    1
@<TRIPOS>MOLECULE
*****
 62 68 0 0 0
SMALL
GASTEIGER

@<TRIPOS>ATOM
      1 C           0.3593    1.3791   24.9004 C.3     1  UNL1        0.1021
      2 N           1.8769    1.0058   29.1203 N.3     1  UNL1       -0.2650
      3 C           0.4751    1.4752   28.8661 C.3     1  UNL1        0.0900
      4 C          -0.0308    1.5996   27.4595 C.3     1  UNL1        0.0901
      5 N           0.8652    1.2547   26.3070 N.3     1  UNL1       -0.2621
      6 C           2.2670    0.7854   26.5611 C.3     1  UNL1        0.1510
      7 C           2.7729    0.6609   27.9678 C.3     1  UNL1        0.0980
      8 C           3.1630    0.4405   25.4086 C.2     1  UNL1        0.2386
      9 O           4.2048    1.4174   24.9500 O.2     1  UNL1       -0.2736
     10 N           3.0172   -0.8813   24.7147 N.am    1  UNL1       -0.2961
     11 H           2.3335   -1.5225   25.0157 H       1  UNL1        0.1497
     12 C           3.9132   -1.2262   23.5622 C.3     1  UNL1        0.1939
     13 C           3.3286   -1.4539   22.1997 C.3     1  UNL1        0.4154
     14 F           2.7440   -1.6815   20.8372 F       1  UNL1       -0.1682
     15 F           4.2235   -2.6433   22.0144 F       1  UNL1       -0.1682
     16 F           2.4337   -0.2644   22.3849 F       1  UNL1       -0.1682
     17 C           1.9789    2.3004   30.7977 C.3     1  UNL1        0.0255
     18 C           2.3828    0.8814   30.5269 C.3     1  UNL1        0.1147
     19 C           2.7868   -0.5376   30.2561 C.3     1  UNL1        0.0255
     20 C           2.8887    0.7570   31.9335 C.ar    1  UNL1        0.2185
     21 N           3.6654   -0.3982   32.4922 N.ar    1  UNL1       -0.2094
     22 C           3.9634   -0.1033   33.9324 C.ar    1  UNL1        0.1392
     23 C           3.3709    1.2343   34.2638 C.ar    1  UNL1        0.1659
     24 O           2.7067    1.7659   33.0285 O.2     1  UNL1       -0.4370
     25 C           3.4318    1.9199   35.5966 C.ar    1  UNL1        0.0362
     26 C           4.4456    1.4903   36.6153 C.ar    1  UNL1        0.0039
     27 C           4.5065    2.1759   37.9480 C.ar    1  UNL1        0.0115
     28 C           3.5537    3.2910   38.2621 C.ar    1  UNL1        0.0577
     29 CL          3.6146    3.9766   39.5949 Cl      1  UNL1       -0.0822
     30 C           2.5399    3.7205   37.2433 C.ar    1  UNL1        0.0115
     31 C           2.4790    3.0350   35.9107 C.ar    1  UNL1        0.0039
     32 C           0.4758    2.6865   24.1743 C.3     1  UNL1        0.1269
     33 O          -0.4916    3.7952   24.4660 O.3     1  UNL1       -0.3830
     34 H          -0.2776    4.5643   23.9151 H       1  UNL1        0.2104
     35 C           1.5596    2.8853   23.1566 C.3     1  UNL1        0.0402
     36 C           1.2092    3.0207   21.7044 C.3     1  UNL1        0.0864
     37 C          -0.2107    2.8401   21.2556 C.2     1  UNL1        0.2228
     38 O          -0.6764    1.5030   20.7602 O.2     1  UNL1       -0.2751
     39 N          -1.1648    3.9966   21.3021 N.am    1  UNL1       -0.2999
     40 H          -0.8591    4.8741   21.6272 H       1  UNL1        0.1498
     41 C          -2.5846    3.8160   20.8532 C.3     1  UNL1        0.1278
     42 C          -2.9196    3.8530   19.3915 C.ar    1  UNL1        0.0320
     43 C          -1.8347    4.0705   18.3787 C.ar    1  UNL1        0.0004
     44 C          -2.1697    4.1074   16.9171 C.ar    1  UNL1       -0.0001
     45 C          -3.5895    3.9269   16.4683 C.ar    1  UNL1        0.0031
     46 C          -4.6744    3.7094   17.4810 C.ar    1  UNL1        0.0366
     47 C          -4.3394    3.6724   18.9427 C.ar    1  UNL1        0.1362
     48 O          -5.4243    3.4549   19.9555 O.3     1  UNL1       -0.4730
     49 C          -5.0893    3.4180   21.4171 C.3     1  UNL1        0.2364
     50 C          -3.6695    3.5985   21.8660 C.3     1  UNL1        0.1762
     51 O          -3.3345    3.5616   23.3277 O.3     1  UNL1       -0.3788
     52 H          -4.1440    3.4135   23.8413 H       1  UNL1        0.2106
     53 C           2.2785    3.3367   20.7011 C.3     1  UNL1        0.0737
     54 C           2.9793    2.2256   19.9768 C.ar    1  UNL1        0.1234
     55 C           4.2992    1.6214   20.3546 C.ar    1  UNL1        0.0361
     56 C           4.6189    0.5462   19.3588 C.ar    1  UNL1        0.0404
     57 C           5.7869   -0.3858   19.2282 C.ar    1  UNL1        0.0238
     58 C           5.8326   -1.3781   18.1043 C.ar    1  UNL1        0.0991
     59 N           4.7102   -1.4385   17.1110 N.ar    1  UNL1       -0.2391
     60 C           3.5421   -0.5065   17.2416 C.ar    1  UNL1        0.1362
     61 C           3.4964    0.4858   18.3655 C.ar    1  UNL1        0.1639
     62 O           2.4832    1.5238   18.7474 O.2     1  UNL1       -0.4562
@<TRIPOS>BOND
     1    17    18    1
     2    18    19    1
     3    18    20    1
     4    20    21   ar
     5    21    22   ar
     6    22    23   ar
     7    23    25    1
     8    25    26   ar
     9    26    27   ar
    10    27    28   ar
    11    28    29    1
    12    28    30   ar
    13    30    31   ar
    14    23    24   ar
    15    18     2    1
    16     2     3    1
    17     3     4    1
    18     4     5    1
    19     5     1    1
    20     1    32    1
    21    32    33    1
    22    32    35    1
    23    36    35    1
    24    36    53    1
    25    53    54    1
    26    54    55   ar
    27    55    56   ar
    28    56    57   ar
    29    57    58   ar
    30    58    59   ar
    31    59    60   ar
    32    60    61   ar
    33    61    62   ar
    34    36    37    1
    35    37    38    2
    36    37    39   am
    37    41    39    1
    38    41    42    1
    39    42    43   ar
    40    43    44   ar
    41    44    45   ar
    42    45    46   ar
    43    46    47   ar
    44    47    48    1
    45    48    49    1
    46    49    50    1
    47    50    51    1
    48     5     6    1
    49     6     8    1
    50     8     9    2
    51     8    10   am
    52    10    12    1
    53    12    13    1
    54    13    14    1
    55    13    15    1
    56    13    16    1
    57     6     7    1
    58    24    20   ar
    59     7     2    1
    60    31    25   ar
    61    62    54   ar
    62    50    41    1
    63    61    56   ar
    64    47    42   ar
    65    33    34    1
    66    39    40    1
    67    51    52    1
    68    10    11    1
@<TRIPOS>MOLECULE
*****
 62 68 0 0 0
SMALL
GASTEIGER

@<TRIPOS>ATOM
      1 C           0.1580    2.6089   23.9211 C.3     1  UNL1        0.1021
      2 N           2.0666    1.3269   27.7894 N.3     1  UNL1       -0.2650
      3 C           2.3233    0.5494   26.5326 C.3     1  UNL1        0.0900
      4 C           1.6871    0.9768   25.2432 C.3     1  UNL1        0.0901
      5 N           0.7942    2.1816   25.2105 N.3     1  UNL1       -0.2621
      6 C           0.5375    2.9590   26.4673 C.3     1  UNL1        0.1510
      7 C           1.1737    2.5317   27.7568 C.3     1  UNL1        0.0980
      8 C          -0.3554    4.1639   26.4348 C.2     1  UNL1        0.2386
      9 O           0.1869    5.4873   25.9824 O.2     1  UNL1       -0.2736
     10 N          -1.7906    4.0454   26.8545 N.am    1  UNL1       -0.2961
     11 H          -2.1465    3.1769   27.1514 H       1  UNL1        0.1497
     12 C          -2.6834    5.2503   26.8219 C.3     1  UNL1        0.1939
     13 C          -4.1720    5.0790   26.7511 C.3     1  UNL1        0.4154
     14 F          -5.6605    4.9078   26.6803 F       1  UNL1       -0.1682
     15 F          -4.3243    6.5360   26.4286 F       1  UNL1       -0.1682
     16 F          -4.0197    3.6221   27.0736 F       1  UNL1       -0.1682
     17 C           2.3354   -0.5254   28.7878 C.3     1  UNL1        0.0255
     18 C           2.7027    0.8995   29.0788 C.3     1  UNL1        0.1147
     19 C           3.0701    2.3244   29.3699 C.3     1  UNL1        0.0255
     20 C           3.3389    0.4721   30.3683 C.ar    1  UNL1        0.2185
     21 N           4.3652   -0.6100   30.5290 N.ar    1  UNL1       -0.2094
     22 C           4.7211   -0.6991   31.9834 C.ar    1  UNL1        0.1392
     23 C           3.9148    0.3280   32.7216 C.ar    1  UNL1        0.1659
     24 O           3.0606    1.0519   31.7234 O.2     1  UNL1       -0.4370
     25 C           3.9555    0.5860   34.1987 C.ar    1  UNL1        0.0362
     26 C           4.7277   -0.3319   35.0994 C.ar    1  UNL1        0.0039
     27 C           4.7684   -0.0738   36.5764 C.ar    1  UNL1        0.0115
     28 C           4.0369    1.1021   37.1528 C.ar    1  UNL1        0.0577
     29 CL          4.0777    1.3601   38.6300 Cl      1  UNL1       -0.0822
     30 C           3.2648    2.0200   36.2521 C.ar    1  UNL1        0.0115
     31 C           3.2241    1.7620   34.7751 C.ar    1  UNL1        0.0039
     32 C           0.9622    3.3575   22.9000 C.3     1  UNL1        0.1269
     33 O           1.6121    4.6595   23.2644 O.3     1  UNL1       -0.3830
     34 H           2.0896    5.0088   22.4958 H       1  UNL1        0.2104
     35 C           1.1167    2.8043   21.5143 C.3     1  UNL1        0.0402
     36 C          -0.0762    2.2568   20.7881 C.3     1  UNL1        0.0864
     37 C          -1.2374    3.1520   20.4715 C.2     1  UNL1        0.2228
     38 O          -1.0032    4.5975   20.1460 O.2     1  UNL1       -0.2751
     39 N          -2.6328    2.6018   20.4804 N.am    1  UNL1       -0.2999
     40 H          -2.7866    1.6532   20.6940 H       1  UNL1        0.1498
     41 C          -3.7940    3.4971   20.1638 C.3     1  UNL1        0.1278
     42 C          -4.8091    3.8115   21.2226 C.ar    1  UNL1        0.0320
     43 C          -4.6629    3.2308   22.5978 C.ar    1  UNL1        0.0004
     44 C          -5.6779    3.5453   23.6565 C.ar    1  UNL1       -0.0001
     45 C          -6.8391    4.4405   23.3399 C.ar    1  UNL1        0.0031
     46 C          -6.9853    5.0212   21.9646 C.ar    1  UNL1        0.0366
     47 C          -5.9703    4.7068   20.9060 C.ar    1  UNL1        0.1362
     48 O          -6.1164    5.2875   19.5307 O.3     1  UNL1       -0.4730
     49 C          -5.1014    4.9730   18.4720 C.3     1  UNL1        0.2364
     50 C          -3.9402    4.0778   18.7886 C.3     1  UNL1        0.1762
     51 O          -2.9252    3.7633   17.7298 O.3     1  UNL1       -0.3788
     52 H          -3.1666    4.2151   16.9061 H       1  UNL1        0.2106
     53 C          -0.1079    0.8142   20.3784 C.3     1  UNL1        0.0737
     54 C           1.1116    0.1773   19.7805 C.ar    1  UNL1        0.1234
     55 C           1.9483   -0.8935   20.4156 C.ar    1  UNL1        0.0361
     56 C           3.0622   -1.2331   19.4702 C.ar    1  UNL1        0.0404
     57 C           4.1924   -2.2151   19.5621 C.ar    1  UNL1        0.0238
     58 C           5.1743   -2.3361   18.4346 C.ar    1  UNL1        0.0991
     59 N           5.0260   -1.4753   17.2153 N.ar    1  UNL1       -0.2391
     60 C           3.8958   -0.4933   17.1233 C.ar    1  UNL1        0.1362
     61 C           2.9139   -0.3722   18.2508 C.ar    1  UNL1        0.1639
     62 O           1.7084    0.4995   18.4426 O.2     1  UNL1       -0.4562
@<TRIPOS>BOND
     1    17    18    1
     2    18    19    1
     3    18    20    1
     4    20    21   ar
     5    21    22   ar
     6    22    23   ar
     7    23    25    1
     8    25    26   ar
     9    26    27   ar
    10    27    28   ar
    11    28    29    1
    12    28    30   ar
    13    30    31   ar
    14    23    24   ar
    15    18     2    1
    16     2     3    1
    17     3     4    1
    18     4     5    1
    19     5     1    1
    20     1    32    1
    21    32    33    1
    22    32    35    1
    23    36    35    1
    24    36    53    1
    25    53    54    1
    26    54    55   ar
    27    55    56   ar
    28    56    57   ar
    29    57    58   ar
    30    58    59   ar
    31    59    60   ar
    32    60    61   ar
    33    61    62   ar
    34    36    37    1
    35    37    38    2
    36    37    39   am
    37    41    39    1
    38    41    42    1
    39    42    43   ar
    40    43    44   ar
    41    44    45   ar
    42    45    46   ar
    43    46    47   ar
    44    47    48    1
    45    48    49    1
    46    49    50    1
    47    50    51    1
    48     5     6    1
    49     6     8    1
    50     8     9    2
    51     8    10   am
    52    10    12    1
    53    12    13    1
    54    13    14    1
    55    13    15    1
    56    13    16    1
    57     6     7    1
    58    24    20   ar
    59     7     2    1
    60    31    25   ar
    61    62    54   ar
    62    50    41    1
    63    61    56   ar
    64    47    42   ar
    65    33    34    1
    66    39    40    1
    67    51    52    1
    68    10    11    1
@<TRIPOS>MOLECULE
*****
 62 68 0 0 0
SMALL
GASTEIGER

@<TRIPOS>ATOM
      1 C           4.2205    0.0031   25.4824 C.3     1  UNL1        0.1021
      2 N           1.3221    1.7545   22.5189 N.3     1  UNL1       -0.2650
      3 C           2.5640    1.0656   22.0361 C.3     1  UNL1        0.0900
      4 C           3.5301    0.4818   23.0239 C.3     1  UNL1        0.0901
      5 N           3.2543    0.5869   24.4946 N.3     1  UNL1       -0.2621
      6 C           2.0125    1.2757   24.9774 C.3     1  UNL1        0.1510
      7 C           1.0463    1.8595   23.9896 C.3     1  UNL1        0.0980
      8 C           1.7367    1.3808   26.4481 C.2     1  UNL1        0.2386
      9 O           2.0918    2.6352   27.1900 O.2     1  UNL1       -0.2736
     10 N           1.1058    0.2315   27.1769 N.am    1  UNL1       -0.2961
     11 H           0.8727   -0.5918   26.6899 H       1  UNL1        0.1497
     12 C           0.8300    0.3366   28.6475 C.3     1  UNL1        0.1939
     13 C          -0.5843    0.3359   29.1474 C.3     1  UNL1        0.4154
     14 F          -1.9986    0.3353   29.6472 F       1  UNL1       -0.1682
     15 F          -0.8949   -0.8382   28.2671 F       1  UNL1       -0.1682
     16 F          -0.2738    1.5101   30.0276 F       1  UNL1       -0.1682
     17 C           0.4720    3.6727   22.2062 C.3     1  UNL1        0.0255
     18 C           0.3560    2.3383   21.5311 C.3     1  UNL1        0.1147
     19 C           0.2399    1.0038   20.8560 C.3     1  UNL1        0.0255
     20 C          -0.6102    2.9221   20.5433 C.ar    1  UNL1        0.2185
     21 N          -0.2808    3.3817   19.1540 N.ar    1  UNL1       -0.2094
     22 C          -1.5424    3.8924   18.5234 C.ar    1  UNL1        0.1392
     23 C          -2.6514    3.7485   19.5230 C.ar    1  UNL1        0.1659
     24 O          -2.0753    3.1488   20.7714 O.2     1  UNL1       -0.4370
     25 C          -4.0849    4.1362   19.3115 C.ar    1  UNL1        0.0362
     26 C          -5.0371    4.1500   20.4705 C.ar    1  UNL1        0.0039
     27 C          -6.4705    4.5377   20.2589 C.ar    1  UNL1        0.0115
     28 C          -6.9519    4.9116   18.8883 C.ar    1  UNL1        0.0577
     29 CL         -8.3854    5.2993   18.6767 Cl      1  UNL1       -0.0822
     30 C          -5.9997    4.8977   17.7293 C.ar    1  UNL1        0.0115
     31 C          -4.5663    4.5100   17.9409 C.ar    1  UNL1        0.0039
     32 C           4.1729   -1.4616   25.8021 C.3     1  UNL1        0.1269
     33 O           3.4260   -1.9416   27.0111 O.3     1  UNL1       -0.3830
     34 H           3.4944   -2.9073   27.0713 H       1  UNL1        0.2104
     35 C           4.8724   -2.4465   24.9128 C.3     1  UNL1        0.0402
     36 C           6.3184   -2.7712   25.1447 C.3     1  UNL1        0.0864
     37 C           6.8034   -3.0879   26.5283 C.2     1  UNL1        0.2228
     38 O           8.1792   -2.6692   26.9550 O.2     1  UNL1       -0.2751
     39 N           5.9128   -3.8234   27.4852 N.am    1  UNL1       -0.2999
     40 H           5.0098   -4.0982   27.2052 H       1  UNL1        0.1498
     41 C           6.3978   -4.1401   28.8689 C.3     1  UNL1        0.1278
     42 C           6.3650   -3.0853   29.9349 C.ar    1  UNL1        0.0320
     43 C           5.8473   -1.7138   29.6173 C.ar    1  UNL1        0.0004
     44 C           5.8146   -0.6590   30.6833 C.ar    1  UNL1       -0.0001
     45 C           6.2996   -0.9758   32.0669 C.ar    1  UNL1        0.0031
     46 C           6.8173   -2.3472   32.3845 C.ar    1  UNL1        0.0366
     47 C           6.8501   -3.4020   31.3185 C.ar    1  UNL1        0.1362
     48 O           7.3678   -4.7736   31.6361 O.3     1  UNL1       -0.4730
     49 C           7.4006   -5.8283   30.5701 C.3     1  UNL1        0.2364
     50 C           6.9155   -5.5116   29.1865 C.3     1  UNL1        0.1762
     51 O           6.9483   -6.5664   28.1205 O.3     1  UNL1       -0.3788
     52 H           7.3083   -7.3880   28.4896 H       1  UNL1        0.2106
     53 C           7.2793   -2.7792   23.9929 C.3     1  UNL1        0.0737
     54 C           6.7902   -2.4835   22.6060 C.ar    1  UNL1        0.1234
     55 C           6.3610   -3.4977   21.5876 C.ar    1  UNL1        0.0361
     56 C           5.9500   -2.7629   20.3462 C.ar    1  UNL1        0.0404
     57 C           5.4389   -3.2410   19.0195 C.ar    1  UNL1        0.0238
     58 C           5.1029   -2.2508   17.9441 C.ar    1  UNL1        0.0991
     59 N           5.2780   -0.7824   18.1953 N.ar    1  UNL1       -0.2391
     60 C           5.7891   -0.3042   19.5220 C.ar    1  UNL1        0.1362
     61 C           6.1251   -1.2944   20.5975 C.ar    1  UNL1        0.1639
     62 O           6.6444   -1.1218   21.9941 O.2     1  UNL1       -0.4562
@<TRIPOS>BOND
     1    17    18    1
     2    18    19    1
     3    18    20    1
     4    20    21   ar
     5    21    22   ar
     6    22    23   ar
     7    23    25    1
     8    25    26   ar
     9    26    27   ar
    10    27    28   ar
    11    28    29    1
    12    28    30   ar
    13    30    31   ar
    14    23    24   ar
    15    18     2    1
    16     2     3    1
    17     3     4    1
    18     4     5    1
    19     5     1    1
    20     1    32    1
    21    32    33    1
    22    32    35    1
    23    36    35    1
    24    36    53    1
    25    53    54    1
    26    54    55   ar
    27    55    56   ar
    28    56    57   ar
    29    57    58   ar
    30    58    59   ar
    31    59    60   ar
    32    60    61   ar
    33    61    62   ar
    34    36    37    1
    35    37    38    2
    36    37    39   am
    37    41    39    1
    38    41    42    1
    39    42    43   ar
    40    43    44   ar
    41    44    45   ar
    42    45    46   ar
    43    46    47   ar
    44    47    48    1
    45    48    49    1
    46    49    50    1
    47    50    51    1
    48     5     6    1
    49     6     8    1
    50     8     9    2
    51     8    10   am
    52    10    12    1
    53    12    13    1
    54    13    14    1
    55    13    15    1
    56    13    16    1
    57     6     7    1
    58    24    20   ar
    59     7     2    1
    60    31    25   ar
    61    62    54   ar
    62    50    41    1
    63    61    56   ar
    64    47    42   ar
    65    33    34    1
    66    39    40    1
    67    51    52    1
    68    10    11    1
