@<TRIPOS>MOLECULE
*****
 26 29 0 0 0
SMALL
GASTEIGER

@<TRIPOS>ATOM
      1 C          -5.3923  -19.5422   21.5561 C.ar    1  UNL1        0.1354
      2 C          -6.1683  -18.7701   22.5815 C.ar    1  UNL1        0.0414
      3 C          -7.6283  -18.4991   22.3696 C.ar    1  UNL1        0.0177
      4 C          -8.3123  -19.0002   21.1322 C.ar    1  UNL1        0.0440
      5 C          -7.5363  -19.7723   20.1068 C.ar    1  UNL1       -0.0038
      6 C          -6.0763  -20.0433   20.3187 C.ar    1  UNL1        0.0372
      7 C          -8.4737  -20.1372   18.9941 C.3     1  UNL1        0.0491
      8 C          -9.8291  -19.5906   19.3319 C.3     1  UNL1        0.0954
      9 N          -9.7294  -18.8879   20.6534 N.pl3   1  UNL1       -0.3089
     10 C         -10.8500  -18.1946   21.3701 C.3     1  UNL1        0.0755
     11 C         -11.4491  -18.8111   22.5993 C.3     1  UNL1        0.0368
     12 C         -12.5696  -18.1178   23.3160 C.3     1  UNL1        0.0703
     13 N         -13.0910  -16.8080   22.8035 N.3     1  UNL1       -0.2974
     14 C         -12.4919  -16.1916   21.5742 C.3     1  UNL1        0.0703
     15 C         -11.3714  -16.8849   20.8576 C.3     1  UNL1        0.0368
     16 H         -12.9779  -16.1307   23.5576 H       1  UNL1        0.1232
     17 N          -3.9322  -19.8132   21.7679 N.pl3   1  UNL1       -0.1990
     18 H          -3.6161  -20.7372   21.8925 H       1  UNL1        0.2985
     19 N          -2.6730  -17.9536   23.0741 N.2     1  UNL1       -0.0985
     20 C          -2.9539  -18.6764   21.7901 C.2     1  UNL1        0.3224
     21 H          -3.1307  -18.2253   23.9023 H       1  UNL1        0.3633
     22 C          -2.2564  -18.2624   20.5282 C.ar    1  UNL1        0.1114
     23 C          -2.8968  -18.0902   19.1828 C.ar    1  UNL1        0.0144
     24 C          -1.8324  -17.6693   18.2133 C.ar    1  UNL1        0.0077
     25 C          -0.5342  -17.5814   18.9597 C.ar    1  UNL1        0.0357
     26 S          -0.7963  -17.9480   20.3903 S.2     1  UNL1       -0.0792
@<TRIPOS>BOND
     1    19    20    2
     2    20    17    1
     3    17     1    1
     4     1     2   ar
     5     2     3   ar
     6     3     4   ar
     7     4     5   ar
     8     5     6   ar
     9     5     7    1
    10     7     8    1
    11     8     9    1
    12     9    10    1
    13    10    11    1
    14    11    12    1
    15    12    13    1
    16    13    14    1
    17    14    15    1
    18    20    22    1
    19    22    23   ar
    20    23    24   ar
    21    24    25   ar
    22    25    26   ar
    23     6     1   ar
    24    15    10    1
    25    26    22   ar
    26     9     4    1
    27    19    21    1
    28    17    18    1
    29    13    16    1
@<TRIPOS>MOLECULE
*****
 26 29 0 0 0
SMALL
GASTEIGER

@<TRIPOS>ATOM
      1 C          -5.0401  -18.7689   22.3865 C.ar    1  UNL1        0.1354
      2 C          -6.2089  -19.3323   21.6339 C.ar    1  UNL1        0.0414
      3 C          -7.5561  -18.6820   21.7446 C.ar    1  UNL1        0.0177
      4 C          -7.7344  -17.4684   22.6079 C.ar    1  UNL1        0.0440
      5 C          -6.5657  -16.9050   23.3605 C.ar    1  UNL1       -0.0038
      6 C          -5.2185  -17.5553   23.2498 C.ar    1  UNL1        0.0372
      7 C          -7.0422  -15.7075   24.1279 C.3     1  UNL1        0.0491
      8 C          -8.5055  -15.5308   23.8495 C.3     1  UNL1        0.0954
      9 N          -8.9334  -16.6191   22.9101 N.pl3   1  UNL1       -0.3089
     10 C         -10.3172  -16.8224   22.3681 C.3     1  UNL1        0.0755
     11 C         -10.7048  -16.2128   21.0535 C.3     1  UNL1        0.0368
     12 C         -12.0886  -16.4162   20.5115 C.3     1  UNL1        0.0703
     13 N         -13.0847  -17.2291   21.2841 N.3     1  UNL1       -0.2974
     14 C         -12.6971  -17.8386   22.5988 C.3     1  UNL1        0.0703
     15 C         -11.3133  -17.6352   23.1407 C.3     1  UNL1        0.0368
     16 H         -13.3725  -17.9966   20.6772 H       1  UNL1        0.1232
     17 N          -3.6929  -19.4191   22.2758 N.pl3   1  UNL1       -0.1990
     18 H          -3.6126  -20.3985   22.3357 H       1  UNL1        0.2985
     19 N          -1.7071  -18.0634   23.2601 N.2     1  UNL1       -0.0985
     20 C          -2.4680  -18.5772   22.0739 C.2     1  UNL1        0.3224
     21 H          -2.0117  -18.2788   24.1712 H       1  UNL1        0.3633
     22 C          -2.0040  -18.2489   20.6857 C.ar    1  UNL1        0.1114
     23 C          -2.8705  -18.1597   19.4646 C.ar    1  UNL1        0.0144
     24 C          -1.9941  -17.8079   18.2991 C.ar    1  UNL1        0.0077
     25 C          -0.5860  -17.6797   18.8000 C.ar    1  UNL1        0.0357
     26 S          -0.5922  -17.9522   20.2750 S.2     1  UNL1       -0.0792
@<TRIPOS>BOND
     1    19    20    2
     2    20    17    1
     3    17     1    1
     4     1     2   ar
     5     2     3   ar
     6     3     4   ar
     7     4     5   ar
     8     5     6   ar
     9     5     7    1
    10     7     8    1
    11     8     9    1
    12     9    10    1
    13    10    11    1
    14    11    12    1
    15    12    13    1
    16    13    14    1
    17    14    15    1
    18    20    22    1
    19    22    23   ar
    20    23    24   ar
    21    24    25   ar
    22    25    26   ar
    23     6     1   ar
    24    15    10    1
    25    26    22   ar
    26     9     4    1
    27    19    21    1
    28    17    18    1
    29    13    16    1
@<TRIPOS>MOLECULE
*****
 26 29 0 0 0
SMALL
GASTEIGER

@<TRIPOS>ATOM
      1 C          -5.9080  -19.9381   21.0242 C.ar    1  UNL1        0.1354
      2 C          -6.4999  -19.2961   22.2438 C.ar    1  UNL1        0.0414
      3 C          -7.9505  -18.9151   22.2616 C.ar    1  UNL1        0.0177
      4 C          -8.8093  -19.1761   21.0599 C.ar    1  UNL1        0.0440
      5 C          -8.2175  -19.8181   19.8402 C.ar    1  UNL1       -0.0038
      6 C          -6.7668  -20.1991   19.8224 C.ar    1  UNL1        0.0372
      7 C          -9.3027  -19.9507   18.8133 C.3     1  UNL1        0.0491
      8 C         -10.5653  -19.3906   19.3982 C.3     1  UNL1        0.0954
      9 N         -10.2604  -18.9119   20.7867 N.pl3   1  UNL1       -0.3089
     10 C         -11.2354  -18.2799   21.7354 C.3     1  UNL1        0.0755
     11 C         -11.8169  -16.9323   21.4259 C.3     1  UNL1        0.0368
     12 C         -12.7918  -16.3004   22.3747 C.3     1  UNL1        0.0703
     13 N         -13.1852  -17.0160   23.6329 N.3     1  UNL1       -0.2974
     14 C         -12.6037  -18.3636   23.9423 C.3     1  UNL1        0.0703
     15 C         -11.6288  -18.9955   22.9936 C.3     1  UNL1        0.0368
     16 H         -14.1980  -17.1326   23.6009 H       1  UNL1        0.1232
     17 N          -4.4572  -20.3191   21.0064 N.pl3   1  UNL1       -0.1990
     18 H          -4.1601  -21.1464   21.4495 H       1  UNL1        0.2985
     19 N          -2.9872  -19.7844   18.9320 N.2     1  UNL1       -0.0985
     20 C          -3.4593  -19.4395   20.3133 C.2     1  UNL1        0.3224
     21 H          -3.3324  -20.5881   18.4802 H       1  UNL1        0.3633
     22 C          -2.9333  -18.2148   21.0016 C.ar    1  UNL1        0.1114
     23 C          -3.3353  -17.7269   22.3619 C.ar    1  UNL1        0.0144
     24 C          -2.5635  -16.4736   22.6516 C.ar    1  UNL1        0.0077
     25 C          -1.6846  -16.1871   21.4702 C.ar    1  UNL1        0.0357
     26 S          -1.9132  -17.2632   20.4506 S.2     1  UNL1       -0.0792
@<TRIPOS>BOND
     1    19    20    2
     2    20    17    1
     3    17     1    1
     4     1     2   ar
     5     2     3   ar
     6     3     4   ar
     7     4     5   ar
     8     5     6   ar
     9     5     7    1
    10     7     8    1
    11     8     9    1
    12     9    10    1
    13    10    11    1
    14    11    12    1
    15    12    13    1
    16    13    14    1
    17    14    15    1
    18    20    22    1
    19    22    23   ar
    20    23    24   ar
    21    24    25   ar
    22    25    26   ar
    23     6     1   ar
    24    15    10    1
    25    26    22   ar
    26     9     4    1
    27    19    21    1
    28    17    18    1
    29    13    16    1
@<TRIPOS>MOLECULE
*****
 26 29 0 0 0
SMALL
GASTEIGER

@<TRIPOS>ATOM
      1 C         -13.6737   -3.9883   19.8857 C.ar    1  UNL1        0.1354
      2 C         -13.4237   -5.4409   19.6077 C.ar    1  UNL1        0.0414
      3 C         -14.5785   -6.3697   19.3756 C.ar    1  UNL1        0.0177
      4 C         -15.9833   -5.8458   19.4215 C.ar    1  UNL1        0.0440
      5 C         -16.2333   -4.3932   19.6995 C.ar    1  UNL1       -0.0038
      6 C         -15.0785   -3.4644   19.9316 C.ar    1  UNL1        0.0372
      7 C         -17.7160   -4.1666   19.6832 C.3     1  UNL1        0.0491
      8 C         -18.3824   -5.4792   19.3951 C.3     1  UNL1        0.0954
      9 N         -17.3115   -6.5171   19.2334 N.pl3   1  UNL1       -0.3089
     10 C         -17.5304   -7.9708   18.9358 C.3     1  UNL1        0.0755
     11 C         -16.9127   -9.0176   19.8148 C.3     1  UNL1        0.0368
     12 C         -17.1316  -10.4714   19.5171 C.3     1  UNL1        0.0703
     13 N         -17.9681  -10.8784   18.3405 N.3     1  UNL1       -0.2974
     14 C         -18.5859   -9.8316   17.4614 C.3     1  UNL1        0.0703
     15 C         -18.3670   -8.3778   17.7591 C.3     1  UNL1        0.0368
     16 H         -18.7334  -11.4455   18.7054 H       1  UNL1        0.1232
     17 N         -12.5189   -3.0595   20.1178 N.pl3   1  UNL1       -0.1990
     18 H         -12.1746   -2.9205   21.0296 H       1  UNL1        0.2985
     19 N         -12.2774   -0.9265   18.6543 N.2     1  UNL1       -0.0985
     20 C         -11.8888   -2.3425   18.9607 C.2     1  UNL1        0.3224
     21 H         -12.9460   -0.4677   19.2126 H       1  UNL1        0.3633
     22 C         -10.8701   -3.0416   18.1100 C.ar    1  UNL1        0.1114
     23 C         -10.1145   -4.2832   18.4806 C.ar    1  UNL1        0.0144
     24 C          -9.2056   -4.6308   17.3390 C.ar    1  UNL1        0.0077
     25 C          -9.3995   -3.6038   16.2629 C.ar    1  UNL1        0.0357
     26 S         -10.4282   -2.6217   16.7395 S.2     1  UNL1       -0.0792
@<TRIPOS>BOND
     1    19    20    2
     2    20    17    1
     3    17     1    1
     4     1     2   ar
     5     2     3   ar
     6     3     4   ar
     7     4     5   ar
     8     5     6   ar
     9     5     7    1
    10     7     8    1
    11     8     9    1
    12     9    10    1
    13    10    11    1
    14    11    12    1
    15    12    13    1
    16    13    14    1
    17    14    15    1
    18    20    22    1
    19    22    23   ar
    20    23    24   ar
    21    24    25   ar
    22    25    26   ar
    23     6     1   ar
    24    15    10    1
    25    26    22   ar
    26     9     4    1
    27    19    21    1
    28    17    18    1
    29    13    16    1
@<TRIPOS>MOLECULE
*****
 26 29 0 0 0
SMALL
GASTEIGER

@<TRIPOS>ATOM
      1 C          -7.9799  -19.3573   21.0623 C.ar    1  UNL1        0.1354
      2 C          -7.1637  -19.4249   19.8056 C.ar    1  UNL1        0.0414
      3 C          -5.7169  -19.0296   19.8289 C.ar    1  UNL1        0.0177
      4 C          -5.0864  -18.5668   21.1088 C.ar    1  UNL1        0.0440
      5 C          -5.9026  -18.4992   22.3655 C.ar    1  UNL1       -0.0038
      6 C          -7.3494  -18.8945   22.3422 C.ar    1  UNL1        0.0372
      7 C          -5.0142  -18.0072   23.4693 C.3     1  UNL1        0.0491
      8 C          -3.6488  -17.7707   22.8949 C.3     1  UNL1        0.0954
      9 N          -3.6934  -18.1165   21.4360 N.pl3   1  UNL1       -0.3089
     10 C          -2.5465  -18.0277   20.4734 C.3     1  UNL1        0.0755
     11 C          -2.8100  -17.9272   19.0001 C.3     1  UNL1        0.0368
     12 C          -1.6631  -17.8384   18.0375 C.3     1  UNL1        0.0703
     13 N          -0.2527  -17.8501   18.5481 N.3     1  UNL1       -0.2974
     14 C           0.0108  -17.9506   20.0214 C.3     1  UNL1        0.0703
     15 C          -1.1362  -18.0394   20.9840 C.3     1  UNL1        0.0368
     16 H           0.1830  -16.9846   18.2295 H       1  UNL1        0.1232
     17 N          -9.4268  -19.7526   21.0390 N.pl3   1  UNL1       -0.1990
     18 H          -9.6782  -20.7031   21.0887 H       1  UNL1        0.2985
     19 N         -10.6153  -17.8746   19.6935 N.2     1  UNL1       -0.0985
     20 C         -10.4904  -18.6996   20.9400 C.2     1  UNL1        0.3224
     21 H          -9.9992  -18.0242   18.9404 H       1  UNL1        0.3633
     22 C         -11.4292  -18.4716   22.0875 C.ar    1  UNL1        0.1114
     23 C         -11.2723  -19.0158   23.4765 C.ar    1  UNL1        0.0144
     24 C         -12.4358  -18.5399   24.2950 C.ar    1  UNL1        0.0077
     25 C         -13.3118  -17.7017   23.4117 C.ar    1  UNL1        0.0357
     26 S         -12.6897  -17.6594   22.0475 S.2     1  UNL1       -0.0792
@<TRIPOS>BOND
     1    19    20    2
     2    20    17    1
     3    17     1    1
     4     1     2   ar
     5     2     3   ar
     6     3     4   ar
     7     4     5   ar
     8     5     6   ar
     9     5     7    1
    10     7     8    1
    11     8     9    1
    12     9    10    1
    13    10    11    1
    14    11    12    1
    15    12    13    1
    16    13    14    1
    17    14    15    1
    18    20    22    1
    19    22    23   ar
    20    23    24   ar
    21    24    25   ar
    22    25    26   ar
    23     6     1   ar
    24    15    10    1
    25    26    22   ar
    26     9     4    1
    27    19    21    1
    28    17    18    1
    29    13    16    1
@<TRIPOS>MOLECULE
*****
 26 29 0 0 0
SMALL
GASTEIGER

@<TRIPOS>ATOM
      1 C          -5.5832  -20.0045   20.9001 C.ar    1  UNL1        0.1354
      2 C          -6.2743  -18.9633   20.0704 C.ar    1  UNL1        0.0414
      3 C          -7.6647  -18.5248   20.4229 C.ar    1  UNL1        0.0177
      4 C          -8.3641  -19.1273   21.6052 C.ar    1  UNL1        0.0440
      5 C          -7.6730  -20.1684   22.4349 C.ar    1  UNL1       -0.0038
      6 C          -6.2826  -20.6070   22.0824 C.ar    1  UNL1        0.0372
      7 C          -8.6070  -20.5801   23.5341 C.3     1  UNL1        0.0491
      8 C          -9.8753  -19.7935   23.3837 C.3     1  UNL1        0.0954
      9 N          -9.7252  -18.8956   22.1916 N.pl3   1  UNL1       -0.3089
     10 C         -10.7552  -17.9346   21.6763 C.3     1  UNL1        0.0755
     11 C         -10.9313  -17.7449   20.1988 C.3     1  UNL1        0.0368
     12 C         -11.9614  -16.7840   19.6835 C.3     1  UNL1        0.0703
     13 N         -12.8154  -16.0128   20.6457 N.3     1  UNL1       -0.2974
     14 C         -12.6393  -16.2025   22.1232 C.3     1  UNL1        0.0703
     15 C         -11.6093  -17.1634   22.6385 C.3     1  UNL1        0.0368
     16 H         -13.7848  -16.2472   20.4322 H       1  UNL1        0.1232
     17 N          -4.1927  -20.4431   20.5475 N.pl3   1  UNL1       -0.1990
     18 H          -4.0550  -21.1532   19.8797 H       1  UNL1        0.2985
     19 N          -1.6908  -20.5091   21.2447 N.2     1  UNL1       -0.0985
     20 C          -3.0121  -19.7997   21.2125 C.2     1  UNL1        0.3224
     21 H          -1.5985  -21.3969   20.8293 H       1  UNL1        0.3633
     22 C          -3.1527  -18.4470   21.8453 C.ar    1  UNL1        0.1114
     23 C          -4.0165  -18.1109   23.0247 C.ar    1  UNL1        0.0144
     24 C          -3.8519  -16.6490   23.3181 C.ar    1  UNL1        0.0077
     25 C          -2.8865  -16.0818   22.3200 C.ar    1  UNL1        0.0357
     26 S          -2.4544  -17.1930   21.4098 S.2     1  UNL1       -0.0792
@<TRIPOS>BOND
     1    19    20    2
     2    20    17    1
     3    17     1    1
     4     1     2   ar
     5     2     3   ar
     6     3     4   ar
     7     4     5   ar
     8     5     6   ar
     9     5     7    1
    10     7     8    1
    11     8     9    1
    12     9    10    1
    13    10    11    1
    14    11    12    1
    15    12    13    1
    16    13    14    1
    17    14    15    1
    18    20    22    1
    19    22    23   ar
    20    23    24   ar
    21    24    25   ar
    22    25    26   ar
    23     6     1   ar
    24    15    10    1
    25    26    22   ar
    26     9     4    1
    27    19    21    1
    28    17    18    1
    29    13    16    1
@<TRIPOS>MOLECULE
*****
 26 29 0 0 0
SMALL
GASTEIGER

@<TRIPOS>ATOM
      1 C           6.3020   -2.1866   20.4690 C.ar    1  UNL1        0.1354
      2 C           5.5541   -2.4867   21.7341 C.ar    1  UNL1        0.0414
      3 C           6.0842   -3.5104   22.6938 C.ar    1  UNL1        0.0177
      4 C           7.3622   -4.2339   22.3884 C.ar    1  UNL1        0.0440
      5 C           8.1101   -3.9337   21.1233 C.ar    1  UNL1       -0.0038
      6 C           7.5800   -2.9101   20.1636 C.ar    1  UNL1        0.0372
      7 C           9.3340   -4.8004   21.0917 C.3     1  UNL1        0.0491
      8 C           9.3425   -5.6361   22.3373 C.3     1  UNL1        0.0954
      9 N           8.1239   -5.2861   23.1387 N.pl3   1  UNL1       -0.3089
     10 C           7.7351   -5.8832   24.4587 C.3     1  UNL1        0.0755
     11 C           7.9936   -7.3357   24.7300 C.3     1  UNL1        0.0368
     12 C           7.6048   -7.9328   26.0499 C.3     1  UNL1        0.0703
     13 N           6.9577   -7.0775   27.0985 N.3     1  UNL1       -0.2974
     14 C           6.6992   -5.6250   26.8273 C.3     1  UNL1        0.0703
     15 C           7.0880   -5.0280   25.5073 C.3     1  UNL1        0.0368
     16 H           7.5552   -7.1211   27.9240 H       1  UNL1        0.1232
     17 N           5.7719   -1.1629   19.5093 N.pl3   1  UNL1       -0.1990
     18 H           6.2038   -0.2807   19.4423 H       1  UNL1        0.2985
     19 N           4.7360   -2.3932   17.4689 N.2     1  UNL1       -0.0985
     20 C           4.5837   -1.4832   18.6516 C.2     1  UNL1        0.3224
     21 H           5.6157   -2.7802   17.2556 H       1  UNL1        0.3633
     22 C           3.2432   -0.8936   18.9766 C.ar    1  UNL1        0.1114
     23 C           2.3368   -1.3258   20.0909 C.ar    1  UNL1        0.0144
     24 C           1.1072   -0.4677   20.0474 C.ar    1  UNL1        0.0077
     25 C           1.2538    0.4948   18.9063 C.ar    1  UNL1        0.0357
     26 S           2.5740    0.2316   18.2445 S.2     1  UNL1       -0.0792
@<TRIPOS>BOND
     1    19    20    2
     2    20    17    1
     3    17     1    1
     4     1     2   ar
     5     2     3   ar
     6     3     4   ar
     7     4     5   ar
     8     5     6   ar
     9     5     7    1
    10     7     8    1
    11     8     9    1
    12     9    10    1
    13    10    11    1
    14    11    12    1
    15    12    13    1
    16    13    14    1
    17    14    15    1
    18    20    22    1
    19    22    23   ar
    20    23    24   ar
    21    24    25   ar
    22    25    26   ar
    23     6     1   ar
    24    15    10    1
    25    26    22   ar
    26     9     4    1
    27    19    21    1
    28    17    18    1
    29    13    16    1
@<TRIPOS>MOLECULE
*****
 26 29 0 0 0
SMALL
GASTEIGER

@<TRIPOS>ATOM
      1 C           5.1329   -2.8460   24.1278 C.ar    1  UNL1        0.1354
      2 C           4.3691   -1.5552   24.1445 C.ar    1  UNL1        0.0414
      3 C           3.6576   -1.0888   22.9091 C.ar    1  UNL1        0.0177
      4 C           3.7098   -1.9132   21.6571 C.ar    1  UNL1        0.0440
      5 C           4.4736   -3.2040   21.6404 C.ar    1  UNL1       -0.0038
      6 C           5.1851   -3.6704   22.8757 C.ar    1  UNL1        0.0372
      7 C           4.3476   -3.7995   20.2694 C.3     1  UNL1        0.0491
      8 C           3.5059   -2.8766   19.4388 C.3     1  UNL1        0.0954
      9 N           3.1117   -1.7108   20.2964 N.pl3   1  UNL1       -0.3089
     10 C           2.2676   -0.5470   19.8685 C.3     1  UNL1        0.0755
     11 C           2.7471    0.3673   18.7803 C.3     1  UNL1        0.0368
     12 C           1.9030    1.5311   18.3525 C.3     1  UNL1        0.0703
     13 N           0.5795    1.7806   19.0128 N.3     1  UNL1       -0.2974
     14 C           0.1000    0.8663   20.1011 C.3     1  UNL1        0.0703
     15 C           0.9441   -0.2975   20.5289 C.3     1  UNL1        0.0368
     16 H          -0.1260    1.7572   18.2765 H       1  UNL1        0.1232
     17 N           5.8445   -3.3125   25.3631 N.pl3   1  UNL1       -0.1990
     18 H           5.4050   -3.2406   26.2411 H       1  UNL1        0.2985
     19 N           8.4032   -2.9817   25.0570 N.2     1  UNL1       -0.0985
     20 C           7.2257   -3.8884   25.2607 C.2     1  UNL1        0.3224
     21 H           8.2694   -2.0086   24.9905 H       1  UNL1        0.3633
     22 C           7.4295   -5.3711   25.3621 C.ar    1  UNL1        0.1114
     23 C           8.1021   -6.2403   24.3412 C.ar    1  UNL1        0.0144
     24 C           8.0848   -7.6513   24.8502 C.ar    1  UNL1        0.0077
     25 C           7.4016   -7.6539   26.1857 C.ar    1  UNL1        0.0357
     26 S           6.9966   -6.2447   26.5020 S.2     1  UNL1       -0.0792
@<TRIPOS>BOND
     1    19    20    2
     2    20    17    1
     3    17     1    1
     4     1     2   ar
     5     2     3   ar
     6     3     4   ar
     7     4     5   ar
     8     5     6   ar
     9     5     7    1
    10     7     8    1
    11     8     9    1
    12     9    10    1
    13    10    11    1
    14    11    12    1
    15    12    13    1
    16    13    14    1
    17    14    15    1
    18    20    22    1
    19    22    23   ar
    20    23    24   ar
    21    24    25   ar
    22    25    26   ar
    23     6     1   ar
    24    15    10    1
    25    26    22   ar
    26     9     4    1
    27    19    21    1
    28    17    18    1
    29    13    16    1
@<TRIPOS>MOLECULE
*****
 26 29 0 0 0
SMALL
GASTEIGER

@<TRIPOS>ATOM
      1 C          -5.1761  -16.8972   22.8083 C.ar    1  UNL1        0.1354
      2 C          -6.3175  -15.9999   23.1851 C.ar    1  UNL1        0.0414
      3 C          -7.7194  -16.5332   23.1936 C.ar    1  UNL1        0.0177
      4 C          -7.9799  -17.9638   22.8253 C.ar    1  UNL1        0.0440
      5 C          -6.8385  -18.8611   22.4485 C.ar    1  UNL1       -0.0038
      6 C          -5.4366  -18.3277   22.4400 C.ar    1  UNL1        0.0372
      7 C          -7.3987  -20.2166   22.1345 C.3     1  UNL1        0.0491
      8 C          -8.8863  -20.1572   22.3173 C.3     1  UNL1        0.0954
      9 N          -9.2456  -18.7649   22.7442 N.pl3   1  UNL1       -0.3089
     10 C         -10.6278  -18.2619   23.0384 C.3     1  UNL1        0.0755
     11 C         -11.1621  -17.0659   22.3075 C.3     1  UNL1        0.0368
     12 C         -12.5442  -16.5630   22.6017 C.3     1  UNL1        0.0703
     13 N         -13.3921  -17.2559   23.6268 N.3     1  UNL1       -0.2974
     14 C         -12.8578  -18.4519   24.3577 C.3     1  UNL1        0.0703
     15 C         -11.4757  -18.9548   24.0635 C.3     1  UNL1        0.0368
     16 H         -14.2423  -17.5574   23.1507 H       1  UNL1        0.1232
     17 N          -3.7740  -16.3639   22.7998 N.pl3   1  UNL1       -0.1990
     18 H          -3.6083  -15.4121   22.9889 H       1  UNL1        0.2985
     19 N          -1.9035  -17.9668   23.6254 N.2     1  UNL1       -0.0985
     20 C          -2.6246  -17.2808   22.5031 C.2     1  UNL1        0.3224
     21 H          -2.1846  -17.8152   24.5566 H       1  UNL1        0.3633
     22 C          -2.1963  -17.5118   21.0842 C.ar    1  UNL1        0.1114
     23 C          -3.1028  -17.8127   19.9276 C.ar    1  UNL1        0.0144
     24 C          -2.2531  -17.9693   18.7013 C.ar    1  UNL1        0.0077
     25 C          -0.8215  -17.7653   19.1002 C.ar    1  UNL1        0.0357
     26 S          -0.7865  -17.4826   20.5729 S.2     1  UNL1       -0.0792
@<TRIPOS>BOND
     1    19    20    2
     2    20    17    1
     3    17     1    1
     4     1     2   ar
     5     2     3   ar
     6     3     4   ar
     7     4     5   ar
     8     5     6   ar
     9     5     7    1
    10     7     8    1
    11     8     9    1
    12     9    10    1
    13    10    11    1
    14    11    12    1
    15    12    13    1
    16    13    14    1
    17    14    15    1
    18    20    22    1
    19    22    23   ar
    20    23    24   ar
    21    24    25   ar
    22    25    26   ar
    23     6     1   ar
    24    15    10    1
    25    26    22   ar
    26     9     4    1
    27    19    21    1
    28    17    18    1
    29    13    16    1
