@<TRIPOS>MOLECULE
*****
 30 33 0 0 0
SMALL
GASTEIGER

@<TRIPOS>ATOM
      1 C           7.0266   -2.9279   32.0474 C.ar    1  UNL1        0.1105
      2 C           5.6078   -2.9755   32.5317 C.ar    1  UNL1        0.0200
      3 C           5.1094   -1.9405   33.4961 C.ar    1  UNL1        0.0160
      4 C           6.0299   -0.8578   33.9763 C.ar    1  UNL1        0.0504
      5 C           7.4487   -0.8102   33.4920 C.ar    1  UNL1        0.0160
      6 C           7.9471   -1.8453   32.5276 C.ar    1  UNL1        0.0200
      7 N           5.5315    0.1773   34.9408 N.am    1  UNL1       -0.2839
      8 C           5.9906    0.1548   36.3686 C.2     1  UNL1        0.2260
      9 O           6.9481   -0.9027   36.8320 O.2     1  UNL1       -0.2748
     10 H           4.9030    0.8714   34.6367 H       1  UNL1        0.1549
     11 C           5.4921    1.1899   37.3331 C.3     1  UNL1        0.0812
     12 C           5.7571    2.3549   38.2401 C.3     1  UNL1        0.0143
     13 C           4.3640    1.8177   38.0967 C.3     1  UNL1        0.0330
     14 C           2.9083    1.8699   38.4548 C.ar    1  UNL1       -0.0029
     15 C           2.2719    0.7197   39.1772 C.ar    1  UNL1       -0.0011
     16 C           0.8162    0.7719   39.5353 C.ar    1  UNL1        0.0204
     17 C          -0.0031    1.9745   39.1710 C.ar    1  UNL1        0.0989
     18 N           0.6333    3.1248   38.4486 N.ar    1  UNL1       -0.2426
     19 C           2.0891    3.0725   38.0905 C.ar    1  UNL1        0.0946
     20 S           7.5251   -3.9630   31.0829 S.O2    1  UNL1        0.0305
     21 O           6.8735   -5.0387   31.9004 O.2     1  UNL1       -0.1641
     22 O           8.1766   -2.8874   30.2653 O.2     1  UNL1       -0.1641
     23 N           8.6929   -6.1095   28.0672 N.ar    1  UNL1       -0.2481
     24 C           8.1585   -4.8278   28.6342 C.ar    1  UNL1        0.1154
     25 C           8.0235   -4.9980   30.1184 C.ar    1  UNL1        0.1497
     26 C           8.4745   -6.3851   30.4687 C.ar    1  UNL1        0.1404
     27 N           8.8882   -7.0720   29.2011 N.ar    1  UNL1       -0.1662
     28 C           8.9814   -6.3812   26.6205 C.3     1  UNL1        0.1276
     29 C           8.2276   -7.5028   24.4016 C.3     1  UNL1        0.0021
     30 C           8.2456   -7.4726   25.9011 C.3     1  UNL1        0.0264
@<TRIPOS>BOND
     1    29    30    1
     2    30    28    1
     3    28    23    1
     4    23    24   ar
     5    24    25   ar
     6    25    20    1
     7    20    21    2
     8    20    22    2
     9    20     1    1
    10     1     2   ar
    11     2     3   ar
    12     3     4   ar
    13     4     7    1
    14     7     8   am
    15     8     9    2
    16    11     8    1
    17    11    12    1
    18    12    13    1
    19    13    14    1
    20    14    15   ar
    21    15    16   ar
    22    16    17   ar
    23    17    18   ar
    24    18    19   ar
    25     4     5   ar
    26     5     6   ar
    27    25    26   ar
    28    26    27   ar
    29    27    23   ar
    30     6     1   ar
    31    13    11    1
    32    19    14   ar
    33     7    10    1
@<TRIPOS>MOLECULE
*****
 30 33 0 0 0
SMALL
GASTEIGER

@<TRIPOS>ATOM
      1 C           3.9953   -1.6410   20.1230 C.ar    1  UNL1        0.1105
      2 C           4.2369   -1.0273   18.7758 C.ar    1  UNL1        0.0200
      3 C           3.2001   -0.1340   18.1619 C.ar    1  UNL1        0.0160
      4 C           1.9217    0.1456   18.8951 C.ar    1  UNL1        0.0504
      5 C           1.6802   -0.4681   20.2422 C.ar    1  UNL1        0.0160
      6 C           2.7170   -1.3614   20.8562 C.ar    1  UNL1        0.0200
      7 N           0.8849    1.0389   18.2810 N.am    1  UNL1       -0.2839
      8 C           0.8188    2.4869   18.6670 C.2     1  UNL1        0.2260
      9 O           1.7895    3.0416   19.6670 O.2     1  UNL1       -0.2748
     10 H           0.2478    0.6749   17.6247 H       1  UNL1        0.1549
     11 C          -0.2180    3.3802   18.0530 C.3     1  UNL1        0.0812
     12 C          -0.5976    4.4381   17.0597 C.3     1  UNL1        0.0143
     13 C          -1.6342    3.8696   17.9827 C.3     1  UNL1        0.0330
     14 C          -3.0503    3.8238   18.4751 C.ar    1  UNL1       -0.0029
     15 C          -4.1852    4.0217   17.5145 C.ar    1  UNL1       -0.0011
     16 C          -5.6013    3.9760   18.0069 C.ar    1  UNL1        0.0204
     17 C          -5.8826    3.7323   19.4600 C.ar    1  UNL1        0.0989
     18 N          -4.7477    3.5344   20.4207 N.ar    1  UNL1       -0.2426
     19 C          -3.3316    3.5802   19.9282 C.ar    1  UNL1        0.0946
     20 S           5.0322   -2.5344   20.7371 S.O2    1  UNL1        0.0305
     21 O           5.8912   -2.3756   19.5177 O.2     1  UNL1       -0.1641
     22 O           4.1732   -2.6932   21.9564 O.2     1  UNL1       -0.1641
     23 N           7.3281   -4.7342   22.9630 N.ar    1  UNL1       -0.2481
     24 C           6.1343   -3.8425   22.7911 C.ar    1  UNL1        0.1154
     25 C           6.0689   -3.4277   21.3511 C.ar    1  UNL1        0.1497
     26 C           7.2224   -4.0630   20.6329 C.ar    1  UNL1        0.1404
     27 N           8.0006   -4.8705   21.6291 N.ar    1  UNL1       -0.1662
     28 C           7.7716   -5.3768   24.2438 C.3     1  UNL1        0.1276
     29 C           9.2468   -7.4553   23.7403 C.3     1  UNL1        0.0021
     30 C           7.9902   -6.8596   24.3025 C.3     1  UNL1        0.0264
@<TRIPOS>BOND
     1    29    30    1
     2    30    28    1
     3    28    23    1
     4    23    24   ar
     5    24    25   ar
     6    25    20    1
     7    20    21    2
     8    20    22    2
     9    20     1    1
    10     1     2   ar
    11     2     3   ar
    12     3     4   ar
    13     4     7    1
    14     7     8   am
    15     8     9    2
    16    11     8    1
    17    11    12    1
    18    12    13    1
    19    13    14    1
    20    14    15   ar
    21    15    16   ar
    22    16    17   ar
    23    17    18   ar
    24    18    19   ar
    25     4     5   ar
    26     5     6   ar
    27    25    26   ar
    28    26    27   ar
    29    27    23   ar
    30     6     1   ar
    31    13    11    1
    32    19    14   ar
    33     7    10    1
@<TRIPOS>MOLECULE
*****
 30 33 0 0 0
SMALL
GASTEIGER

@<TRIPOS>ATOM
      1 C           3.5434    0.1501   30.5867 C.ar    1  UNL1        0.1105
      2 C           2.3314   -0.5508   30.0486 C.ar    1  UNL1        0.0200
      3 C           2.0255   -0.4999   28.5810 C.ar    1  UNL1        0.0160
      4 C           2.9315    0.2520   27.6516 C.ar    1  UNL1        0.0504
      5 C           4.1435    0.9530   28.1898 C.ar    1  UNL1        0.0160
      6 C           4.4495    0.9020   29.6573 C.ar    1  UNL1        0.0200
      7 N           2.6255    0.3029   26.1840 N.am    1  UNL1       -0.2839
      8 C           3.3463   -0.6085   25.2355 C.2     1  UNL1        0.2260
      9 O           4.3732   -1.5709   25.7546 O.2     1  UNL1       -0.2748
     10 H           1.9515    0.9345   25.8433 H       1  UNL1        0.1549
     11 C           3.0403   -0.5576   23.7679 C.3     1  UNL1        0.0812
     12 C           2.3710    0.1092   22.6029 C.3     1  UNL1        0.0143
     13 C           3.1795   -1.1363   22.3911 C.3     1  UNL1        0.0330
     14 C           3.7267   -2.1895   21.4739 C.ar    1  UNL1       -0.0029
     15 C           3.3760   -2.1700   20.0156 C.ar    1  UNL1       -0.0011
     16 C           3.9231   -3.2232   19.0984 C.ar    1  UNL1        0.0204
     17 C           4.8211   -4.2961   19.6395 C.ar    1  UNL1        0.0989
     18 N           5.1718   -4.3156   21.0978 N.ar    1  UNL1       -0.2426
     19 C           4.6246   -3.2623   22.0150 C.ar    1  UNL1        0.0946
     20 S           3.8495    0.0992   32.0544 S.O2    1  UNL1        0.0305
     21 O           4.3376    1.5166   32.0018 O.2     1  UNL1       -0.1641
     22 O           3.3613   -1.3181   32.1069 O.2     1  UNL1       -0.1641
     23 N           4.2641    0.6193   35.8784 N.ar    1  UNL1       -0.2481
     24 C           3.7492    1.0690   34.5432 C.ar    1  UNL1        0.1154
     25 C           4.1555    0.0483   33.5219 C.ar    1  UNL1        0.1497
     26 C           4.9214   -1.0323   34.2258 C.ar    1  UNL1        0.1404
     27 N           4.9886   -0.6795   35.6822 N.ar    1  UNL1       -0.1662
     28 C           4.0858    1.3414   37.1809 C.3     1  UNL1        0.1276
     29 C           2.1367    0.9091   38.8435 C.3     1  UNL1        0.0021
     30 C           2.7074    1.6618   37.6783 C.3     1  UNL1        0.0264
@<TRIPOS>BOND
     1    29    30    1
     2    30    28    1
     3    28    23    1
     4    23    24   ar
     5    24    25   ar
     6    25    20    1
     7    20    21    2
     8    20    22    2
     9    20     1    1
    10     1     2   ar
    11     2     3   ar
    12     3     4   ar
    13     4     7    1
    14     7     8   am
    15     8     9    2
    16    11     8    1
    17    11    12    1
    18    12    13    1
    19    13    14    1
    20    14    15   ar
    21    15    16   ar
    22    16    17   ar
    23    17    18   ar
    24    18    19   ar
    25     4     5   ar
    26     5     6   ar
    27    25    26   ar
    28    26    27   ar
    29    27    23   ar
    30     6     1   ar
    31    13    11    1
    32    19    14   ar
    33     7    10    1
@<TRIPOS>MOLECULE
*****
 30 33 0 0 0
SMALL
GASTEIGER

@<TRIPOS>ATOM
      1 C           3.2581    0.1444   30.3590 C.ar    1  UNL1        0.1105
      2 C           4.6211   -0.2066   29.8404 C.ar    1  UNL1        0.0200
      3 C           4.7707   -0.8205   28.4800 C.ar    1  UNL1        0.0160
      4 C           3.5573   -1.0834   27.6382 C.ar    1  UNL1        0.0504
      5 C           2.1943   -0.7323   28.1568 C.ar    1  UNL1        0.0160
      6 C           2.0447   -0.1185   29.5172 C.ar    1  UNL1        0.0200
      7 N           3.7069   -1.6973   26.2777 N.am    1  UNL1       -0.2839
      8 C           3.6953   -0.8264   25.0565 C.2     1  UNL1        0.2260
      9 O           3.5341    0.6584   25.1957 O.2     1  UNL1       -0.2748
     10 H           3.8128   -2.6718   26.1864 H       1  UNL1        0.1549
     11 C           3.8450   -1.4403   23.6960 C.3     1  UNL1        0.0812
     12 C           4.3432   -2.5511   22.8198 C.3     1  UNL1        0.0143
     13 C           3.6059   -1.3928   22.2160 C.3     1  UNL1        0.0330
     14 C           3.0422   -0.6966   21.0129 C.ar    1  UNL1       -0.0029
     15 C           1.5575   -0.5483   20.8593 C.ar    1  UNL1       -0.0011
     16 C           0.9938    0.1479   19.6562 C.ar    1  UNL1        0.0204
     17 C           1.9148    0.6958   18.6066 C.ar    1  UNL1        0.0989
     18 N           3.3995    0.5475   18.7602 N.ar    1  UNL1       -0.2426
     19 C           3.9632   -0.1488   19.9634 C.ar    1  UNL1        0.0946
     20 S           3.1085    0.7583   31.7195 S.O2    1  UNL1        0.0305
     21 O           1.6678    1.0559   31.4268 O.2     1  UNL1       -0.1641
     22 O           4.5492    0.4607   32.0121 O.2     1  UNL1       -0.1641
     23 N           3.3365    1.9453   35.4079 N.ar    1  UNL1       -0.2481
     24 C           3.8544    1.1318   34.2590 C.ar    1  UNL1        0.1154
     25 C           2.9589    1.3722   33.0799 C.ar    1  UNL1        0.1497
     26 C           1.8875    2.3342   33.5000 C.ar    1  UNL1        0.1404
     27 N           2.1209    2.6884   34.9388 N.ar    1  UNL1       -0.1662
     28 C           3.9300    2.0051   36.7842 C.3     1  UNL1        0.1276
     29 C           2.2310    1.2560   38.6013 C.3     1  UNL1        0.0021
     30 C           3.4967    1.0222   37.8312 C.3     1  UNL1        0.0264
@<TRIPOS>BOND
     1    29    30    1
     2    30    28    1
     3    28    23    1
     4    23    24   ar
     5    24    25   ar
     6    25    20    1
     7    20    21    2
     8    20    22    2
     9    20     1    1
    10     1     2   ar
    11     2     3   ar
    12     3     4   ar
    13     4     7    1
    14     7     8   am
    15     8     9    2
    16    11     8    1
    17    11    12    1
    18    12    13    1
    19    13    14    1
    20    14    15   ar
    21    15    16   ar
    22    16    17   ar
    23    17    18   ar
    24    18    19   ar
    25     4     5   ar
    26     5     6   ar
    27    25    26   ar
    28    26    27   ar
    29    27    23   ar
    30     6     1   ar
    31    13    11    1
    32    19    14   ar
    33     7    10    1
@<TRIPOS>MOLECULE
*****
 30 33 0 0 0
SMALL
GASTEIGER

@<TRIPOS>ATOM
      1 C           3.7311   -1.8816   21.4224 C.ar    1  UNL1        0.1105
      2 C           3.3033   -0.9755   22.5386 C.ar    1  UNL1        0.0200
      3 C           2.0878   -0.1112   22.3789 C.ar    1  UNL1        0.0160
      4 C           1.3002   -0.1531   21.1030 C.ar    1  UNL1        0.0504
      5 C           1.7280   -1.0592   19.9869 C.ar    1  UNL1        0.0160
      6 C           2.9434   -1.9235   20.1466 C.ar    1  UNL1        0.0200
      7 N           0.0846    0.7113   20.9433 N.am    1  UNL1       -0.2839
      8 C           0.2204    2.1041   20.4032 C.2     1  UNL1        0.2260
      9 O           1.5717    2.6325   20.0228 O.2     1  UNL1       -0.2748
     10 H          -0.8023    0.3645   21.1930 H       1  UNL1        0.1549
     11 C          -0.9951    2.9684   20.2436 C.3     1  UNL1        0.0812
     12 C          -1.8138    3.9198   19.4222 C.3     1  UNL1        0.0143
     13 C          -2.2818    3.5141   20.7883 C.3     1  UNL1        0.0330
     14 C          -3.2948    3.5949   21.8916 C.ar    1  UNL1       -0.0029
     15 C          -2.8440    3.7493   23.3139 C.ar    1  UNL1       -0.0011
     16 C          -3.8571    3.8301   24.4171 C.ar    1  UNL1        0.0204
     17 C          -5.3210    3.7564   24.0981 C.ar    1  UNL1        0.0989
     18 N          -5.7717    3.6020   22.6758 N.ar    1  UNL1       -0.2426
     19 C          -4.7586    3.5212   21.5725 C.ar    1  UNL1        0.0946
     20 S           4.9467   -2.7460   21.5821 S.O2    1  UNL1        0.0305
     21 O           5.6616   -1.9324   20.5444 O.2     1  UNL1       -0.1641
     22 O           4.2318   -3.5596   22.6199 O.2     1  UNL1       -0.1641
     23 N           7.9050   -4.9835   22.7254 N.ar    1  UNL1       -0.2481
     24 C           6.6702   -4.1881   23.0295 C.ar    1  UNL1        0.1154
     25 C           6.1621   -3.6103   21.7418 C.ar    1  UNL1        0.1497
     26 C           7.0829   -4.0487   20.6419 C.ar    1  UNL1        0.1404
     27 N           8.1601   -4.8974   21.2498 N.ar    1  UNL1       -0.1662
     28 C           8.7384   -5.7334   23.7220 C.3     1  UNL1        0.1276
     29 C           8.0275   -7.7055   25.2568 C.3     1  UNL1        0.0021
     30 C           8.5166   -7.2021   23.9311 C.3     1  UNL1        0.0264
@<TRIPOS>BOND
     1    29    30    1
     2    30    28    1
     3    28    23    1
     4    23    24   ar
     5    24    25   ar
     6    25    20    1
     7    20    21    2
     8    20    22    2
     9    20     1    1
    10     1     2   ar
    11     2     3   ar
    12     3     4   ar
    13     4     7    1
    14     7     8   am
    15     8     9    2
    16    11     8    1
    17    11    12    1
    18    12    13    1
    19    13    14    1
    20    14    15   ar
    21    15    16   ar
    22    16    17   ar
    23    17    18   ar
    24    18    19   ar
    25     4     5   ar
    26     5     6   ar
    27    25    26   ar
    28    26    27   ar
    29    27    23   ar
    30     6     1   ar
    31    13    11    1
    32    19    14   ar
    33     7    10    1
@<TRIPOS>MOLECULE
*****
 30 33 0 0 0
SMALL
GASTEIGER

@<TRIPOS>ATOM
      1 C           0.9077    1.5811   19.5184 C.ar    1  UNL1        0.1105
      2 C           0.3289    2.5843   18.5653 C.ar    1  UNL1        0.0200
      3 C          -0.6954    3.5697   19.0445 C.ar    1  UNL1        0.0160
      4 C          -1.1409    3.5520   20.4767 C.ar    1  UNL1        0.0504
      5 C          -0.5620    2.5487   21.4298 C.ar    1  UNL1        0.0160
      6 C           0.4623    1.5633   20.9506 C.ar    1  UNL1        0.0200
      7 N          -2.1652    4.5375   20.9558 N.am    1  UNL1       -0.2839
      8 C          -3.5714    4.0882   21.2218 C.2     1  UNL1        0.2260
      9 O          -3.9533    2.6534   21.0086 O.2     1  UNL1       -0.2748
     10 H          -1.9146    5.4792   21.0957 H       1  UNL1        0.1549
     11 C          -4.5958    5.0737   21.7009 C.3     1  UNL1        0.0812
     12 C          -5.5845    6.1640   21.4114 C.3     1  UNL1        0.0143
     13 C          -5.3813    5.6904   22.8201 C.3     1  UNL1        0.0330
     14 C          -5.7174    5.7730   24.2796 C.ar    1  UNL1       -0.0029
     15 C          -4.6861    5.4148   25.3082 C.ar    1  UNL1       -0.0011
     16 C          -5.0223    5.4974   26.7677 C.ar    1  UNL1        0.0204
     17 C          -6.3898    5.9383   27.1986 C.ar    1  UNL1        0.0989
     18 N          -7.4211    6.2965   26.1700 N.ar    1  UNL1       -0.2426
     19 C          -7.0849    6.2139   24.7104 C.ar    1  UNL1        0.0946
     20 S           1.9321    0.5955   19.0393 S.O2    1  UNL1        0.0305
     21 O           1.2068   -0.5059   19.7539 O.2     1  UNL1       -0.1641
     22 O           2.6574    1.6969   18.3247 O.2     1  UNL1       -0.1641
     23 N           4.4849   -2.2734   18.4753 N.ar    1  UNL1       -0.2481
     24 C           3.4811   -1.5629   19.3341 C.ar    1  UNL1        0.1154
     25 C           2.9564   -0.3899   18.5602 C.ar    1  UNL1        0.1497
     26 C           3.6360   -0.3754   17.2231 C.ar    1  UNL1        0.1404
     27 N           4.5806   -1.5394   17.1705 N.ar    1  UNL1       -0.1662
     28 C           5.2573   -3.5020   18.8545 C.3     1  UNL1        0.1276
     29 C           3.4651   -5.2041   19.6549 C.3     1  UNL1        0.0021
     30 C           4.6132   -4.8531   18.7558 C.3     1  UNL1        0.0264
@<TRIPOS>BOND
     1    29    30    1
     2    30    28    1
     3    28    23    1
     4    23    24   ar
     5    24    25   ar
     6    25    20    1
     7    20    21    2
     8    20    22    2
     9    20     1    1
    10     1     2   ar
    11     2     3   ar
    12     3     4   ar
    13     4     7    1
    14     7     8   am
    15     8     9    2
    16    11     8    1
    17    11    12    1
    18    12    13    1
    19    13    14    1
    20    14    15   ar
    21    15    16   ar
    22    16    17   ar
    23    17    18   ar
    24    18    19   ar
    25     4     5   ar
    26     5     6   ar
    27    25    26   ar
    28    26    27   ar
    29    27    23   ar
    30     6     1   ar
    31    13    11    1
    32    19    14   ar
    33     7    10    1
@<TRIPOS>MOLECULE
*****
 30 33 0 0 0
SMALL
GASTEIGER

@<TRIPOS>ATOM
      1 C           2.2746   -0.3792   20.6025 C.ar    1  UNL1        0.1105
      2 C           2.8292   -1.3183   19.5729 C.ar    1  UNL1        0.0200
      3 C           3.7929   -2.3932   19.9799 C.ar    1  UNL1        0.0160
      4 C           4.2020   -2.5290   21.4167 C.ar    1  UNL1        0.0504
      5 C           3.6474   -1.5898   22.4463 C.ar    1  UNL1        0.0160
      6 C           2.6837   -0.5149   22.0393 C.ar    1  UNL1        0.0200
      7 N           5.1658   -3.6040   21.8237 N.am    1  UNL1       -0.2839
      8 C           6.6430   -3.3679   21.7134 C.2     1  UNL1        0.2260
      9 O           7.1564   -2.0569   21.1961 O.2     1  UNL1       -0.2748
     10 H           4.8288   -4.4645   22.1632 H       1  UNL1        0.1549
     11 C           7.6067   -4.4429   22.1204 C.3     1  UNL1        0.0812
     12 C           8.7890   -5.3127   21.8112 C.3     1  UNL1        0.0143
     13 C           8.0937   -5.4351   23.1346 C.3     1  UNL1        0.0330
     14 C           7.9734   -6.0785   24.4842 C.ar    1  UNL1       -0.0029
     15 C           8.5256   -7.4546   24.7110 C.ar    1  UNL1       -0.0011
     16 C           8.4052   -8.0980   26.0606 C.ar    1  UNL1        0.0204
     17 C           7.7326   -7.3654   27.1835 C.ar    1  UNL1        0.0989
     18 N           7.1804   -5.9893   26.9567 N.ar    1  UNL1       -0.2426
     19 C           7.3008   -5.3458   25.6070 C.ar    1  UNL1        0.0946
     20 S           1.3108    0.6958   20.1955 S.O2    1  UNL1        0.0305
     21 O           1.1485    1.0945   21.6324 O.2     1  UNL1       -0.1641
     22 O           1.4731    0.2972   18.7586 O.2     1  UNL1       -0.1641
     23 N          -1.4995    3.3456   19.8133 N.ar    1  UNL1       -0.2481
     24 C          -0.8076    2.2742   20.6028 C.ar    1  UNL1        0.1154
     25 C           0.3471    1.7707   19.7885 C.ar    1  UNL1        0.1497
     26 C           0.3688    2.5309   18.4956 C.ar    1  UNL1        0.1404
     27 N          -0.7724    3.5042   18.5108 N.ar    1  UNL1       -0.1662
     28 C          -2.7066    4.1220   20.2494 C.3     1  UNL1        0.1276
     29 C          -4.6858    3.0427   21.5409 C.3     1  UNL1        0.0021
     30 C          -4.0580    3.4710   20.2477 C.3     1  UNL1        0.0264
@<TRIPOS>BOND
     1    29    30    1
     2    30    28    1
     3    28    23    1
     4    23    24   ar
     5    24    25   ar
     6    25    20    1
     7    20    21    2
     8    20    22    2
     9    20     1    1
    10     1     2   ar
    11     2     3   ar
    12     3     4   ar
    13     4     7    1
    14     7     8   am
    15     8     9    2
    16    11     8    1
    17    11    12    1
    18    12    13    1
    19    13    14    1
    20    14    15   ar
    21    15    16   ar
    22    16    17   ar
    23    17    18   ar
    24    18    19   ar
    25     4     5   ar
    26     5     6   ar
    27    25    26   ar
    28    26    27   ar
    29    27    23   ar
    30     6     1   ar
    31    13    11    1
    32    19    14   ar
    33     7    10    1
@<TRIPOS>MOLECULE
*****
 30 33 0 0 0
SMALL
GASTEIGER

@<TRIPOS>ATOM
      1 C           1.0095    1.4796   29.4654 C.ar    1  UNL1        0.1105
      2 C          -0.0964    0.6523   28.8802 C.ar    1  UNL1        0.0200
      3 C          -0.9835    1.2301   27.8176 C.ar    1  UNL1        0.0160
      4 C          -0.7647    2.6351   27.3401 C.ar    1  UNL1        0.0504
      5 C           0.3412    3.4624   27.9253 C.ar    1  UNL1        0.0160
      6 C           1.2283    2.8847   28.9879 C.ar    1  UNL1        0.0200
      7 N          -1.6518    3.2128   26.2774 N.am    1  UNL1       -0.2839
      8 C          -1.3451    2.9682   24.8297 C.2     1  UNL1        0.2260
      9 O          -0.1512    2.1459   24.4445 O.2     1  UNL1       -0.2748
     10 H          -2.4355    3.7526   26.5302 H       1  UNL1        0.1549
     11 C          -2.2323    3.5460   23.7670 C.3     1  UNL1        0.0812
     12 C          -2.4335    4.0158   22.3568 C.3     1  UNL1        0.0143
     13 C          -3.5676    4.0768   23.3366 C.3     1  UNL1        0.0330
     14 C          -4.9932    4.4184   23.6539 C.ar    1  UNL1       -0.0029
     15 C          -6.0916    3.9881   22.7274 C.ar    1  UNL1       -0.0011
     16 C          -7.5173    4.3298   23.0447 C.ar    1  UNL1        0.0204
     17 C          -7.8446    5.1017   24.2885 C.ar    1  UNL1        0.0989
     18 N          -6.7462    5.5320   25.2150 N.ar    1  UNL1       -0.2426
     19 C          -5.3205    5.1903   24.8976 C.ar    1  UNL1        0.0946
     20 S           1.8967    0.9019   30.5280 S.O2    1  UNL1        0.0305
     21 O           1.4718   -0.4808   30.1312 O.2     1  UNL1       -0.1641
     22 O           2.3216    2.2846   30.9249 O.2     1  UNL1       -0.1641
     23 N           4.2906   -1.1557   32.7865 N.ar    1  UNL1       -0.2481
     24 C           3.5343   -0.9716   31.5043 C.ar    1  UNL1        0.1154
     25 C           2.7838    0.3243   31.5907 C.ar    1  UNL1        0.1497
     26 C           3.0763    0.9411   32.9263 C.ar    1  UNL1        0.1404
     27 N           4.0075    0.0264   33.6654 N.ar    1  UNL1       -0.1662
     28 C           5.1747   -2.3179   33.1296 C.3     1  UNL1        0.1276
     29 C           6.6904   -4.0884   31.9817 C.3     1  UNL1        0.0021
     30 C           6.3449   -2.6543   32.2536 C.3     1  UNL1        0.0264
@<TRIPOS>BOND
     1    29    30    1
     2    30    28    1
     3    28    23    1
     4    23    24   ar
     5    24    25   ar
     6    25    20    1
     7    20    21    2
     8    20    22    2
     9    20     1    1
    10     1     2   ar
    11     2     3   ar
    12     3     4   ar
    13     4     7    1
    14     7     8   am
    15     8     9    2
    16    11     8    1
    17    11    12    1
    18    12    13    1
    19    13    14    1
    20    14    15   ar
    21    15    16   ar
    22    16    17   ar
    23    17    18   ar
    24    18    19   ar
    25     4     5   ar
    26     5     6   ar
    27    25    26   ar
    28    26    27   ar
    29    27    23   ar
    30     6     1   ar
    31    13    11    1
    32    19    14   ar
    33     7    10    1
@<TRIPOS>MOLECULE
*****
 30 33 0 0 0
SMALL
GASTEIGER

@<TRIPOS>ATOM
      1 C           2.8307    0.5388   30.7397 C.ar    1  UNL1        0.1105
      2 C           4.1791   -0.0471   30.4423 C.ar    1  UNL1        0.0200
      3 C           4.4082   -0.7882   29.1584 C.ar    1  UNL1        0.0160
      4 C           3.2888   -0.9433   28.1720 C.ar    1  UNL1        0.0504
      5 C           1.9405   -0.3574   28.4694 C.ar    1  UNL1        0.0160
      6 C           1.7114    0.3837   29.7533 C.ar    1  UNL1        0.0200
      7 N           3.5179   -1.6844   26.8881 N.am    1  UNL1       -0.2839
      8 C           4.0402   -0.9566   25.6850 C.2     1  UNL1        0.2260
      9 O           4.3334    0.5122   25.7657 O.2     1  UNL1       -0.2748
     10 H           3.3255   -2.6484   26.8351 H       1  UNL1        0.1549
     11 C           4.2693   -1.6977   24.4010 C.3     1  UNL1        0.0812
     12 C           3.8984   -1.9676   22.9730 C.3     1  UNL1        0.0143
     13 C           5.0371   -2.7114   23.6054 C.3     1  UNL1        0.0330
     14 C           6.1378   -3.7260   23.5112 C.ar    1  UNL1       -0.0029
     15 C           6.6104   -4.4366   24.7448 C.ar    1  UNL1       -0.0011
     16 C           7.7111   -5.4512   24.6507 C.ar    1  UNL1        0.0204
     17 C           8.3393   -5.7553   23.3228 C.ar    1  UNL1        0.0989
     18 N           7.8666   -5.0448   22.0892 N.ar    1  UNL1       -0.2426
     19 C           6.7659   -4.0301   22.1835 C.ar    1  UNL1        0.0946
     20 S           2.6016    1.2799   32.0236 S.O2    1  UNL1        0.0305
     21 O           4.0531    1.1281   32.3703 O.2     1  UNL1       -0.1641
     22 O           1.1502    1.4317   31.6769 O.2     1  UNL1       -0.1641
     23 N           2.4450    2.6621   35.6472 N.ar    1  UNL1       -0.2481
     24 C           2.9257    1.6488   34.6512 C.ar    1  UNL1        0.1154
     25 C           2.3725    2.0209   33.3075 C.ar    1  UNL1        0.1497
     26 C           1.5499    3.2643   33.4731 C.ar    1  UNL1        0.1404
     27 N           1.5947    3.6606   34.9191 N.ar    1  UNL1       -0.1662
     28 C           2.7594    2.6748   37.1138 C.3     1  UNL1        0.1276
     29 C           2.1533    0.8694   38.8811 C.3     1  UNL1        0.0021
     30 C           3.0794    1.3925   37.8234 C.3     1  UNL1        0.0264
@<TRIPOS>BOND
     1    29    30    1
     2    30    28    1
     3    28    23    1
     4    23    24   ar
     5    24    25   ar
     6    25    20    1
     7    20    21    2
     8    20    22    2
     9    20     1    1
    10     1     2   ar
    11     2     3   ar
    12     3     4   ar
    13     4     7    1
    14     7     8   am
    15     8     9    2
    16    11     8    1
    17    11    12    1
    18    12    13    1
    19    13    14    1
    20    14    15   ar
    21    15    16   ar
    22    16    17   ar
    23    17    18   ar
    24    18    19   ar
    25     4     5   ar
    26     5     6   ar
    27    25    26   ar
    28    26    27   ar
    29    27    23   ar
    30     6     1   ar
    31    13    11    1
    32    19    14   ar
    33     7    10    1
