@<TRIPOS>MOLECULE
*****
 42 46 0 0 0
SMALL
GASTEIGER

@<TRIPOS>ATOM
      1 C           1.9771    2.5094   30.1495 C.2     1  UNL1        0.2251
      2 O           1.4333    3.7646   30.7651 O.2     1  UNL1       -0.2749
      3 N           2.9472    1.6584   30.9142 N.am    1  UNL1       -0.2794
      4 C           3.4910    0.4033   30.2986 C.3     1  UNL1        0.0954
      5 C           4.4611   -0.4478   31.0632 C.3     1  UNL1        0.0440
      6 C           4.8874   -0.0437   32.4434 C.3     1  UNL1        0.0839
      7 C           4.3436    1.2114   33.0590 C.3     1  UNL1        0.0440
      8 C           3.3735    2.0625   32.2944 C.3     1  UNL1        0.0954
      9 C           0.6983    1.2972   26.0089 C.3     1  UNL1        0.0542
     10 C           1.9867    2.0387   26.2090 C.3     1  UNL1        0.0162
     11 C           2.4130    2.4427   27.5892 C.3     1  UNL1        0.0104
     12 C           1.5508    2.1053   28.7693 C.3     1  UNL1        0.0768
     13 C           0.2623    1.3638   28.5693 C.3     1  UNL1        0.0095
     14 C          -1.0345    0.6801   28.8869 C.3     1  UNL1        0.0005
     15 C           0.2383    1.5304   30.0598 C.3     1  UNL1        0.0005
     16 C          -0.1640    0.9597   27.1891 C.3     1  UNL1        0.0162
     17 N           0.2720    0.8931   24.6287 N.3     1  UNL1       -0.2962
     18 H           0.2289   -0.1260   24.6203 H       1  UNL1        0.1235
     19 C           1.0917    1.3015   23.4408 C.3     1  UNL1        0.0768
     20 C           1.0875    2.7296   22.9820 C.3     1  UNL1        0.0220
     21 C           3.5637   -1.7573   21.2538 C.ar    1  UNL1        0.1387
     22 C           2.5358   -0.9547   20.5127 C.ar    1  UNL1        0.0366
     23 C           1.7118    0.0649   21.2417 C.ar    1  UNL1        0.0001
     24 C           1.9157    0.2819   22.7118 C.ar    1  UNL1       -0.0078
     25 C           2.9436   -0.5206   23.4529 C.ar    1  UNL1        0.0001
     26 C           3.7676   -1.5402   22.7239 C.ar    1  UNL1        0.0366
     27 C           3.7721   -3.5927   19.4269 C.3     1  UNL1        0.2525
     28 O           4.3877   -2.7769   20.5247 O.3     1  UNL1       -0.4714
     29 N           5.6742   -1.3114   32.2884 N.am    1  UNL1       -0.2638
     30 C           7.0507   -1.2718   31.6937 C.3     1  UNL1        0.0969
     31 C           7.8374   -2.5395   31.5387 C.3     1  UNL1        0.0428
     32 C           7.2477   -3.8467   31.9785 C.3     1  UNL1        0.0927
     33 N           5.8712   -3.8863   32.5732 N.am    1  UNL1       -0.2887
     34 C           5.0844   -2.6186   32.7282 C.2     1  UNL1        0.3041
     35 O           3.7079   -2.6581   33.3229 O.2     1  UNL1       -0.2526
     36 H           5.4841   -4.7442   32.8618 H       1  UNL1        0.1510
     37 C           5.5869   -0.0799   33.7698 C.ar    1  UNL1       -0.0059
     38 C           4.8010   -0.3124   35.0261 C.ar    1  UNL1       -0.0027
     39 C           5.5006   -0.3485   36.3525 C.ar    1  UNL1       -0.0003
     40 C           6.9859   -0.1522   36.4226 C.ar    1  UNL1       -0.0000
     41 C           7.7718    0.0802   35.1663 C.ar    1  UNL1       -0.0003
     42 C           7.0724    0.1164   33.8399 C.ar    1  UNL1       -0.0027
@<TRIPOS>BOND
     1    27    28    1
     2    28    21    1
     3    21    22   ar
     4    22    23   ar
     5    23    24   ar
     6    24    19    1
     7    19    20    1
     8    19    17    1
     9     9    17    1
    10     9    10    1
    11    10    11    1
    12    11    12    1
    13    12     1    1
    14     1     2    2
    15     1     3   am
    16     3     4    1
    17     4     5    1
    18     5     6    1
    19     6    37    1
    20    37    38   ar
    21    38    39   ar
    22    39    40   ar
    23    40    41   ar
    24    41    42   ar
    25     6    29    1
    26    29    30    1
    27    30    31    1
    28    31    32    1
    29    32    33    1
    30    33    34   am
    31    34    35    2
    32     6     7    1
    33     7     8    1
    34    12    13    1
    35    13    14    1
    36    13    15    1
    37    13    16    1
    38    24    25   ar
    39    25    26   ar
    40    26    21   ar
    41    16     9    1
    42     8     3    1
    43    42    37   ar
    44    34    29   am
    45    17    18    1
    46    33    36    1
@<TRIPOS>MOLECULE
*****
 42 46 0 0 0
SMALL
GASTEIGER

@<TRIPOS>ATOM
      1 C           4.7143    2.3028   32.2564 C.2     1  UNL1        0.2251
      2 O           6.0082    2.8413   31.7216 O.2     1  UNL1       -0.2749
      3 N           4.4030    2.4145   33.7195 N.am    1  UNL1       -0.2794
      4 C           3.1092    1.8760   34.2542 C.3     1  UNL1        0.0954
      5 C           2.7978    1.9878   35.7173 C.3     1  UNL1        0.0440
      6 C           3.7804    2.6380   36.6456 C.3     1  UNL1        0.0839
      7 C           5.0743    3.1766   36.1108 C.3     1  UNL1        0.0440
      8 C           5.3855    3.0648   34.6478 C.3     1  UNL1        0.0954
      9 C           1.7667    0.3520   29.4715 C.3     1  UNL1        0.0542
     10 C           2.7112   -0.4920   30.2749 C.3     1  UNL1        0.0162
     11 C           3.6937    0.1583   31.2032 C.3     1  UNL1        0.0104
     12 C           3.7317    1.6525   31.3281 C.3     1  UNL1        0.0768
     13 C           2.7872    2.4966   30.5247 C.3     1  UNL1        0.0095
     14 C           2.1012    3.7132   29.9777 C.3     1  UNL1        0.0005
     15 C           3.5315    3.5694   31.2630 C.3     1  UNL1        0.0005
     16 C           1.8047    1.8464   29.5964 C.3     1  UNL1        0.0162
     17 N           0.7841   -0.2982   28.5431 N.3     1  UNL1       -0.2962
     18 H           1.2582   -0.4153   27.6476 H       1  UNL1        0.1235
     19 C          -0.5286    0.3675   28.2543 C.3     1  UNL1        0.0768
     20 C          -1.7128    0.1049   29.1367 C.3     1  UNL1        0.0220
     21 C          -0.9142    3.1527   24.7409 C.ar    1  UNL1        0.1387
     22 C          -1.6635    3.4367   26.0089 C.ar    1  UNL1        0.0366
     23 C          -1.5350    2.5083   27.1800 C.ar    1  UNL1        0.0001
     24 C          -0.6571    1.2959   27.0832 C.ar    1  UNL1       -0.0078
     25 C           0.0922    1.0119   25.8152 C.ar    1  UNL1        0.0001
     26 C          -0.0363    1.9403   24.6441 C.ar    1  UNL1        0.0366
     27 C          -2.1735    3.9116   22.5989 C.3     1  UNL1        0.2525
     28 O          -1.0427    4.0810   23.5698 O.3     1  UNL1       -0.4714
     29 N           2.6971    2.2825   37.6203 N.am    1  UNL1       -0.2638
     30 C           2.8148    1.0396   38.4519 C.3     1  UNL1        0.0969
     31 C           1.7315    0.6840   39.4266 C.3     1  UNL1        0.0428
     32 C           0.5306    1.5712   39.5698 C.3     1  UNL1        0.0927
     33 N           0.4129    2.8141   38.7382 N.am    1  UNL1       -0.2887
     34 C           1.4962    3.1697   37.7635 C.2     1  UNL1        0.3041
     35 O           1.3785    4.4126   36.9320 O.2     1  UNL1       -0.2526
     36 H          -0.3753    3.3965   38.8322 H       1  UNL1        0.1510
     37 C           4.3867    3.1648   37.9124 C.ar    1  UNL1       -0.0059
     38 C           5.3669    2.3276   38.6795 C.ar    1  UNL1       -0.0027
     39 C           5.9732    2.8544   39.9463 C.ar    1  UNL1       -0.0003
     40 C           5.5994    4.2183   40.4461 C.ar    1  UNL1       -0.0000
     41 C           4.6192    5.0555   39.6791 C.ar    1  UNL1       -0.0003
     42 C           4.0129    4.5288   38.4123 C.ar    1  UNL1       -0.0027
@<TRIPOS>BOND
     1    27    28    1
     2    28    21    1
     3    21    22   ar
     4    22    23   ar
     5    23    24   ar
     6    24    19    1
     7    19    20    1
     8    19    17    1
     9     9    17    1
    10     9    10    1
    11    10    11    1
    12    11    12    1
    13    12     1    1
    14     1     2    2
    15     1     3   am
    16     3     4    1
    17     4     5    1
    18     5     6    1
    19     6    37    1
    20    37    38   ar
    21    38    39   ar
    22    39    40   ar
    23    40    41   ar
    24    41    42   ar
    25     6    29    1
    26    29    30    1
    27    30    31    1
    28    31    32    1
    29    32    33    1
    30    33    34   am
    31    34    35    2
    32     6     7    1
    33     7     8    1
    34    12    13    1
    35    13    14    1
    36    13    15    1
    37    13    16    1
    38    24    25   ar
    39    25    26   ar
    40    26    21   ar
    41    16     9    1
    42     8     3    1
    43    42    37   ar
    44    34    29   am
    45    17    18    1
    46    33    36    1
@<TRIPOS>MOLECULE
*****
 42 46 0 0 0
SMALL
GASTEIGER

@<TRIPOS>ATOM
      1 C          -3.3506    4.8406   17.9355 C.2     1  UNL1        0.2251
      2 O          -3.5202    5.1155   16.4706 O.2     1  UNL1       -0.2749
      3 N          -2.0845    4.2134   18.4392 N.am    1  UNL1       -0.2794
      4 C          -1.9149    3.9385   19.9039 C.3     1  UNL1        0.0954
      5 C          -0.6488    3.3114   20.4077 C.3     1  UNL1        0.0440
      6 C           0.4477    2.9592   19.4466 C.3     1  UNL1        0.0839
      7 C           0.2781    3.2341   17.9817 C.3     1  UNL1        0.0440
      8 C          -0.9880    3.8613   17.4781 C.3     1  UNL1        0.0954
      9 C          -6.6400    5.8971   20.8188 C.3     1  UNL1        0.0542
     10 C          -5.4358    6.7832   20.6973 C.3     1  UNL1        0.0162
     11 C          -4.3394    6.4310   19.7362 C.3     1  UNL1        0.0104
     12 C          -4.4470    5.1927   18.8966 C.3     1  UNL1        0.0768
     13 C          -5.6512    4.3065   19.0181 C.3     1  UNL1        0.0095
     14 C          -6.5875    3.1598   18.7767 C.3     1  UNL1        0.0005
     15 C          -4.8799    3.5561   17.9731 C.3     1  UNL1        0.0005
     16 C          -6.7477    4.6587   19.9792 C.3     1  UNL1        0.0162
     17 N          -7.7365    6.2493   21.7799 N.3     1  UNL1       -0.2962
     18 H          -7.8704    7.2585   21.7168 H       1  UNL1        0.1235
     19 C          -7.5908    5.9221   23.2365 C.3     1  UNL1        0.0768
     20 C          -8.7090    6.2261   24.1889 C.3     1  UNL1        0.0220
     21 C          -3.7993    4.0283   24.7490 C.ar    1  UNL1        0.1387
     22 C          -4.0832    5.4726   25.0377 C.ar    1  UNL1        0.0366
     23 C          -5.3470    6.1039   24.5335 C.ar    1  UNL1        0.0001
     24 C          -6.3270    5.2908   23.7407 C.ar    1  UNL1       -0.0078
     25 C          -6.0431    3.8465   23.4520 C.ar    1  UNL1        0.0001
     26 C          -4.7792    3.2153   23.9562 C.ar    1  UNL1        0.0366
     27 C          -1.3478    3.2680   24.3461 C.3     1  UNL1        0.2525
     28 O          -2.5354    3.3971   25.2532 O.3     1  UNL1       -0.4714
     29 N           1.0736    2.5074   20.7327 N.am    1  UNL1       -0.2638
     30 C           2.0858    3.3756   21.4198 C.3     1  UNL1        0.0969
     31 C           2.7117    2.9238   22.7059 C.3     1  UNL1        0.0428
     32 C           2.3255    1.6041   23.3050 C.3     1  UNL1        0.0927
     33 N           1.3133    0.7359   22.6180 N.am    1  UNL1       -0.2887
     34 C           0.6874    1.1877   21.3318 C.2     1  UNL1        0.3041
     35 O          -0.3248    0.3196   20.6448 O.2     1  UNL1       -0.2526
     36 H           1.0598   -0.1303   23.0112 H       1  UNL1        0.1510
     37 C           1.7615    2.4501   18.9321 C.ar    1  UNL1       -0.0059
     38 C           2.9214    3.3888   18.7786 C.ar    1  UNL1       -0.0027
     39 C           4.2353    2.8797   18.2642 C.ar    1  UNL1       -0.0003
     40 C           4.3893    1.4320   17.9032 C.ar    1  UNL1       -0.0000
     41 C           3.2294    0.4934   18.0568 C.ar    1  UNL1       -0.0003
     42 C           1.9155    1.0023   18.5712 C.ar    1  UNL1       -0.0027
@<TRIPOS>BOND
     1    27    28    1
     2    28    21    1
     3    21    22   ar
     4    22    23   ar
     5    23    24   ar
     6    24    19    1
     7    19    20    1
     8    19    17    1
     9     9    17    1
    10     9    10    1
    11    10    11    1
    12    11    12    1
    13    12     1    1
    14     1     2    2
    15     1     3   am
    16     3     4    1
    17     4     5    1
    18     5     6    1
    19     6    37    1
    20    37    38   ar
    21    38    39   ar
    22    39    40   ar
    23    40    41   ar
    24    41    42   ar
    25     6    29    1
    26    29    30    1
    27    30    31    1
    28    31    32    1
    29    32    33    1
    30    33    34   am
    31    34    35    2
    32     6     7    1
    33     7     8    1
    34    12    13    1
    35    13    14    1
    36    13    15    1
    37    13    16    1
    38    24    25   ar
    39    25    26   ar
    40    26    21   ar
    41    16     9    1
    42     8     3    1
    43    42    37   ar
    44    34    29   am
    45    17    18    1
    46    33    36    1
@<TRIPOS>MOLECULE
*****
 42 46 0 0 0
SMALL
GASTEIGER

@<TRIPOS>ATOM
      1 C           0.5684    1.7886   20.2673 C.2     1  UNL1        0.2251
      2 O          -0.2114    2.4883   19.1937 O.2     1  UNL1       -0.2749
      3 N           0.3001    2.0963   21.7106 N.am    1  UNL1       -0.2794
      4 C           1.0798    1.3967   22.7841 C.3     1  UNL1        0.0954
      5 C           0.8115    1.7044   24.2276 C.3     1  UNL1        0.0440
      6 C          -0.2365    2.7118   24.5974 C.3     1  UNL1        0.0839
      7 C          -1.0163    3.4114   23.5238 C.3     1  UNL1        0.0440
      8 C          -0.7480    3.1037   22.0805 C.3     1  UNL1        0.0954
      9 C           3.7126   -1.2335   19.1578 C.3     1  UNL1        0.0542
     10 C           2.4169   -1.6867   19.7624 C.3     1  UNL1        0.0162
     11 C           1.3688   -0.6794   20.1323 C.3     1  UNL1        0.0104
     12 C           1.6164    0.7813   19.8975 C.3     1  UNL1        0.0768
     13 C           2.9122    1.2346   19.2927 C.3     1  UNL1        0.0095
     14 C           3.9717    2.1479   18.7512 C.3     1  UNL1        0.0005
     15 C           2.2321    2.5591   19.4745 C.3     1  UNL1        0.0005
     16 C           3.9602    0.2273   18.9229 C.3     1  UNL1        0.0162
     17 N           4.7606   -2.2408   18.7879 N.3     1  UNL1       -0.2962
     18 H           4.6279   -2.4544   17.7994 H       1  UNL1        0.1235
     19 C           4.8264   -3.5541   19.5096 C.3     1  UNL1        0.0768
     20 C           4.2408   -4.7845   18.8827 C.3     1  UNL1        0.0220
     21 C           6.7808   -3.8027   23.5554 C.ar    1  UNL1        0.1387
     22 C           5.3100   -3.5287   23.4486 C.ar    1  UNL1        0.0366
     23 C           4.6585   -3.4458   22.1000 C.ar    1  UNL1        0.0001
     24 C           5.4779   -3.6370   20.8582 C.ar    1  UNL1       -0.0078
     25 C           6.9488   -3.9110   20.9651 C.ar    1  UNL1        0.0001
     26 C           7.6002   -3.9938   22.3137 C.ar    1  UNL1        0.0366
     27 C           6.8685   -4.7956   25.9547 C.3     1  UNL1        0.2525
     28 O           7.4323   -3.8856   24.9040 O.3     1  UNL1       -0.4714
     29 N           0.2363    2.3140   25.9642 N.am    1  UNL1       -0.2638
     30 C          -0.6112    1.4202   26.8204 C.3     1  UNL1        0.0969
     31 C          -0.1384    1.0224   28.1872 C.3     1  UNL1        0.0428
     32 C           1.1819    1.5184   28.6979 C.3     1  UNL1        0.0927
     33 N           2.0294    2.4122   27.8417 N.am    1  UNL1       -0.2887
     34 C           1.5566    2.8099   26.4749 C.2     1  UNL1        0.3041
     35 O           2.4041    3.7037   25.6188 O.2     1  UNL1       -0.2526
     36 H           2.8960    2.7377   28.1769 H       1  UNL1        0.1510
     37 C          -1.1204    3.5810   25.4419 C.ar    1  UNL1       -0.0059
     38 C          -2.5715    3.2390   25.6073 C.ar    1  UNL1       -0.0027
     39 C          -3.4553    4.1083   26.4518 C.ar    1  UNL1       -0.0003
     40 C          -2.8882    5.3194   27.1310 C.ar    1  UNL1       -0.0000
     41 C          -1.4371    5.6613   26.9656 C.ar    1  UNL1       -0.0003
     42 C          -0.5531    4.7922   26.1211 C.ar    1  UNL1       -0.0027
@<TRIPOS>BOND
     1    27    28    1
     2    28    21    1
     3    21    22   ar
     4    22    23   ar
     5    23    24   ar
     6    24    19    1
     7    19    20    1
     8    19    17    1
     9     9    17    1
    10     9    10    1
    11    10    11    1
    12    11    12    1
    13    12     1    1
    14     1     2    2
    15     1     3   am
    16     3     4    1
    17     4     5    1
    18     5     6    1
    19     6    37    1
    20    37    38   ar
    21    38    39   ar
    22    39    40   ar
    23    40    41   ar
    24    41    42   ar
    25     6    29    1
    26    29    30    1
    27    30    31    1
    28    31    32    1
    29    32    33    1
    30    33    34   am
    31    34    35    2
    32     6     7    1
    33     7     8    1
    34    12    13    1
    35    13    14    1
    36    13    15    1
    37    13    16    1
    38    24    25   ar
    39    25    26   ar
    40    26    21   ar
    41    16     9    1
    42     8     3    1
    43    42    37   ar
    44    34    29   am
    45    17    18    1
    46    33    36    1
@<TRIPOS>MOLECULE
*****
 42 46 0 0 0
SMALL
GASTEIGER

@<TRIPOS>ATOM
      1 C           1.0985    2.6906   31.3716 C.2     1  UNL1        0.2251
      2 O           0.4829    3.7684   32.2139 O.2     1  UNL1       -0.2749
      3 N           2.2243    1.8632   31.9174 N.am    1  UNL1       -0.2794
      4 C           2.8398    0.7854   31.0751 C.3     1  UNL1        0.0954
      5 C           3.9657   -0.0420   31.6209 C.3     1  UNL1        0.0440
      6 C           4.4760    0.2084   33.0090 C.3     1  UNL1        0.0839
      7 C           3.8604    1.2862   33.8513 C.3     1  UNL1        0.0440
      8 C           2.7346    2.1136   33.3055 C.3     1  UNL1        0.0954
      9 C          -0.4324    1.9394   27.2072 C.3     1  UNL1        0.0542
     10 C          -0.7500    0.9722   28.3088 C.3     1  UNL1        0.0162
     11 C          -0.2397    1.2226   29.6970 C.3     1  UNL1        0.0104
     12 C           0.5882    2.4402   29.9835 C.3     1  UNL1        0.0768
     13 C           0.9058    3.4075   28.8818 C.3     1  UNL1        0.0095
     14 C           1.4684    4.6062   28.1772 C.3     1  UNL1        0.0005
     15 C           1.6115    4.0741   30.0252 C.3     1  UNL1        0.0005
     16 C           0.3955    3.1571   27.4937 C.3     1  UNL1        0.0162
     17 N          -0.9427    1.6891   25.8191 N.3     1  UNL1       -0.2962
     18 H          -0.2164    1.1680   25.3279 H       1  UNL1        0.1235
     19 C          -1.3180    2.8438   24.9383 C.3     1  UNL1        0.0768
     20 C          -0.3064    3.4300   23.9986 C.3     1  UNL1        0.0220
     21 C          -5.4785    4.5493   25.1151 C.ar    1  UNL1        0.1387
     22 C          -4.9066    4.1016   23.8027 C.ar    1  UNL1        0.0366
     23 C          -3.5198    3.5331   23.7438 C.ar    1  UNL1        0.0001
     24 C          -2.7048    3.4123   24.9972 C.ar    1  UNL1       -0.0078
     25 C          -3.2767    3.8600   26.3096 C.ar    1  UNL1        0.0001
     26 C          -4.6636    4.4285   26.3686 C.ar    1  UNL1        0.0366
     27 C          -7.7936    4.9533   24.0073 C.3     1  UNL1        0.2525
     28 O          -6.8654    5.1178   25.1741 O.3     1  UNL1       -0.4714
     29 N           5.3774   -0.9184   32.5993 N.am    1  UNL1       -0.2638
     30 C           6.6489   -0.6298   31.8576 C.3     1  UNL1        0.0969
     31 C           7.5504   -1.7565   31.4479 C.3     1  UNL1        0.0428
     32 C           7.1804   -3.1717   31.7799 C.3     1  UNL1        0.0927
     33 N           5.9090   -3.4603   32.5217 N.am    1  UNL1       -0.2887
     34 C           5.0075   -2.3335   32.9313 C.2     1  UNL1        0.3041
     35 O           3.7360   -2.6221   33.6731 O.2     1  UNL1       -0.2526
     36 H           5.6661   -4.3891   32.7396 H       1  UNL1        0.1510
     37 C           5.2993    0.0674   34.2548 C.ar    1  UNL1       -0.0059
     38 C           4.6273   -0.1633   35.5758 C.ar    1  UNL1       -0.0027
     39 C           5.4507   -0.3043   36.8217 C.ar    1  UNL1       -0.0003
     40 C           6.9461   -0.2144   36.7466 C.ar    1  UNL1       -0.0000
     41 C           7.6181    0.0164   35.4256 C.ar    1  UNL1       -0.0003
     42 C           6.7948    0.1573   34.1797 C.ar    1  UNL1       -0.0027
@<TRIPOS>BOND
     1    27    28    1
     2    28    21    1
     3    21    22   ar
     4    22    23   ar
     5    23    24   ar
     6    24    19    1
     7    19    20    1
     8    19    17    1
     9     9    17    1
    10     9    10    1
    11    10    11    1
    12    11    12    1
    13    12     1    1
    14     1     2    2
    15     1     3   am
    16     3     4    1
    17     4     5    1
    18     5     6    1
    19     6    37    1
    20    37    38   ar
    21    38    39   ar
    22    39    40   ar
    23    40    41   ar
    24    41    42   ar
    25     6    29    1
    26    29    30    1
    27    30    31    1
    28    31    32    1
    29    32    33    1
    30    33    34   am
    31    34    35    2
    32     6     7    1
    33     7     8    1
    34    12    13    1
    35    13    14    1
    36    13    15    1
    37    13    16    1
    38    24    25   ar
    39    25    26   ar
    40    26    21   ar
    41    16     9    1
    42     8     3    1
    43    42    37   ar
    44    34    29   am
    45    17    18    1
    46    33    36    1
@<TRIPOS>MOLECULE
*****
 42 46 0 0 0
SMALL
GASTEIGER

@<TRIPOS>ATOM
      1 C           0.2188    2.9152   27.0043 C.2     1  UNL1        0.2251
      2 O          -0.5176    4.1250   27.4987 O.2     1  UNL1       -0.2749
      3 N           0.4088    2.7028   25.5316 N.am    1  UNL1       -0.2794
      4 C           1.1451    1.4931   25.0373 C.3     1  UNL1        0.0954
      5 C           1.3352    1.2806   23.5646 C.3     1  UNL1        0.0440
      6 C           0.7890    2.2779   22.5863 C.3     1  UNL1        0.0839
      7 C           0.0527    3.4877   23.0807 C.3     1  UNL1        0.0440
      8 C          -0.1374    3.7001   24.5534 C.3     1  UNL1        0.0954
      9 C           1.8574   -0.0766   29.9392 C.3     1  UNL1        0.0542
     10 C           2.7336    1.0268   29.4249 C.3     1  UNL1        0.0162
     11 C           2.1874    2.0241   28.4466 C.3     1  UNL1        0.0104
     12 C           0.7650    1.9179   27.9826 C.3     1  UNL1        0.0768
     13 C          -0.1113    0.8144   28.4968 C.3     1  UNL1        0.0095
     14 C          -1.3235   -0.0466   28.6953 C.3     1  UNL1        0.0005
     15 C          -1.0785    1.5127   27.5875 C.3     1  UNL1        0.0005
     16 C           0.4349   -0.1829   29.4751 C.3     1  UNL1        0.0162
     17 N           2.4036   -1.0739   30.9175 N.3     1  UNL1       -0.2962
     18 H           1.7522   -1.1042   31.7018 H       1  UNL1        0.1235
     19 C           3.7728   -0.8817   31.4989 C.3     1  UNL1        0.0768
     20 C           4.9868   -1.2320   30.6906 C.3     1  UNL1        0.0220
     21 C           4.2386    0.7460   35.6683 C.ar    1  UNL1        0.1387
     22 C           3.5045    1.5418   34.6302 C.ar    1  UNL1        0.0366
     23 C           3.3493    0.9992   33.2404 C.ar    1  UNL1        0.0001
     24 C           3.9281   -0.3391   32.8887 C.ar    1  UNL1       -0.0078
     25 C           4.6621   -1.1350   33.9269 C.ar    1  UNL1        0.0001
     26 C           4.8174   -0.5924   35.3167 C.ar    1  UNL1        0.0366
     27 C           3.2607    1.1832   38.0353 C.3     1  UNL1        0.2525
     28 O           4.3938    1.2885   37.0581 O.3     1  UNL1       -0.4714
     29 N           1.4106    1.2961   21.6378 N.am    1  UNL1       -0.2638
     30 C           0.5409    0.3689   20.8416 C.3     1  UNL1        0.0969
     31 C           1.1625   -0.6129   19.8931 C.3     1  UNL1        0.0428
     32 C           2.6537   -0.6675   19.7408 C.3     1  UNL1        0.0927
     33 N           3.5234    0.2597   20.5370 N.am    1  UNL1       -0.2887
     34 C           2.9018    1.2415   21.4855 C.2     1  UNL1        0.3041
     35 O           3.7715    2.1687   22.2817 O.2     1  UNL1       -0.2526
     36 H           4.5022    0.2238   20.4370 H       1  UNL1        0.1510
     37 C           0.4587    2.9342   21.2786 C.ar    1  UNL1       -0.0059
     38 C          -0.9439    2.8872   20.7491 C.ar    1  UNL1       -0.0027
     39 C          -1.2742    3.5436   19.4413 C.ar    1  UNL1       -0.0003
     40 C          -0.2021    4.2469   18.6632 C.ar    1  UNL1       -0.0000
     41 C           1.2006    4.2939   19.1928 C.ar    1  UNL1       -0.0003
     42 C           1.5310    3.6376   20.5005 C.ar    1  UNL1       -0.0027
@<TRIPOS>BOND
     1    27    28    1
     2    28    21    1
     3    21    22   ar
     4    22    23   ar
     5    23    24   ar
     6    24    19    1
     7    19    20    1
     8    19    17    1
     9     9    17    1
    10     9    10    1
    11    10    11    1
    12    11    12    1
    13    12     1    1
    14     1     2    2
    15     1     3   am
    16     3     4    1
    17     4     5    1
    18     5     6    1
    19     6    37    1
    20    37    38   ar
    21    38    39   ar
    22    39    40   ar
    23    40    41   ar
    24    41    42   ar
    25     6    29    1
    26    29    30    1
    27    30    31    1
    28    31    32    1
    29    32    33    1
    30    33    34   am
    31    34    35    2
    32     6     7    1
    33     7     8    1
    34    12    13    1
    35    13    14    1
    36    13    15    1
    37    13    16    1
    38    24    25   ar
    39    25    26   ar
    40    26    21   ar
    41    16     9    1
    42     8     3    1
    43    42    37   ar
    44    34    29   am
    45    17    18    1
    46    33    36    1
@<TRIPOS>MOLECULE
*****
 42 46 0 0 0
SMALL
GASTEIGER

@<TRIPOS>ATOM
      1 C           0.3678    2.3327   26.3227 C.2     1  UNL1        0.2251
      2 O          -0.6894    3.2359   25.7597 O.2     1  UNL1       -0.2749
      3 N           1.2844    1.5850   25.4004 N.am    1  UNL1       -0.2794
      4 C           2.3414    0.6819   25.9634 C.3     1  UNL1        0.0954
      5 C           3.2581   -0.0659   25.0411 C.3     1  UNL1        0.0440
      6 C           3.1176    0.0895   23.5558 C.3     1  UNL1        0.0839
      7 C           2.0605    0.9926   22.9928 C.3     1  UNL1        0.0440
      8 C           1.1439    1.7404   23.9151 C.3     1  UNL1        0.0954
      9 C           0.7891    1.8666   30.7786 C.3     1  UNL1        0.0542
     10 C           1.6265    2.8735   30.0473 C.3     1  UNL1        0.0162
     11 C           1.4861    3.0289   28.5620 C.3     1  UNL1        0.0104
     12 C           0.5082    2.1774   27.8080 C.3     1  UNL1        0.0768
     13 C          -0.3293    1.1704   28.5393 C.3     1  UNL1        0.0095
     14 C          -1.3370    0.0867   28.7843 C.3     1  UNL1        0.0005
     15 C          -0.8197    0.9494   27.1391 C.3     1  UNL1        0.0005
     16 C          -0.1888    1.0150   30.0246 C.3     1  UNL1        0.0162
     17 N           0.9296    1.7113   32.2639 N.3     1  UNL1       -0.2962
     18 H           0.3806    2.4572   32.6912 H       1  UNL1        0.1235
     19 C           2.2884    1.7563   32.8976 C.3     1  UNL1        0.0768
     20 C           2.7741    3.0210   33.5415 C.3     1  UNL1        0.0220
     21 C           4.9077   -1.9027   32.8668 C.ar    1  UNL1        0.1387
     22 C           4.8329   -1.0442   34.0945 C.ar    1  UNL1        0.0366
     23 C           3.9598    0.1754   34.1048 C.ar    1  UNL1        0.0001
     24 C           3.1615    0.5366   32.8873 C.ar    1  UNL1       -0.0078
     25 C           3.2364   -0.3219   31.6596 C.ar    1  UNL1        0.0001
     26 C           4.1095   -1.5415   31.6493 C.ar    1  UNL1        0.0366
     27 C           6.5295   -3.4983   31.6124 C.3     1  UNL1        0.2525
     28 O           5.7809   -3.1224   32.8565 O.3     1  UNL1       -0.4714
     29 N           4.2642   -0.8761   23.6094 N.am    1  UNL1       -0.2638
     30 C           4.0499   -2.3158   23.2466 C.3     1  UNL1        0.0969
     31 C           5.1965   -3.2814   23.3003 C.3     1  UNL1        0.0428
     32 C           6.5573   -2.8074   23.7167 C.3     1  UNL1        0.0927
     33 N           6.7716   -1.3678   24.0795 N.am    1  UNL1       -0.2887
     34 C           5.6250   -0.4022   24.0258 C.2     1  UNL1        0.3041
     35 O           5.8393    1.0375   24.3887 O.2     1  UNL1       -0.2526
     36 H           7.6648   -1.0567   24.3528 H       1  UNL1        0.1510
     37 C           3.3754   -0.0905   22.0891 C.ar    1  UNL1       -0.0059
     38 C           4.4934    0.6586   21.4266 C.ar    1  UNL1       -0.0027
     39 C           4.7511    0.4786   19.9599 C.ar    1  UNL1       -0.0003
     40 C           3.8909   -0.4504   19.1557 C.ar    1  UNL1       -0.0000
     41 C           2.7729   -1.1995   19.8182 C.ar    1  UNL1       -0.0003
     42 C           2.5151   -1.0196   21.2849 C.ar    1  UNL1       -0.0027
@<TRIPOS>BOND
     1    27    28    1
     2    28    21    1
     3    21    22   ar
     4    22    23   ar
     5    23    24   ar
     6    24    19    1
     7    19    20    1
     8    19    17    1
     9     9    17    1
    10     9    10    1
    11    10    11    1
    12    11    12    1
    13    12     1    1
    14     1     2    2
    15     1     3   am
    16     3     4    1
    17     4     5    1
    18     5     6    1
    19     6    37    1
    20    37    38   ar
    21    38    39   ar
    22    39    40   ar
    23    40    41   ar
    24    41    42   ar
    25     6    29    1
    26    29    30    1
    27    30    31    1
    28    31    32    1
    29    32    33    1
    30    33    34   am
    31    34    35    2
    32     6     7    1
    33     7     8    1
    34    12    13    1
    35    13    14    1
    36    13    15    1
    37    13    16    1
    38    24    25   ar
    39    25    26   ar
    40    26    21   ar
    41    16     9    1
    42     8     3    1
    43    42    37   ar
    44    34    29   am
    45    17    18    1
    46    33    36    1
@<TRIPOS>MOLECULE
*****
 42 46 0 0 0
SMALL
GASTEIGER

@<TRIPOS>ATOM
      1 C           0.0037    2.2912   22.1247 C.2     1  UNL1        0.2251
      2 O           0.4951    2.2104   23.5397 O.2     1  UNL1       -0.2749
      3 N          -1.3272    2.9159   21.8275 N.am    1  UNL1       -0.2794
      4 C          -1.8185    2.9967   20.4126 C.3     1  UNL1        0.0954
      5 C          -3.1495    3.6214   20.1153 C.3     1  UNL1        0.0440
      6 C          -3.9891    4.1653   21.2330 C.3     1  UNL1        0.0839
      7 C          -3.4977    4.0844   22.6480 C.3     1  UNL1        0.0440
      8 C          -2.1668    3.4598   22.9452 C.3     1  UNL1        0.0954
      9 C           2.5225    0.6596   18.7716 C.3     1  UNL1        0.0542
     10 C           1.4068   -0.1652   19.3414 C.3     1  UNL1        0.0162
     11 C           0.5672    0.3786   20.4591 C.3     1  UNL1        0.0104
     12 C           0.8433    1.7474   21.0070 C.3     1  UNL1        0.0768
     13 C           1.9591    2.5723   20.4372 C.3     1  UNL1        0.0095
     14 C           2.8963    3.7252   20.2306 C.3     1  UNL1        0.0005
     15 C           1.4450    3.5165   21.4831 C.3     1  UNL1        0.0005
     16 C           2.7987    2.0285   19.3195 C.3     1  UNL1        0.0162
     17 N           3.3621    0.1158   17.6538 N.3     1  UNL1       -0.2962
     18 H           2.8259   -0.6369   17.2221 H       1  UNL1        0.1235
     19 C           4.7275   -0.4348   17.9409 C.3     1  UNL1        0.0768
     20 C           5.8980   -0.0118   17.1037 C.3     1  UNL1        0.0220
     21 C           5.3124   -3.3558   21.3137 C.ar    1  UNL1        0.1387
     22 C           4.3973   -3.6979   20.1755 C.ar    1  UNL1        0.0366
     23 C           4.2024   -2.7242   19.0512 C.ar    1  UNL1        0.0001
     24 C           4.9225   -1.4085   19.0652 C.ar    1  UNL1       -0.0078
     25 C           5.8375   -1.0664   20.2034 C.ar    1  UNL1        0.0001
     26 C           6.0325   -2.0400   21.3277 C.ar    1  UNL1        0.0366
     27 C           6.2065   -3.8964   23.6924 C.3     1  UNL1        0.2525
     28 O           5.5073   -4.3294   22.4380 O.3     1  UNL1       -0.4714
     29 N          -4.8794    4.4720   20.0654 N.am    1  UNL1       -0.2638
     30 C          -6.0682    3.6028   19.7801 C.3     1  UNL1        0.0969
     31 C          -6.9585    3.9095   18.6125 C.3     1  UNL1        0.0428
     32 C          -6.6601    5.0852   17.7303 C.3     1  UNL1        0.0927
     33 N          -5.4713    5.9544   18.0156 N.am    1  UNL1       -0.2887
     34 C          -4.5810    5.6477   19.1832 C.2     1  UNL1        0.3041
     35 O          -3.3922    6.5169   19.4685 O.2     1  UNL1       -0.2526
     36 H          -5.2754    6.7261   17.4365 H       1  UNL1        0.1510
     37 C          -5.1379    4.8156   21.9453 C.ar    1  UNL1       -0.0059
     38 C          -6.2188    3.9713   22.5523 C.ar    1  UNL1       -0.0027
     39 C          -7.3677    4.6217   23.2645 C.ar    1  UNL1       -0.0003
     40 C          -7.4355    6.1163   23.3697 C.ar    1  UNL1       -0.0000
     41 C          -6.3545    6.9607   22.7627 C.ar    1  UNL1       -0.0003
     42 C          -5.2057    6.3104   22.0504 C.ar    1  UNL1       -0.0027
@<TRIPOS>BOND
     1    27    28    1
     2    28    21    1
     3    21    22   ar
     4    22    23   ar
     5    23    24   ar
     6    24    19    1
     7    19    20    1
     8    19    17    1
     9     9    17    1
    10     9    10    1
    11    10    11    1
    12    11    12    1
    13    12     1    1
    14     1     2    2
    15     1     3   am
    16     3     4    1
    17     4     5    1
    18     5     6    1
    19     6    37    1
    20    37    38   ar
    21    38    39   ar
    22    39    40   ar
    23    40    41   ar
    24    41    42   ar
    25     6    29    1
    26    29    30    1
    27    30    31    1
    28    31    32    1
    29    32    33    1
    30    33    34   am
    31    34    35    2
    32     6     7    1
    33     7     8    1
    34    12    13    1
    35    13    14    1
    36    13    15    1
    37    13    16    1
    38    24    25   ar
    39    25    26   ar
    40    26    21   ar
    41    16     9    1
    42     8     3    1
    43    42    37   ar
    44    34    29   am
    45    17    18    1
    46    33    36    1
@<TRIPOS>MOLECULE
*****
 42 46 0 0 0
SMALL
GASTEIGER

@<TRIPOS>ATOM
      1 C           6.7590   -1.6190   25.7019 C.2     1  UNL1        0.2251
      2 O           8.1434   -1.7254   26.2695 O.2     1  UNL1       -0.2749
      3 N           5.6499   -1.0446   26.5325 N.am    1  UNL1       -0.2794
      4 C           4.2656   -0.9382   25.9648 C.3     1  UNL1        0.0954
      5 C           3.1564   -0.3638   26.7955 C.3     1  UNL1        0.0440
      6 C           3.4317    0.1043   28.1937 C.3     1  UNL1        0.0839
      7 C           4.8161   -0.0021   28.7614 C.3     1  UNL1        0.0440
      8 C           5.9251   -0.5765   27.9308 C.3     1  UNL1        0.0954
      9 C           5.9332   -3.0230   21.5070 C.3     1  UNL1        0.0542
     10 C           5.6160   -3.9131   22.6719 C.3     1  UNL1        0.0162
     11 C           5.8913   -3.4451   24.0702 C.3     1  UNL1        0.0104
     12 C           6.4837   -2.0870   24.3036 C.3     1  UNL1        0.0768
     13 C           6.8009   -1.1968   23.1386 C.3     1  UNL1        0.0095
     14 C           7.2703    0.0002   22.3661 C.3     1  UNL1        0.0005
     15 C           7.2392   -0.3131   24.2686 C.3     1  UNL1        0.0005
     16 C           6.5257   -1.6648   21.7403 C.3     1  UNL1        0.0162
     17 N           5.6580   -3.4910   20.1087 N.3     1  UNL1       -0.2962
     18 H           6.2064   -2.8976   19.4863 H       1  UNL1        0.1235
     19 C           4.2540   -3.4916   19.5808 C.3     1  UNL1        0.0768
     20 C           3.5373   -4.7902   19.3575 C.3     1  UNL1        0.0220
     21 C           2.1922    0.4024   18.6664 C.ar    1  UNL1        0.1387
     22 C           1.8475   -0.3537   19.9152 C.ar    1  UNL1        0.0366
     23 C           2.5347   -1.6517   20.2200 C.ar    1  UNL1        0.0001
     24 C           3.5667   -2.1936   19.2760 C.ar    1  UNL1       -0.0078
     25 C           3.9115   -1.4376   18.0272 C.ar    1  UNL1        0.0001
     26 C           3.2243   -0.1396   17.7225 C.ar    1  UNL1        0.0366
     27 C           2.2132    2.9997   18.6071 C.3     1  UNL1        0.2525
     28 O           1.5050    1.7004   18.3617 O.3     1  UNL1       -0.4714
     29 N           1.9661    0.4101   28.1004 N.am    1  UNL1       -0.2638
     30 C           0.9732   -0.4481   28.8268 C.3     1  UNL1        0.0969
     31 C          -0.4923   -0.1423   28.7335 C.3     1  UNL1        0.0428
     32 C          -0.9649    1.0216   27.9138 C.3     1  UNL1        0.0927
     33 N           0.0280    1.8798   27.1875 N.am    1  UNL1       -0.2887
     34 C           1.4936    1.5740   27.2808 C.2     1  UNL1        0.3041
     35 O           2.4865    2.4322   26.5544 O.2     1  UNL1       -0.2526
     36 H          -0.2821    2.6437   26.6495 H       1  UNL1        0.1510
     37 C           3.1980    0.6785   29.5596 C.ar    1  UNL1       -0.0059
     38 C           3.0595    2.1616   29.7360 C.ar    1  UNL1       -0.0027
     39 C           2.8258    2.7358   31.1020 C.ar    1  UNL1       -0.0003
     40 C           2.7305    1.8270   32.2914 C.ar    1  UNL1       -0.0000
     41 C           2.8690    0.3439   32.1149 C.ar    1  UNL1       -0.0003
     42 C           3.1027   -0.2304   30.7491 C.ar    1  UNL1       -0.0027
@<TRIPOS>BOND
     1    27    28    1
     2    28    21    1
     3    21    22   ar
     4    22    23   ar
     5    23    24   ar
     6    24    19    1
     7    19    20    1
     8    19    17    1
     9     9    17    1
    10     9    10    1
    11    10    11    1
    12    11    12    1
    13    12     1    1
    14     1     2    2
    15     1     3   am
    16     3     4    1
    17     4     5    1
    18     5     6    1
    19     6    37    1
    20    37    38   ar
    21    38    39   ar
    22    39    40   ar
    23    40    41   ar
    24    41    42   ar
    25     6    29    1
    26    29    30    1
    27    30    31    1
    28    31    32    1
    29    32    33    1
    30    33    34   am
    31    34    35    2
    32     6     7    1
    33     7     8    1
    34    12    13    1
    35    13    14    1
    36    13    15    1
    37    13    16    1
    38    24    25   ar
    39    25    26   ar
    40    26    21   ar
    41    16     9    1
    42     8     3    1
    43    42    37   ar
    44    34    29   am
    45    17    18    1
    46    33    36    1
