@<TRIPOS>MOLECULE
*****
 28 31 0 0 0
SMALL
GASTEIGER

@<TRIPOS>ATOM
      1 C           2.8071   -0.3522   19.0067 C.2     1  UNL1        0.0919
      2 C           3.2745    0.9321   18.3885 C.2     1  UNL1        0.0183
      3 C           2.4549    2.1792   18.5400 C.2     1  UNL1        0.0511
      4 C           1.1680    2.1421   19.3096 C.2     1  UNL1        0.2322
      5 N           0.1557    3.2034   19.6243 N.2     1  UNL1       -0.0307
      6 C          -0.9373    2.5750   20.4370 C.2     1  UNL1        0.3799
      7 N          -0.6006    1.1253   20.6245 N.2     1  UNL1       -0.0345
      8 C           0.7006    0.8578   19.9277 C.2     1  UNL1        0.2191
      9 C           1.5201   -0.3893   19.7762 C.3     1  UNL1        0.1226
     10 C          -2.1536    3.2736   20.9688 C.ar    1  UNL1        0.1447
     11 C          -3.2988    3.5876   20.0524 C.ar    1  UNL1        0.0141
     12 C          -4.5150    4.2862   20.5841 C.ar    1  UNL1        0.0195
     13 C          -4.5860    4.6708   22.0322 C.ar    1  UNL1        0.0829
     14 N          -3.4407    4.3568   22.9485 N.ar    1  UNL1       -0.2729
     15 C          -2.2245    3.6582   22.4168 C.ar    1  UNL1        0.2722
     16 O          -1.0793    3.3442   23.3332 O.2     1  UNL1       -0.2664
     17 C          -3.5117    4.7414   24.3967 C.ar    1  UNL1        0.0669
     18 C          -4.2610    3.8766   25.3665 C.ar    1  UNL1        0.0176
     19 C          -4.3320    4.2612   26.8146 C.ar    1  UNL1        0.0015
     20 C          -3.6536    5.5107   27.2929 C.ar    1  UNL1        0.0001
     21 C          -2.9043    6.3755   26.3230 C.ar    1  UNL1        0.0015
     22 C          -2.8334    5.9909   24.8750 C.ar    1  UNL1        0.0176
     23 S           3.6267   -1.5993   18.8552 S.O2    1  UNL1        0.0054
     24 O           3.9071   -1.2414   17.4258 O.2     1  UNL1       -0.1689
     25 O           3.3462   -1.9572   20.2846 O.2     1  UNL1       -0.1689
     26 C           4.4462   -2.8465   18.7037 C.3     1  UNL1        0.1556
     27 C           4.6671   -5.4268   18.9108 C.3     1  UNL1        0.0019
     28 C           3.8212   -4.1885   18.9448 C.3     1  UNL1        0.0257
@<TRIPOS>BOND
     1    27    28    1
     2    28    26    1
     3    26    23    1
     4    23    24    2
     5    23    25    2
     6    23     1    1
     7     1     2    2
     8     2     3    1
     9     3     4    2
    10     4     5    1
    11     5     6    2
    12     6    10    1
    13    10    11   ar
    14    11    12   ar
    15    12    13   ar
    16    13    14   ar
    17    14    17    1
    18    17    18   ar
    19    18    19   ar
    20    19    20   ar
    21    20    21   ar
    22    21    22   ar
    23    14    15   ar
    24    15    16    2
    25     6     7    1
    26     7     8    2
    27     8     9    1
    28     9     1    1
    29     8     4    1
    30    15    10   ar
    31    22    17   ar
@<TRIPOS>MOLECULE
*****
 28 31 0 0 0
SMALL
GASTEIGER

@<TRIPOS>ATOM
      1 C           6.3831   -2.4125   19.3051 C.2     1  UNL1        0.0919
      2 C           7.8668   -2.3900   19.0860 C.2     1  UNL1        0.0183
      3 C           8.7802   -3.0617   20.0681 C.2     1  UNL1        0.0511
      4 C           8.2100   -3.7559   21.2693 C.2     1  UNL1        0.2322
      5 N           8.8568   -4.4989   22.4004 N.2     1  UNL1       -0.0307
      6 C           7.7729   -4.9805   23.3186 C.2     1  UNL1        0.3799
      7 N           6.4561   -4.5352   22.7550 N.2     1  UNL1       -0.0345
      8 C           6.7263   -3.7783   21.4884 C.2     1  UNL1        0.2191
      9 C           5.8128   -3.1066   20.5063 C.3     1  UNL1        0.1226
     10 C           7.9711   -5.7691   24.5792 C.ar    1  UNL1        0.1447
     11 C           8.2275   -7.2453   24.5079 C.ar    1  UNL1        0.0141
     12 C           8.4257   -8.0339   25.7683 C.ar    1  UNL1        0.0195
     13 C           8.3673   -7.3463   27.1001 C.ar    1  UNL1        0.0829
     14 N           8.1109   -5.8701   27.1715 N.ar    1  UNL1       -0.2729
     15 C           7.9127   -5.0815   25.9110 C.ar    1  UNL1        0.2722
     16 O           7.6563   -3.6053   25.9823 O.2     1  UNL1       -0.2664
     17 C           8.0525   -5.1825   28.5034 C.ar    1  UNL1        0.0669
     18 C           6.8127   -5.2764   29.3423 C.ar    1  UNL1        0.0176
     19 C           6.7544   -4.5888   30.6741 C.ar    1  UNL1        0.0015
     20 C           7.9360   -3.8073   31.1670 C.ar    1  UNL1        0.0001
     21 C           9.1759   -3.7133   30.3281 C.ar    1  UNL1        0.0015
     22 C           9.2342   -4.4009   28.9963 C.ar    1  UNL1        0.0176
     23 S           5.4697   -1.7408   18.3230 S.O2    1  UNL1        0.0054
     24 O           4.3478   -1.8147   19.3159 O.2     1  UNL1       -0.1689
     25 O           6.5916   -1.6669   17.3301 O.2     1  UNL1       -0.1689
     26 C           4.5562   -1.0691   17.3410 C.3     1  UNL1        0.1556
     27 C           4.3365    1.4108   18.0836 C.3     1  UNL1        0.0019
     28 C           3.7041    0.0855   17.7777 C.3     1  UNL1        0.0257
@<TRIPOS>BOND
     1    27    28    1
     2    28    26    1
     3    26    23    1
     4    23    24    2
     5    23    25    2
     6    23     1    1
     7     1     2    2
     8     2     3    1
     9     3     4    2
    10     4     5    1
    11     5     6    2
    12     6    10    1
    13    10    11   ar
    14    11    12   ar
    15    12    13   ar
    16    13    14   ar
    17    14    17    1
    18    17    18   ar
    19    18    19   ar
    20    19    20   ar
    21    20    21   ar
    22    21    22   ar
    23    14    15   ar
    24    15    16    2
    25     6     7    1
    26     7     8    2
    27     8     9    1
    28     9     1    1
    29     8     4    1
    30    15    10   ar
    31    22    17   ar
@<TRIPOS>MOLECULE
*****
 28 31 0 0 0
SMALL
GASTEIGER

@<TRIPOS>ATOM
      1 C           6.6899   -3.9517   30.1774 C.2     1  UNL1        0.0919
      2 C           6.9692   -5.4254   30.1905 C.2     1  UNL1        0.0183
      3 C           7.2689   -6.1434   28.9080 C.2     1  UNL1        0.0511
      4 C           7.2894   -5.3877   27.6125 C.2     1  UNL1        0.2322
      5 N           7.5515   -5.8223   26.2010 N.2     1  UNL1       -0.0307
      6 C           7.4343   -4.6172   25.3156 C.2     1  UNL1        0.3799
      7 N           7.0997   -3.4377   26.1798 N.2     1  UNL1       -0.0345
      8 C           7.0102   -3.9140   27.5995 C.2     1  UNL1        0.2191
      9 C           6.7104   -3.1960   28.8819 C.3     1  UNL1        0.1226
     10 C           7.6192   -4.5954   23.8271 C.ar    1  UNL1        0.1447
     11 C           8.8608   -5.1751   23.2170 C.ar    1  UNL1        0.0141
     12 C           9.0458   -5.1534   21.7287 C.ar    1  UNL1        0.0195
     13 C           7.9890   -4.5518   20.8504 C.ar    1  UNL1        0.0829
     14 N           6.7474   -3.9721   21.4604 N.ar    1  UNL1       -0.2729
     15 C           6.5624   -3.9939   22.9488 C.ar    1  UNL1        0.2722
     16 O           5.3208   -3.4141   23.5589 O.2     1  UNL1       -0.2664
     17 C           5.6906   -3.3706   20.5821 C.ar    1  UNL1        0.0669
     18 C           4.5403   -4.2098   20.1104 C.ar    1  UNL1        0.0176
     19 C           3.4837   -3.6083   19.2321 C.ar    1  UNL1        0.0015
     20 C           3.5772   -2.1675   18.8254 C.ar    1  UNL1        0.0001
     21 C           4.7275   -1.3282   19.2970 C.ar    1  UNL1        0.0015
     22 C           5.7842   -1.9298   20.1754 C.ar    1  UNL1        0.0176
     23 S           6.3902   -3.2338   31.4599 S.O2    1  UNL1        0.0054
     24 O           6.6191   -4.5038   32.2244 O.2     1  UNL1       -0.1689
     25 O           6.1613   -1.9637   30.6954 O.2     1  UNL1       -0.1689
     26 C           6.0905   -2.5158   32.7424 C.3     1  UNL1        0.1556
     27 C           4.2514   -1.3815   34.1850 C.3     1  UNL1        0.0019
     28 C           4.6906   -2.4947   33.2806 C.3     1  UNL1        0.0257
@<TRIPOS>BOND
     1    27    28    1
     2    28    26    1
     3    26    23    1
     4    23    24    2
     5    23    25    2
     6    23     1    1
     7     1     2    2
     8     2     3    1
     9     3     4    2
    10     4     5    1
    11     5     6    2
    12     6    10    1
    13    10    11   ar
    14    11    12   ar
    15    12    13   ar
    16    13    14   ar
    17    14    17    1
    18    17    18   ar
    19    18    19   ar
    20    19    20   ar
    21    20    21   ar
    22    21    22   ar
    23    14    15   ar
    24    15    16    2
    25     6     7    1
    26     7     8    2
    27     8     9    1
    28     9     1    1
    29     8     4    1
    30    15    10   ar
    31    22    17   ar
@<TRIPOS>MOLECULE
*****
 28 31 0 0 0
SMALL
GASTEIGER

@<TRIPOS>ATOM
      1 C           4.2519   -0.3069   18.5589 C.2     1  UNL1        0.0919
      2 C           5.0121    0.9854   18.5171 C.2     1  UNL1        0.0183
      3 C           4.2726    2.2889   18.4528 C.2     1  UNL1        0.0511
      4 C           2.7728    2.2999   18.4304 C.2     1  UNL1        0.2322
      5 N           1.7781    3.4210   18.3699 N.2     1  UNL1       -0.0307
      6 C           0.4031    2.8216   18.3744 C.2     1  UNL1        0.3799
      7 N           0.5480    1.3299   18.4376 N.2     1  UNL1       -0.0345
      8 C           2.0126    1.0076   18.4723 C.2     1  UNL1        0.2191
      9 C           2.7521   -0.2959   18.5365 C.3     1  UNL1        0.1226
     10 C          -0.8898    3.5805   18.3243 C.ar    1  UNL1        0.1447
     11 C          -1.3340    4.2216   17.0430 C.ar    1  UNL1        0.0141
     12 C          -2.6268    4.9805   16.9929 C.ar    1  UNL1        0.0195
     13 C          -3.4754    5.0984   18.2242 C.ar    1  UNL1        0.0829
     14 N          -3.0312    4.4574   19.5055 N.ar    1  UNL1       -0.2729
     15 C          -1.7384    3.6984   19.5555 C.ar    1  UNL1        0.2722
     16 O          -1.2941    3.0574   20.8368 O.2     1  UNL1       -0.2664
     17 C          -3.8799    4.5753   20.7367 C.ar    1  UNL1        0.0669
     18 C          -4.6901    3.4028   21.2043 C.ar    1  UNL1        0.0176
     19 C          -5.5387    3.5208   22.4355 C.ar    1  UNL1        0.0015
     20 C          -5.5771    4.8112   23.1991 C.ar    1  UNL1        0.0001
     21 C          -4.7669    5.9838   22.7316 C.ar    1  UNL1        0.0015
     22 C          -3.9182    5.8658   21.5004 C.ar    1  UNL1        0.0176
     23 S           4.9914   -1.6104   18.6232 S.O2    1  UNL1        0.0054
     24 O           5.1077   -1.4710   20.1122 O.2     1  UNL1       -0.1689
     25 O           4.8751   -1.7498   17.1342 O.2     1  UNL1       -0.1689
     26 C           5.7310   -2.9138   18.6874 C.3     1  UNL1        0.1556
     27 C           3.5108   -4.2075   19.0713 C.3     1  UNL1        0.0019
     28 C           4.9708   -4.2063   18.7271 C.3     1  UNL1        0.0257
@<TRIPOS>BOND
     1    27    28    1
     2    28    26    1
     3    26    23    1
     4    23    24    2
     5    23    25    2
     6    23     1    1
     7     1     2    2
     8     2     3    1
     9     3     4    2
    10     4     5    1
    11     5     6    2
    12     6    10    1
    13    10    11   ar
    14    11    12   ar
    15    12    13   ar
    16    13    14   ar
    17    14    17    1
    18    17    18   ar
    19    18    19   ar
    20    19    20   ar
    21    20    21   ar
    22    21    22   ar
    23    14    15   ar
    24    15    16    2
    25     6     7    1
    26     7     8    2
    27     8     9    1
    28     9     1    1
    29     8     4    1
    30    15    10   ar
    31    22    17   ar
@<TRIPOS>MOLECULE
*****
 28 31 0 0 0
SMALL
GASTEIGER

@<TRIPOS>ATOM
      1 C           7.8751   -4.9836   26.7852 C.2     1  UNL1        0.0919
      2 C           8.8704   -5.7222   25.9402 C.2     1  UNL1        0.0183
      3 C           8.7484   -5.6995   24.4454 C.2     1  UNL1        0.0511
      4 C           7.6312   -4.9384   23.7955 C.2     1  UNL1        0.2322
      5 N           7.2582   -4.7362   22.3567 N.2     1  UNL1       -0.0307
      6 C           6.0325   -3.8727   22.3125 C.2     1  UNL1        0.3799
      7 N           5.6478   -3.5412   23.7239 N.2     1  UNL1       -0.0345
      8 C           6.6359   -4.1998   24.6405 C.2     1  UNL1        0.2191
      9 C           6.7579   -4.2225   26.1353 C.3     1  UNL1        0.1226
     10 C           5.3170   -3.4202   21.0742 C.ar    1  UNL1        0.1447
     11 C           4.1994   -4.2461   20.5096 C.ar    1  UNL1        0.0141
     12 C           3.4839   -3.7937   19.2713 C.ar    1  UNL1        0.0195
     13 C           3.8861   -2.5152   18.5977 C.ar    1  UNL1        0.0829
     14 N           5.0036   -1.6893   19.1622 N.ar    1  UNL1       -0.2729
     15 C           5.7191   -2.1417   20.4005 C.ar    1  UNL1        0.2722
     16 O           6.8367   -1.3158   20.9651 O.2     1  UNL1       -0.2664
     17 C           5.4058   -0.4108   18.4885 C.ar    1  UNL1        0.0669
     18 C           4.7194    0.8739   18.8468 C.ar    1  UNL1        0.0176
     19 C           5.1215    2.1523   18.1731 C.ar    1  UNL1        0.0015
     20 C           6.2100    2.1460   17.1410 C.ar    1  UNL1        0.0001
     21 C           6.8964    0.8613   16.7827 C.ar    1  UNL1        0.0015
     22 C           6.4943   -0.4171   17.4564 C.ar    1  UNL1        0.0176
     23 S           7.9971   -5.0062   28.2801 S.O2    1  UNL1        0.0054
     24 O           8.2159   -6.4896   28.2398 O.2     1  UNL1       -0.1689
     25 O           7.7783   -3.5228   28.3204 O.2     1  UNL1       -0.1689
     26 C           8.1191   -5.0289   29.7749 C.3     1  UNL1        0.1556
     27 C           6.7819   -4.1365   31.8159 C.3     1  UNL1        0.0019
     28 C           6.8854   -5.0465   30.6279 C.3     1  UNL1        0.0257
@<TRIPOS>BOND
     1    27    28    1
     2    28    26    1
     3    26    23    1
     4    23    24    2
     5    23    25    2
     6    23     1    1
     7     1     2    2
     8     2     3    1
     9     3     4    2
    10     4     5    1
    11     5     6    2
    12     6    10    1
    13    10    11   ar
    14    11    12   ar
    15    12    13   ar
    16    13    14   ar
    17    14    17    1
    18    17    18   ar
    19    18    19   ar
    20    19    20   ar
    21    20    21   ar
    22    21    22   ar
    23    14    15   ar
    24    15    16    2
    25     6     7    1
    26     7     8    2
    27     8     9    1
    28     9     1    1
    29     8     4    1
    30    15    10   ar
    31    22    17   ar
@<TRIPOS>MOLECULE
*****
 28 31 0 0 0
SMALL
GASTEIGER

@<TRIPOS>ATOM
      1 C           7.8626   -5.9507   26.5824 C.2     1  UNL1        0.0919
      2 C           8.3249   -7.0853   25.7171 C.2     1  UNL1        0.0183
      3 C           8.2877   -6.9529   24.2234 C.2     1  UNL1        0.0511
      4 C           7.7881   -5.6858   23.5951 C.2     1  UNL1        0.2322
      5 N           7.6361   -5.2679   22.1625 N.2     1  UNL1       -0.0307
      6 C           7.0799   -3.8750   22.1424 C.2     1  UNL1        0.3799
      7 N           6.8881   -3.4320   23.5626 N.2     1  UNL1       -0.0345
      8 C           7.3258   -4.5512   24.4604 C.2     1  UNL1        0.2191
      9 C           7.3630   -4.6836   25.9541 C.3     1  UNL1        0.1226
     10 C           6.7699   -3.0669   20.9172 C.ar    1  UNL1        0.1447
     11 C           7.7817   -2.9576   19.8152 C.ar    1  UNL1        0.0141
     12 C           7.4718   -2.1496   18.5900 C.ar    1  UNL1        0.0195
     13 C           6.1501   -1.4509   18.4669 C.ar    1  UNL1        0.0829
     14 N           5.1384   -1.5603   19.5690 N.ar    1  UNL1       -0.2729
     15 C           5.4483   -2.3683   20.7941 C.ar    1  UNL1        0.2722
     16 O           4.4366   -2.4776   21.8962 O.2     1  UNL1       -0.2664
     17 C           3.8168   -0.8616   19.4458 C.ar    1  UNL1        0.0669
     18 C           3.7250    0.4465   18.7175 C.ar    1  UNL1        0.0176
     19 C           2.4033    1.1452   18.5944 C.ar    1  UNL1        0.0015
     20 C           1.1736    0.5357   19.1995 C.ar    1  UNL1        0.0001
     21 C           1.2654   -0.7724   19.9278 C.ar    1  UNL1        0.0015
     22 C           2.5870   -1.4710   20.0509 C.ar    1  UNL1        0.0176
     23 S           7.8999   -6.0832   28.0761 S.O2    1  UNL1        0.0054
     24 O           7.3363   -4.6998   28.2128 O.2     1  UNL1       -0.1689
     25 O           8.4634   -7.4665   27.9394 O.2     1  UNL1       -0.1689
     26 C           7.9372   -6.2156   29.5698 C.3     1  UNL1        0.1556
     27 C           7.1740   -4.9687   31.7175 C.3     1  UNL1        0.0019
     28 C           6.8453   -5.6135   30.4036 C.3     1  UNL1        0.0257
@<TRIPOS>BOND
     1    27    28    1
     2    28    26    1
     3    26    23    1
     4    23    24    2
     5    23    25    2
     6    23     1    1
     7     1     2    2
     8     2     3    1
     9     3     4    2
    10     4     5    1
    11     5     6    2
    12     6    10    1
    13    10    11   ar
    14    11    12   ar
    15    12    13   ar
    16    13    14   ar
    17    14    17    1
    18    17    18   ar
    19    18    19   ar
    20    19    20   ar
    21    20    21   ar
    22    21    22   ar
    23    14    15   ar
    24    15    16    2
    25     6     7    1
    26     7     8    2
    27     8     9    1
    28     9     1    1
    29     8     4    1
    30    15    10   ar
    31    22    17   ar
@<TRIPOS>MOLECULE
*****
 28 31 0 0 0
SMALL
GASTEIGER

@<TRIPOS>ATOM
      1 C           3.3152   -0.9330   19.4040 C.2     1  UNL1        0.0919
      2 C           3.1670    0.0492   18.2800 C.2     1  UNL1        0.0183
      3 C           2.3203    1.2741   18.4611 C.2     1  UNL1        0.0511
      4 C           1.6218    1.5168   19.7661 C.2     1  UNL1        0.2322
      5 N           0.7276    2.6261   20.2348 N.2     1  UNL1       -0.0307
      6 C           0.3231    2.3295   21.6485 C.2     1  UNL1        0.3799
      7 N           0.9673    1.0369   22.0535 N.2     1  UNL1       -0.0345
      8 C           1.7700    0.5346   20.8901 C.2     1  UNL1        0.2191
      9 C           2.6167   -0.6903   20.7090 C.3     1  UNL1        0.1226
     10 C          -0.5691    3.1769   22.5065 C.ar    1  UNL1        0.1447
     11 C          -0.0420    3.7710   23.7790 C.ar    1  UNL1        0.0141
     12 C          -0.9340    4.6183   24.6370 C.ar    1  UNL1        0.0195
     13 C          -2.3532    4.8715   24.2225 C.ar    1  UNL1        0.0829
     14 N          -2.8803    4.2774   22.9501 N.ar    1  UNL1       -0.2729
     15 C          -1.9882    3.4301   22.0921 C.ar    1  UNL1        0.2722
     16 O          -2.5153    2.8359   20.8196 O.2     1  UNL1       -0.2664
     17 C          -4.2995    4.5306   22.5356 C.ar    1  UNL1        0.0669
     18 C          -5.4128    3.7307   23.1446 C.ar    1  UNL1        0.0176
     19 C          -6.8319    3.9840   22.7301 C.ar    1  UNL1        0.0015
     20 C          -7.1378    5.0371   21.7067 C.ar    1  UNL1        0.0001
     21 C          -6.0246    5.8369   21.0978 C.ar    1  UNL1        0.0015
     22 C          -4.6055    5.5837   21.5122 C.ar    1  UNL1        0.0176
     23 S           4.1619   -2.1579   19.2229 S.O2    1  UNL1        0.0054
     24 O           4.1494   -1.9470   17.7378 O.2     1  UNL1       -0.1689
     25 O           4.1744   -2.3688   20.7079 O.2     1  UNL1       -0.1689
     26 C           5.0086   -3.3828   19.0418 C.3     1  UNL1        0.1556
     27 C           3.5406   -5.4111   19.7352 C.3     1  UNL1        0.0019
     28 C           4.3658   -4.6960   18.7068 C.3     1  UNL1        0.0257
@<TRIPOS>BOND
     1    27    28    1
     2    28    26    1
     3    26    23    1
     4    23    24    2
     5    23    25    2
     6    23     1    1
     7     1     2    2
     8     2     3    1
     9     3     4    2
    10     4     5    1
    11     5     6    2
    12     6    10    1
    13    10    11   ar
    14    11    12   ar
    15    12    13   ar
    16    13    14   ar
    17    14    17    1
    18    17    18   ar
    19    18    19   ar
    20    19    20   ar
    21    20    21   ar
    22    21    22   ar
    23    14    15   ar
    24    15    16    2
    25     6     7    1
    26     7     8    2
    27     8     9    1
    28     9     1    1
    29     8     4    1
    30    15    10   ar
    31    22    17   ar
@<TRIPOS>MOLECULE
*****
 28 31 0 0 0
SMALL
GASTEIGER

@<TRIPOS>ATOM
      1 C           2.7659   -0.2454   18.9387 C.2     1  UNL1        0.0919
      2 C           3.1893    1.0291   18.2706 C.2     1  UNL1        0.0183
      3 C           2.3794    2.2780   18.4559 C.2     1  UNL1        0.0511
      4 C           1.1461    2.2524   19.3092 C.2     1  UNL1        0.2322
      5 N           0.1550    3.3179   19.6731 N.2     1  UNL1       -0.0307
      6 C          -0.8810    2.7019   20.5661 C.2     1  UNL1        0.3799
      7 N          -0.5302    1.2557   20.7541 N.2     1  UNL1       -0.0345
      8 C           0.7227    0.9779   19.9773 C.2     1  UNL1        0.2191
      9 C           1.5326   -0.2710   19.7920 C.3     1  UNL1        0.1226
     10 C          -2.0607    3.4081   21.1657 C.ar    1  UNL1        0.1447
     11 C          -2.1643    3.5645   22.6540 C.ar    1  UNL1        0.0141
     12 C          -3.3439    4.2707   23.2536 C.ar    1  UNL1        0.0195
     13 C          -4.4200    4.8206   22.3651 C.ar    1  UNL1        0.0829
     14 N          -4.3164    4.6643   20.8768 N.ar    1  UNL1       -0.2729
     15 C          -3.1368    3.9580   20.2772 C.ar    1  UNL1        0.2722
     16 O          -3.0333    3.8017   18.7889 O.2     1  UNL1       -0.2664
     17 C          -5.3926    5.2142   19.9883 C.ar    1  UNL1        0.0669
     18 C          -6.6116    4.3926   19.6900 C.ar    1  UNL1        0.0176
     19 C          -7.6877    4.9426   18.8015 C.ar    1  UNL1        0.0015
     20 C          -7.5448    6.3141   18.2112 C.ar    1  UNL1        0.0001
     21 C          -6.3258    7.1357   18.5094 C.ar    1  UNL1        0.0015
     22 C          -5.2497    6.5858   19.3980 C.ar    1  UNL1        0.0176
     23 S           3.5759   -1.4942   18.7534 S.O2    1  UNL1        0.0054
     24 O           3.7334   -1.1759   17.2960 O.2     1  UNL1       -0.1689
     25 O           3.4183   -1.8126   20.2107 O.2     1  UNL1       -0.1689
     26 C           4.3858   -2.7431   18.5681 C.3     1  UNL1        0.1556
     27 C           4.5827   -5.3054   18.9499 C.3     1  UNL1        0.0019
     28 C           3.7378   -4.0871   18.7224 C.3     1  UNL1        0.0257
@<TRIPOS>BOND
     1    27    28    1
     2    28    26    1
     3    26    23    1
     4    23    24    2
     5    23    25    2
     6    23     1    1
     7     1     2    2
     8     2     3    1
     9     3     4    2
    10     4     5    1
    11     5     6    2
    12     6    10    1
    13    10    11   ar
    14    11    12   ar
    15    12    13   ar
    16    13    14   ar
    17    14    17    1
    18    17    18   ar
    19    18    19   ar
    20    19    20   ar
    21    20    21   ar
    22    21    22   ar
    23    14    15   ar
    24    15    16    2
    25     6     7    1
    26     7     8    2
    27     8     9    1
    28     9     1    1
    29     8     4    1
    30    15    10   ar
    31    22    17   ar
@<TRIPOS>MOLECULE
*****
 28 31 0 0 0
SMALL
GASTEIGER

@<TRIPOS>ATOM
      1 C           4.5065   -0.7850   29.7201 C.2     1  UNL1        0.0919
      2 C           5.9127   -1.3016   29.6460 C.2     1  UNL1        0.0183
      3 C           6.4586   -1.8065   28.3432 C.2     1  UNL1        0.0511
      4 C           5.5981   -1.7949   27.1146 C.2     1  UNL1        0.2322
      5 N           5.8599   -2.2253   25.7018 N.2     1  UNL1       -0.0307
      6 C           4.6154   -1.9748   24.9027 C.2     1  UNL1        0.3799
      7 N           3.5845   -1.3894   25.8217 N.2     1  UNL1       -0.0345
      8 C           4.1919   -1.2782   27.1888 C.2     1  UNL1        0.2191
      9 C           3.6461   -0.7733   28.4915 C.3     1  UNL1        0.1226
     10 C           4.4338   -2.2596   23.4412 C.ar    1  UNL1        0.1447
     11 C           4.9751   -3.5281   22.8514 C.ar    1  UNL1        0.0141
     12 C           4.7935   -3.8129   21.3899 C.ar    1  UNL1        0.0195
     13 C           4.0706   -2.8292   20.5183 C.ar    1  UNL1        0.0829
     14 N           3.5292   -1.5608   21.1081 N.ar    1  UNL1       -0.2729
     15 C           3.7108   -1.2759   22.5696 C.ar    1  UNL1        0.2722
     16 O           3.1695   -0.0074   23.1594 O.2     1  UNL1       -0.2664
     17 C           2.8063   -0.5771   20.2364 C.ar    1  UNL1        0.0669
     18 C           1.3209   -0.4117   20.3643 C.ar    1  UNL1        0.0176
     19 C           0.5981    0.5719   19.4927 C.ar    1  UNL1        0.0015
     20 C           1.3605    1.3902   18.4931 C.ar    1  UNL1        0.0001
     21 C           2.8458    1.2248   18.3652 C.ar    1  UNL1        0.0015
     22 C           3.5687    0.2412   19.2369 C.ar    1  UNL1        0.0176
     23 S           3.9607   -0.2800   31.0228 S.O2    1  UNL1        0.0054
     24 O           5.2554    0.4283   31.2907 O.2     1  UNL1       -0.1689
     25 O           2.6659   -0.9884   30.7549 O.2     1  UNL1       -0.1689
     26 C           3.4149    0.2249   32.3256 C.3     1  UNL1        0.1556
     27 C           4.2902   -1.6299   33.9203 C.3     1  UNL1        0.0019
     28 C           4.0625   -0.1787   33.6169 C.3     1  UNL1        0.0257
@<TRIPOS>BOND
     1    27    28    1
     2    28    26    1
     3    26    23    1
     4    23    24    2
     5    23    25    2
     6    23     1    1
     7     1     2    2
     8     2     3    1
     9     3     4    2
    10     4     5    1
    11     5     6    2
    12     6    10    1
    13    10    11   ar
    14    11    12   ar
    15    12    13   ar
    16    13    14   ar
    17    14    17    1
    18    17    18   ar
    19    18    19   ar
    20    19    20   ar
    21    20    21   ar
    22    21    22   ar
    23    14    15   ar
    24    15    16    2
    25     6     7    1
    26     7     8    2
    27     8     9    1
    28     9     1    1
    29     8     4    1
    30    15    10   ar
    31    22    17   ar
