@<TRIPOS>MOLECULE
*****
 31 34 0 0 0
SMALL
GASTEIGER

@<TRIPOS>ATOM
      1 C          -0.6687    2.8764   20.4418 C.ar    1  UNL1        0.0550
      2 C          -0.2108    1.8682   21.4537 C.ar    1  UNL1        0.0061
      3 C           1.1431    1.2359   21.3227 C.ar    1  UNL1        0.0189
      4 C           2.0390    1.6118   20.1799 C.ar    1  UNL1        0.0792
      5 C           1.5811    2.6200   19.1681 C.ar    1  UNL1        0.0989
      6 C           0.2272    3.2523   19.2990 C.ar    1  UNL1        0.0251
      7 N           2.6750    2.7907   18.1560 N.ar    1  UNL1       -0.2239
      8 C           3.8090    1.8880   18.5424 C.ar    1  UNL1        0.1788
      9 N           3.4160    1.1594   19.7933 N.ar    1  UNL1       -0.3031
     10 N          -3.2508    2.6488   20.6181 N.am    1  UNL1       -0.2987
     11 C          -2.0227    3.5087   20.5727 C.2     1  UNL1        0.2461
     12 O          -2.1484    5.0010   20.6582 O.2     1  UNL1       -0.2701
     13 H          -3.1683    1.6694   20.5620 H       1  UNL1        0.1500
     14 C          -4.6048    3.2811   20.7490 C.3     1  UNL1        0.0943
     15 C          -5.1379    3.6380   22.1049 C.ar    1  UNL1       -0.0045
     16 C          -6.4298    4.3900   22.2287 C.ar    1  UNL1       -0.0027
     17 C          -6.9630    4.7469   23.5846 C.ar    1  UNL1       -0.0003
     18 C          -6.2042    4.3518   24.8167 C.ar    1  UNL1       -0.0000
     19 C          -4.9122    3.5997   24.6929 C.ar    1  UNL1       -0.0003
     20 C          -4.3790    3.2429   23.3370 C.ar    1  UNL1       -0.0027
     21 C          -4.7590    3.6733   18.1854 C.3     1  UNL1        0.0021
     22 C          -5.4255    3.5566   19.5241 C.3     1  UNL1        0.0241
     23 C           4.2529    0.1549   20.5284 C.3     1  UNL1        0.1556
     24 C           4.4075   -1.2344   19.9842 C.ar    1  UNL1        0.1093
     25 N           5.7701   -1.7563   19.6364 N.ar    1  UNL1       -0.2416
     26 C           5.9248   -3.1455   19.0922 C.ar    1  UNL1        0.1282
     27 C           4.7168   -4.0128   18.8958 C.ar    1  UNL1        0.1614
     28 F           4.8715   -5.4021   18.3515 F       1  UNL1       -0.2025
     29 C           3.3542   -3.4908   19.2435 C.ar    1  UNL1        0.0621
     30 C           3.1995   -2.1016   19.7877 C.ar    1  UNL1        0.1577
     31 F           1.8369   -1.5798   20.1354 F       1  UNL1       -0.2028
@<TRIPOS>BOND
     1    21    22    1
     2    14    22    1
     3    14    10    1
     4    10    11   am
     5    11    12    2
     6    11     1    1
     7     1     2   ar
     8     2     3   ar
     9     3     4   ar
    10     4     5   ar
    11     5     6   ar
    12     5     7   ar
    13     7     8   ar
    14     8     9   ar
    15     9    23    1
    16    23    24    1
    17    24    25   ar
    18    25    26   ar
    19    26    27   ar
    20    27    28    1
    21    27    29   ar
    22    29    30   ar
    23    30    31    1
    24    14    15    1
    25    15    16   ar
    26    16    17   ar
    27    17    18   ar
    28    18    19   ar
    29    19    20   ar
    30     6     1   ar
    31    30    24   ar
    32    20    15   ar
    33     9     4   ar
    34    10    13    1
@<TRIPOS>MOLECULE
*****
 31 34 0 0 0
SMALL
GASTEIGER

@<TRIPOS>ATOM
      1 C           1.0379    2.8688   31.8896 C.ar    1  UNL1        0.0550
      2 C           1.8817    2.1419   32.8944 C.ar    1  UNL1        0.0061
      3 C           2.0954    2.7280   34.2585 C.ar    1  UNL1        0.0189
      4 C           1.4655    4.0411   34.6177 C.ar    1  UNL1        0.0792
      5 C           0.6218    4.7680   33.6129 C.ar    1  UNL1        0.0989
      6 C           0.4080    4.1819   32.2488 C.ar    1  UNL1        0.0251
      7 N           0.1326    6.0354   34.2487 N.ar    1  UNL1       -0.2239
      8 C           0.6739    6.0919   35.6465 C.ar    1  UNL1        0.1788
      9 N           1.4977    4.8593   35.8746 N.ar    1  UNL1       -0.3031
     10 N           1.0041    0.8099   30.3053 N.am    1  UNL1       -0.2987
     11 C           0.8241    2.2827   30.5255 C.2     1  UNL1        0.2461
     12 O           0.4303    3.1694   29.3815 O.2     1  UNL1       -0.2701
     13 H           1.2626    0.2279   31.0562 H       1  UNL1        0.1500
     14 C           0.7903    0.2238   28.9412 C.3     1  UNL1        0.0943
     15 C           1.9092    0.2214   27.9421 C.ar    1  UNL1       -0.0045
     16 C           2.9848   -0.8209   28.0232 C.ar    1  UNL1       -0.0027
     17 C           4.1037   -0.8233   27.0241 C.ar    1  UNL1       -0.0003
     18 C           4.1470    0.2167   25.9440 C.ar    1  UNL1       -0.0000
     19 C           3.0713    1.2591   25.8630 C.ar    1  UNL1       -0.0003
     20 C           1.9525    1.2614   26.8620 C.ar    1  UNL1       -0.0027
     21 C          -1.7826    0.1042   29.2805 C.3     1  UNL1        0.0021
     22 C          -0.5423   -0.3600   28.5762 C.3     1  UNL1        0.0241
     23 C           2.2259    4.5068   37.1377 C.3     1  UNL1        0.1556
     24 C           1.9351    3.2106   37.8342 C.ar    1  UNL1        0.1093
     25 N           0.6208    3.0109   38.5291 N.ar    1  UNL1       -0.2416
     26 C           0.3299    1.7147   39.2256 C.ar    1  UNL1        0.1282
     27 C           1.3533    0.6181   39.2274 C.ar    1  UNL1        0.1614
     28 F           1.0625   -0.6782   39.9239 F       1  UNL1       -0.2025
     29 C           2.6677    0.8177   38.5325 C.ar    1  UNL1        0.0621
     30 C           2.9585    2.1139   37.8359 C.ar    1  UNL1        0.1577
     31 F           4.2728    2.3135   37.1411 F       1  UNL1       -0.2028
@<TRIPOS>BOND
     1    21    22    1
     2    14    22    1
     3    14    10    1
     4    10    11   am
     5    11    12    2
     6    11     1    1
     7     1     2   ar
     8     2     3   ar
     9     3     4   ar
    10     4     5   ar
    11     5     6   ar
    12     5     7   ar
    13     7     8   ar
    14     8     9   ar
    15     9    23    1
    16    23    24    1
    17    24    25   ar
    18    25    26   ar
    19    26    27   ar
    20    27    28    1
    21    27    29   ar
    22    29    30   ar
    23    30    31    1
    24    14    15    1
    25    15    16   ar
    26    16    17   ar
    27    17    18   ar
    28    18    19   ar
    29    19    20   ar
    30     6     1   ar
    31    30    24   ar
    32    20    15   ar
    33     9     4   ar
    34    10    13    1
@<TRIPOS>MOLECULE
*****
 31 34 0 0 0
SMALL
GASTEIGER

@<TRIPOS>ATOM
      1 C           1.1397    2.5277   31.7699 C.ar    1  UNL1        0.0550
      2 C           1.9986    1.8903   32.8215 C.ar    1  UNL1        0.0061
      3 C           2.1670    2.5541   34.1560 C.ar    1  UNL1        0.0189
      4 C           1.4766    3.8553   34.4389 C.ar    1  UNL1        0.0792
      5 C           0.6177    4.4927   33.3873 C.ar    1  UNL1        0.0989
      6 C           0.4492    3.8289   32.0528 C.ar    1  UNL1        0.0251
      7 N           0.0656    5.7687   33.9504 N.ar    1  UNL1       -0.2239
      8 C           0.5834    5.9199   35.3501 C.ar    1  UNL1        0.1788
      9 N           1.4554    4.7374   35.6520 N.ar    1  UNL1       -0.3031
     10 N           1.7932    2.3145   29.2644 N.am    1  UNL1       -0.2987
     11 C           0.9712    1.8639   30.4353 C.2     1  UNL1        0.2461
     12 O          -0.0194    0.7494   30.2717 O.2     1  UNL1       -0.2701
     13 H           2.4434    3.0460   29.3718 H       1  UNL1        0.1500
     14 C           1.6247    1.6507   27.9298 C.3     1  UNL1        0.0943
     15 C           0.5407    2.1049   26.9978 C.ar    1  UNL1       -0.0045
     16 C          -0.6293    2.8788   27.5287 C.ar    1  UNL1       -0.0027
     17 C          -1.7133    3.3330   26.5967 C.ar    1  UNL1       -0.0003
     18 C          -1.6272    3.0133   25.1337 C.ar    1  UNL1       -0.0000
     19 C          -0.4572    2.2393   24.6027 C.ar    1  UNL1       -0.0003
     20 C           0.6268    1.7851   25.5347 C.ar    1  UNL1       -0.0027
     21 C           2.6072   -0.7165   28.3548 C.3     1  UNL1        0.0021
     22 C           2.5402    0.5327   27.5273 C.3     1  UNL1        0.0241
     23 C           2.1792    4.4817   36.9407 C.3     1  UNL1        0.1556
     24 C           1.9207    3.2192   37.7084 C.ar    1  UNL1        0.1093
     25 N           0.6425    3.0566   38.4763 N.ar    1  UNL1       -0.2416
     26 C           0.3840    1.7941   39.2439 C.ar    1  UNL1        0.1282
     27 C           1.4038    0.6941   39.2437 C.ar    1  UNL1        0.1614
     28 F           1.1453   -0.5684   40.0113 F       1  UNL1       -0.2025
     29 C           2.6821    0.8567   38.4757 C.ar    1  UNL1        0.0621
     30 C           2.9406    2.1192   37.7081 C.ar    1  UNL1        0.1577
     31 F           4.2188    2.2817   36.9402 F       1  UNL1       -0.2028
@<TRIPOS>BOND
     1    21    22    1
     2    14    22    1
     3    14    10    1
     4    10    11   am
     5    11    12    2
     6    11     1    1
     7     1     2   ar
     8     2     3   ar
     9     3     4   ar
    10     4     5   ar
    11     5     6   ar
    12     5     7   ar
    13     7     8   ar
    14     8     9   ar
    15     9    23    1
    16    23    24    1
    17    24    25   ar
    18    25    26   ar
    19    26    27   ar
    20    27    28    1
    21    27    29   ar
    22    29    30   ar
    23    30    31    1
    24    14    15    1
    25    15    16   ar
    26    16    17   ar
    27    17    18   ar
    28    18    19   ar
    29    19    20   ar
    30     6     1   ar
    31    30    24   ar
    32    20    15   ar
    33     9     4   ar
    34    10    13    1
@<TRIPOS>MOLECULE
*****
 31 34 0 0 0
SMALL
GASTEIGER

@<TRIPOS>ATOM
      1 C           5.7157   -3.2209   23.8682 C.ar    1  UNL1        0.0550
      2 C           5.5245   -1.9677   24.6699 C.ar    1  UNL1        0.0061
      3 C           6.1288   -1.8531   26.0379 C.ar    1  UNL1        0.0189
      4 C           6.9244   -2.9917   26.6042 C.ar    1  UNL1        0.0792
      5 C           7.1156   -4.2449   25.8025 C.ar    1  UNL1        0.0989
      6 C           6.5112   -4.3595   24.4345 C.ar    1  UNL1        0.0251
      7 N           7.9433   -5.1944   26.6169 N.ar    1  UNL1       -0.2239
      8 C           8.2637   -4.5280   27.9220 C.ar    1  UNL1        0.1788
      9 N           7.6340   -3.1666   27.9142 N.ar    1  UNL1       -0.3031
     10 N           5.4412   -2.3199   21.4468 N.am    1  UNL1       -0.2987
     11 C           5.1113   -3.3356   22.5001 C.2     1  UNL1        0.2461
     12 O           4.1769   -4.4661   22.1853 O.2     1  UNL1       -0.2701
     13 H           6.0545   -1.5779   21.6534 H       1  UNL1        0.1500
     14 C           4.8368   -2.4346   20.0787 C.3     1  UNL1        0.0943
     15 C           3.7176   -1.5214   19.6743 C.ar    1  UNL1       -0.0045
     16 C           2.4953   -1.4060   20.5360 C.ar    1  UNL1       -0.0027
     17 C           1.3761   -0.4929   20.1315 C.ar    1  UNL1       -0.0003
     18 C           1.4792    0.3048   18.8655 C.ar    1  UNL1       -0.0000
     19 C           2.7016    0.1894   18.0037 C.ar    1  UNL1       -0.0003
     20 C           3.8208   -0.7237   18.4081 C.ar    1  UNL1       -0.0027
     21 C           4.4892   -4.6274   18.7296 C.3     1  UNL1        0.0021
     22 C           5.3517   -3.4624   19.1151 C.3     1  UNL1        0.0241
     23 C           7.7019   -2.1574   29.0218 C.3     1  UNL1        0.1556
     24 C           6.8058   -2.2939   30.2169 C.ar    1  UNL1        0.1093
     25 N           5.6007   -1.4116   30.3554 N.ar    1  UNL1       -0.2416
     26 C           4.7045   -1.5482   31.5505 C.ar    1  UNL1        0.1282
     27 C           5.0134   -2.5671   32.6071 C.ar    1  UNL1        0.1614
     28 F           4.1172   -2.7036   33.8021 F       1  UNL1       -0.2025
     29 C           6.2186   -3.4494   32.4685 C.ar    1  UNL1        0.0621
     30 C           7.1147   -3.3129   31.2734 C.ar    1  UNL1        0.1577
     31 F           8.3198   -4.1952   31.1350 F       1  UNL1       -0.2028
@<TRIPOS>BOND
     1    21    22    1
     2    14    22    1
     3    14    10    1
     4    10    11   am
     5    11    12    2
     6    11     1    1
     7     1     2   ar
     8     2     3   ar
     9     3     4   ar
    10     4     5   ar
    11     5     6   ar
    12     5     7   ar
    13     7     8   ar
    14     8     9   ar
    15     9    23    1
    16    23    24    1
    17    24    25   ar
    18    25    26   ar
    19    26    27   ar
    20    27    28    1
    21    27    29   ar
    22    29    30   ar
    23    30    31    1
    24    14    15    1
    25    15    16   ar
    26    16    17   ar
    27    17    18   ar
    28    18    19   ar
    29    19    20   ar
    30     6     1   ar
    31    30    24   ar
    32    20    15   ar
    33     9     4   ar
    34    10    13    1
@<TRIPOS>MOLECULE
*****
 31 34 0 0 0
SMALL
GASTEIGER

@<TRIPOS>ATOM
      1 C           2.4416   -0.1895   19.1392 C.ar    1  UNL1        0.0550
      2 C           1.2865   -0.4792   20.0512 C.ar    1  UNL1        0.0061
      3 C           0.3193    0.6111   20.4058 C.ar    1  UNL1        0.0189
      4 C           0.5072    1.9910   19.8485 C.ar    1  UNL1        0.0792
      5 C           1.6623    2.2806   18.9365 C.ar    1  UNL1        0.0989
      6 C           2.6295    1.1903   18.5818 C.ar    1  UNL1        0.0251
      7 N           1.5913    3.7264   18.5433 N.ar    1  UNL1       -0.2239
      8 C           0.3923    4.3304   19.2124 C.ar    1  UNL1        0.1788
      9 N          -0.2777    3.2578   20.0190 N.ar    1  UNL1       -0.3031
     10 N           3.8647   -2.2490   19.8347 N.am    1  UNL1       -0.2987
     11 C           3.4089   -1.2798   18.7845 C.2     1  UNL1        0.2461
     12 O           3.9204   -1.4008   17.3796 O.2     1  UNL1       -0.2701
     13 H           3.5290   -2.1695   20.7568 H       1  UNL1        0.1500
     14 C           4.8320   -3.3392   19.4800 C.3     1  UNL1        0.0943
     15 C           6.3037   -3.1309   19.6814 C.ar    1  UNL1       -0.0045
     16 C           7.0740   -2.2578   18.7357 C.ar    1  UNL1       -0.0027
     17 C           8.5457   -2.0494   18.9372 C.ar    1  UNL1       -0.0003
     18 C           9.2472   -2.7142   20.0843 C.ar    1  UNL1       -0.0000
     19 C           8.4770   -3.5874   21.0300 C.ar    1  UNL1       -0.0003
     20 C           7.0052   -3.7957   20.8286 C.ar    1  UNL1       -0.0027
     21 C           3.4017   -5.4928   19.7374 C.3     1  UNL1        0.0021
     22 C           4.3275   -4.6378   18.9239 C.3     1  UNL1        0.0241
     23 C          -1.5154    3.4231   20.8503 C.3     1  UNL1        0.1556
     24 C          -2.8593    3.4967   20.1881 C.ar    1  UNL1        0.1093
     25 N          -2.9562    3.7688   18.7162 N.ar    1  UNL1       -0.2416
     26 C          -4.3001    3.8425   18.0540 C.ar    1  UNL1        0.1282
     27 C          -5.5471    3.6440   18.8637 C.ar    1  UNL1        0.1614
     28 F          -6.8910    3.7176   18.2015 F       1  UNL1       -0.2025
     29 C          -5.4501    3.3718   20.3357 C.ar    1  UNL1        0.0621
     30 C          -4.1062    3.2982   20.9979 C.ar    1  UNL1        0.1577
     31 F          -4.0093    3.0261   22.4698 F       1  UNL1       -0.2028
@<TRIPOS>BOND
     1    21    22    1
     2    14    22    1
     3    14    10    1
     4    10    11   am
     5    11    12    2
     6    11     1    1
     7     1     2   ar
     8     2     3   ar
     9     3     4   ar
    10     4     5   ar
    11     5     6   ar
    12     5     7   ar
    13     7     8   ar
    14     8     9   ar
    15     9    23    1
    16    23    24    1
    17    24    25   ar
    18    25    26   ar
    19    26    27   ar
    20    27    28    1
    21    27    29   ar
    22    29    30   ar
    23    30    31    1
    24    14    15    1
    25    15    16   ar
    26    16    17   ar
    27    17    18   ar
    28    18    19   ar
    29    19    20   ar
    30     6     1   ar
    31    30    24   ar
    32    20    15   ar
    33     9     4   ar
    34    10    13    1
@<TRIPOS>MOLECULE
*****
 31 34 0 0 0
SMALL
GASTEIGER

@<TRIPOS>ATOM
      1 C           5.8513   -3.1893   24.5002 C.ar    1  UNL1        0.0550
      2 C           5.5935   -3.6199   23.0867 C.ar    1  UNL1        0.0061
      3 C           4.5885   -2.8849   22.2503 C.ar    1  UNL1        0.0189
      4 C           3.8414   -1.7192   22.8273 C.ar    1  UNL1        0.0792
      5 C           4.0992   -1.2886   24.2408 C.ar    1  UNL1        0.0989
      6 C           5.1041   -2.0236   25.0773 C.ar    1  UNL1        0.0251
      7 N           3.2167   -0.1119   24.5351 N.ar    1  UNL1       -0.2239
      8 C           2.4135    0.1848   23.3035 C.ar    1  UNL1        0.1788
      9 N           2.7996   -0.8086   22.2480 N.ar    1  UNL1       -0.3031
     10 N           6.4460   -5.1503   26.0974 N.am    1  UNL1       -0.2987
     11 C           6.8563   -3.9243   25.3368 C.2     1  UNL1        0.2461
     12 O           8.2716   -3.4333   25.4127 O.2     1  UNL1       -0.2701
     13 H           5.5171   -5.4726   26.0475 H       1  UNL1        0.1500
     14 C           7.4510   -5.8853   26.9339 C.3     1  UNL1        0.0943
     15 C           7.5040   -5.6572   28.4155 C.ar    1  UNL1       -0.0045
     16 C           8.3848   -6.5144   29.2753 C.ar    1  UNL1       -0.0027
     17 C           8.4377   -6.2863   30.7569 C.ar    1  UNL1       -0.0003
     18 C           7.6099   -5.2010   31.3788 C.ar    1  UNL1       -0.0000
     19 C           6.7290   -4.3437   30.5189 C.ar    1  UNL1       -0.0003
     20 C           6.6760   -4.5718   29.0373 C.ar    1  UNL1       -0.0027
     21 C           7.9902   -7.6002   25.0583 C.3     1  UNL1        0.0021
     22 C           8.4030   -6.8484   26.2889 C.3     1  UNL1        0.0241
     23 C           2.2418   -0.8791   20.8573 C.3     1  UNL1        0.1556
     24 C           3.1149   -0.5542   19.6817 C.ar    1  UNL1        0.1093
     25 N           3.4554    0.8735   19.3721 N.ar    1  UNL1       -0.2416
     26 C           4.3285    1.1984   18.1965 C.ar    1  UNL1        0.1282
     27 C           4.8612    0.0956   17.3304 C.ar    1  UNL1        0.1614
     28 F           5.7343    0.4205   16.1548 F       1  UNL1       -0.2025
     29 C           4.5207   -1.3321   17.6400 C.ar    1  UNL1        0.0621
     30 C           3.6476   -1.6570   18.8156 C.ar    1  UNL1        0.1577
     31 F           3.3072   -3.0847   19.1251 F       1  UNL1       -0.2028
@<TRIPOS>BOND
     1    21    22    1
     2    14    22    1
     3    14    10    1
     4    10    11   am
     5    11    12    2
     6    11     1    1
     7     1     2   ar
     8     2     3   ar
     9     3     4   ar
    10     4     5   ar
    11     5     6   ar
    12     5     7   ar
    13     7     8   ar
    14     8     9   ar
    15     9    23    1
    16    23    24    1
    17    24    25   ar
    18    25    26   ar
    19    26    27   ar
    20    27    28    1
    21    27    29   ar
    22    29    30   ar
    23    30    31    1
    24    14    15    1
    25    15    16   ar
    26    16    17   ar
    27    17    18   ar
    28    18    19   ar
    29    19    20   ar
    30     6     1   ar
    31    30    24   ar
    32    20    15   ar
    33     9     4   ar
    34    10    13    1
@<TRIPOS>MOLECULE
*****
 31 34 0 0 0
SMALL
GASTEIGER

@<TRIPOS>ATOM
      1 C           3.2250   -0.9151   23.2600 C.ar    1  UNL1        0.0550
      2 C           2.3490    0.2009   23.7467 C.ar    1  UNL1        0.0061
      3 C           2.3440    0.5710   25.2003 C.ar    1  UNL1        0.0189
      4 C           3.2150   -0.1750   26.1672 C.ar    1  UNL1        0.0792
      5 C           4.0910   -1.2911   25.6804 C.ar    1  UNL1        0.0989
      6 C           4.0960   -1.6611   24.2268 C.ar    1  UNL1        0.0251
      7 N           4.8372   -1.8424   26.8591 N.ar    1  UNL1       -0.2239
      8 C           4.4223   -1.0670   28.0743 C.ar    1  UNL1        0.1788
      9 N           3.4197   -0.0365   27.6467 N.ar    1  UNL1       -0.3031
     10 N           4.2586   -2.2415   21.2794 N.am    1  UNL1       -0.2987
     11 C           3.2301   -1.2852   21.8063 C.2     1  UNL1        0.2461
     12 O           2.2066   -0.6990   20.8796 O.2     1  UNL1       -0.2701
     13 H           4.9303   -2.6263   21.8877 H       1  UNL1        0.1500
     14 C           4.2636   -2.6116   19.8258 C.3     1  UNL1        0.0943
     15 C           4.8925   -1.6932   18.8202 C.ar    1  UNL1       -0.0045
     16 C           4.0473   -1.0477   17.7625 C.ar    1  UNL1       -0.0027
     17 C           4.6762   -0.1293   16.7569 C.ar    1  UNL1       -0.0003
     18 C           6.1502    0.1435   16.8091 C.ar    1  UNL1       -0.0000
     19 C           6.9954   -0.5020   17.8669 C.ar    1  UNL1       -0.0003
     20 C           6.3666   -1.4204   18.8725 C.ar    1  UNL1       -0.0027
     21 C           4.5046   -5.0140   18.8665 C.3     1  UNL1        0.0021
     22 C           3.6398   -3.9000   19.3777 C.3     1  UNL1        0.0241
     23 C           2.7410    0.9578   28.5415 C.3     1  UNL1        0.1556
     24 C           1.4291    1.5602   28.1342 C.ar    1  UNL1        0.1093
     25 N           1.3731    2.9790   27.6506 N.ar    1  UNL1       -0.2416
     26 C           0.0611    3.5813   27.2433 C.ar    1  UNL1        0.1282
     27 C          -1.1949    2.7649   27.3196 C.ar    1  UNL1        0.1614
     28 F          -2.5069    3.3672   26.9123 F       1  UNL1       -0.2025
     29 C          -1.1389    1.3460   27.8032 C.ar    1  UNL1        0.0621
     30 C           0.1731    0.7437   28.2105 C.ar    1  UNL1        0.1577
     31 F           0.2290   -0.6752   28.6940 F       1  UNL1       -0.2028
@<TRIPOS>BOND
     1    21    22    1
     2    14    22    1
     3    14    10    1
     4    10    11   am
     5    11    12    2
     6    11     1    1
     7     1     2   ar
     8     2     3   ar
     9     3     4   ar
    10     4     5   ar
    11     5     6   ar
    12     5     7   ar
    13     7     8   ar
    14     8     9   ar
    15     9    23    1
    16    23    24    1
    17    24    25   ar
    18    25    26   ar
    19    26    27   ar
    20    27    28    1
    21    27    29   ar
    22    29    30   ar
    23    30    31    1
    24    14    15    1
    25    15    16   ar
    26    16    17   ar
    27    17    18   ar
    28    18    19   ar
    29    19    20   ar
    30     6     1   ar
    31    30    24   ar
    32    20    15   ar
    33     9     4   ar
    34    10    13    1
@<TRIPOS>MOLECULE
*****
 31 34 0 0 0
SMALL
GASTEIGER

@<TRIPOS>ATOM
      1 C           6.1736   -3.6863   24.2360 C.ar    1  UNL1        0.0550
      2 C           5.0563   -2.6906   24.3359 C.ar    1  UNL1        0.0061
      3 C           4.2990   -2.2872   23.1056 C.ar    1  UNL1        0.0189
      4 C           4.6591   -2.8796   21.7753 C.ar    1  UNL1        0.0792
      5 C           5.7765   -3.8753   21.6755 C.ar    1  UNL1        0.0989
      6 C           6.5337   -4.2786   22.9058 C.ar    1  UNL1        0.0251
      7 N           5.9036   -4.2867   20.2386 N.ar    1  UNL1       -0.2239
      8 C           4.8649   -3.5452   19.4504 C.ar    1  UNL1        0.1788
      9 N           4.0957   -2.6756   20.4002 N.ar    1  UNL1       -0.3031
     10 N           6.3280   -5.0669   26.4315 N.am    1  UNL1       -0.2987
     11 C           6.9310   -4.0897   25.4664 C.2     1  UNL1        0.2461
     12 O           8.2913   -3.5159   25.7316 O.2     1  UNL1       -0.2701
     13 H           5.4352   -5.4435   26.2574 H       1  UNL1        0.1500
     14 C           7.0853   -5.4703   27.6619 C.3     1  UNL1        0.0943
     15 C           6.8770   -4.7273   28.9481 C.ar    1  UNL1       -0.0045
     16 C           6.5063   -3.2740   28.9232 C.ar    1  UNL1       -0.0027
     17 C           6.2979   -2.5310   30.2094 C.ar    1  UNL1       -0.0003
     18 C           6.4602   -3.2411   31.5206 C.ar    1  UNL1       -0.0000
     19 C           6.8310   -4.6944   31.5456 C.ar    1  UNL1       -0.0003
     20 C           7.0394   -5.4375   30.2594 C.ar    1  UNL1       -0.0027
     21 C           9.4772   -6.3773   27.2079 C.3     1  UNL1        0.0021
     22 C           8.0510   -6.6168   27.6060 C.3     1  UNL1        0.0241
     23 C           2.9621   -1.7623   20.0383 C.3     1  UNL1        0.1556
     24 C           3.2459   -0.4044   19.4678 C.ar    1  UNL1        0.1093
     25 N           4.6632    0.0527   19.2886 N.ar    1  UNL1       -0.2416
     26 C           4.9470    1.4106   18.7181 C.ar    1  UNL1        0.1282
     27 C           3.8133    2.3116   18.3267 C.ar    1  UNL1        0.1614
     28 F           4.0971    3.6695   17.7562 F       1  UNL1       -0.2025
     29 C           2.3959    1.8544   18.5059 C.ar    1  UNL1        0.0621
     30 C           2.1121    0.4965   19.0764 C.ar    1  UNL1        0.1577
     31 F           0.6947    0.0395   19.2556 F       1  UNL1       -0.2028
@<TRIPOS>BOND
     1    21    22    1
     2    14    22    1
     3    14    10    1
     4    10    11   am
     5    11    12    2
     6    11     1    1
     7     1     2   ar
     8     2     3   ar
     9     3     4   ar
    10     4     5   ar
    11     5     6   ar
    12     5     7   ar
    13     7     8   ar
    14     8     9   ar
    15     9    23    1
    16    23    24    1
    17    24    25   ar
    18    25    26   ar
    19    26    27   ar
    20    27    28    1
    21    27    29   ar
    22    29    30   ar
    23    30    31    1
    24    14    15    1
    25    15    16   ar
    26    16    17   ar
    27    17    18   ar
    28    18    19   ar
    29    19    20   ar
    30     6     1   ar
    31    30    24   ar
    32    20    15   ar
    33     9     4   ar
    34    10    13    1
@<TRIPOS>MOLECULE
*****
 31 34 0 0 0
SMALL
GASTEIGER

@<TRIPOS>ATOM
      1 C           5.4720   -2.5769   24.8441 C.ar    1  UNL1        0.0550
      2 C           5.3245   -3.0873   23.4414 C.ar    1  UNL1        0.0061
      3 C           4.3488   -2.4376   22.5056 C.ar    1  UNL1        0.0189
      4 C           3.5206   -1.2774   22.9725 C.ar    1  UNL1        0.0792
      5 C           3.6681   -0.7669   24.3752 C.ar    1  UNL1        0.0989
      6 C           4.6437   -1.4167   25.3110 C.ar    1  UNL1        0.0251
      7 N           2.7231    0.3846   24.5511 N.ar    1  UNL1       -0.2239
      8 C           1.9916    0.5859   23.2571 C.ar    1  UNL1        0.1788
      9 N           2.4845   -0.4413   22.2814 N.ar    1  UNL1       -0.3031
     10 N           5.9642   -3.8389   27.0611 N.am    1  UNL1       -0.2987
     11 C           6.4477   -3.2266   25.7800 C.2     1  UNL1        0.2461
     12 O           7.9069   -3.2640   25.4348 O.2     1  UNL1       -0.2701
     13 H           5.0064   -3.8143   27.2877 H       1  UNL1        0.1500
     14 C           6.9399   -4.4886   27.9971 C.3     1  UNL1        0.0943
     15 C           7.4036   -5.8921   27.7413 C.ar    1  UNL1       -0.0045
     16 C           6.9140   -6.6355   26.5341 C.ar    1  UNL1       -0.0027
     17 C           7.3777   -8.0389   26.2783 C.ar    1  UNL1       -0.0003
     18 C           8.3311   -8.6989   27.2299 C.ar    1  UNL1       -0.0000
     19 C           8.8207   -7.9555   28.4373 C.ar    1  UNL1       -0.0003
     20 C           8.3570   -6.5521   28.6930 C.ar    1  UNL1       -0.0027
     21 C           6.5360   -3.4393   30.3392 C.3     1  UNL1        0.0021
     22 C           7.4518   -3.7350   29.1886 C.3     1  UNL1        0.0241
     23 C           2.0224   -0.6039   20.8637 C.3     1  UNL1        0.1556
     24 C           2.9764   -0.3625   19.7316 C.ar    1  UNL1        0.1093
     25 N           3.3611    1.0391   19.3608 N.ar    1  UNL1       -0.2416
     26 C           4.3151    1.2804   18.2287 C.ar    1  UNL1        0.1282
     27 C           4.8844    0.1201   17.4674 C.ar    1  UNL1        0.1614
     28 F           5.8384    0.3614   16.3353 F       1  UNL1       -0.2025
     29 C           4.4997   -1.2815   17.8382 C.ar    1  UNL1        0.0621
     30 C           3.5457   -1.5229   18.9703 C.ar    1  UNL1        0.1577
     31 F           3.1611   -2.9245   19.3411 F       1  UNL1       -0.2028
@<TRIPOS>BOND
     1    21    22    1
     2    14    22    1
     3    14    10    1
     4    10    11   am
     5    11    12    2
     6    11     1    1
     7     1     2   ar
     8     2     3   ar
     9     3     4   ar
    10     4     5   ar
    11     5     6   ar
    12     5     7   ar
    13     7     8   ar
    14     8     9   ar
    15     9    23    1
    16    23    24    1
    17    24    25   ar
    18    25    26   ar
    19    26    27   ar
    20    27    28    1
    21    27    29   ar
    22    29    30   ar
    23    30    31    1
    24    14    15    1
    25    15    16   ar
    26    16    17   ar
    27    17    18   ar
    28    18    19   ar
    29    19    20   ar
    30     6     1   ar
    31    30    24   ar
    32    20    15   ar
    33     9     4   ar
    34    10    13    1
