@<TRIPOS>MOLECULE
*****
 21 22 0 0 0
SMALL
GASTEIGER

@<TRIPOS>ATOM
      1 C          -8.0907  -19.3661   20.3781 C.ar    1  UNL1        0.0003
      2 C          -8.4022  -18.7715   21.7195 C.ar    1  UNL1        0.0031
      3 C          -9.8113  -18.3865   22.0603 C.ar    1  UNL1        0.0372
      4 C         -10.9089  -18.5962   21.0597 C.ar    1  UNL1        0.1468
      5 C         -10.5975  -19.1908   19.7183 C.ar    1  UNL1        0.0372
      6 C          -9.1884  -19.5758   19.3775 C.ar    1  UNL1        0.0031
      7 C          -5.5336  -19.1133   20.7620 C.2     1  UNL1        0.0435
      8 C          -6.6816  -19.7511   20.0372 C.2     1  UNL1        0.0033
      9 O          -3.8121  -20.9034   19.9991 O.2     1  UNL1       -0.2850
     10 C          -4.1245  -19.4983   20.4211 C.2     1  UNL1        0.2111
     11 C          -3.0278  -18.4782   20.5022 C.ar    1  UNL1        0.0961
     12 C          -1.8027  -18.4301   19.6380 C.ar    1  UNL1        0.0218
     13 C          -0.9814  -17.2492   20.0634 C.ar    1  UNL1        0.0200
     14 C          -1.6988  -16.5675   21.1907 C.ar    1  UNL1        0.0725
     15 N          -2.9635  -17.3271   21.4619 N.ar    1  UNL1       -0.3495
     16 H          -3.6338  -17.1085   22.1490 H       1  UNL1        0.1661
     17 O         -12.3181  -18.2112   21.4006 O.3     1  UNL1       -0.4045
     18 C         -12.5954  -16.8996   22.0734 C.3     1  UNL1        0.5753
     19 F         -12.8727  -15.5879   22.7462 F       1  UNL1       -0.1328
     20 F         -13.1350  -17.6269   23.2690 F       1  UNL1       -0.1328
     21 F         -12.0558  -16.1722   20.8777 F       1  UNL1       -0.1328
@<TRIPOS>BOND
     1     9    10    2
     2    10     7    1
     3     7     8    2
     4     8     1    1
     5     1     2   ar
     6     2     3   ar
     7     3     4   ar
     8     4    17    1
     9    17    18    1
    10    18    19    1
    11    18    20    1
    12    18    21    1
    13     4     5   ar
    14     5     6   ar
    15    10    11    1
    16    11    12   ar
    17    12    13   ar
    18    13    14   ar
    19    14    15   ar
    20     6     1   ar
    21    15    11   ar
    22    15    16    1
@<TRIPOS>MOLECULE
*****
 21 22 0 0 0
SMALL
GASTEIGER

@<TRIPOS>ATOM
      1 C          -5.9320  -19.3932   21.0805 C.ar    1  UNL1        0.0003
      2 C          -5.1375  -19.4765   22.3501 C.ar    1  UNL1        0.0031
      3 C          -3.6421  -19.3673   22.3075 C.ar    1  UNL1        0.0372
      4 C          -2.9412  -19.1749   20.9954 C.ar    1  UNL1        0.1468
      5 C          -3.7357  -19.0916   19.7258 C.ar    1  UNL1        0.0372
      6 C          -5.2311  -19.2007   19.7684 C.ar    1  UNL1        0.0031
      7 C          -8.1807  -19.0205   22.3274 C.2     1  UNL1        0.0435
      8 C          -7.4275  -19.5023   21.1231 C.2     1  UNL1        0.0033
      9 O         -10.3236  -20.3047   23.0409 O.2     1  UNL1       -0.2850
     10 C          -9.6761  -19.1296   22.3700 C.2     1  UNL1        0.2111
     11 C         -10.5241  -18.0638   21.7416 C.ar    1  UNL1        0.0961
     12 C         -12.0195  -17.9711   21.8122 C.ar    1  UNL1        0.0218
     13 C         -12.4451  -16.7535   21.0466 C.ar    1  UNL1        0.0200
     14 C         -11.2127  -16.0935   20.5028 C.ar    1  UNL1        0.0725
     15 N         -10.0254  -16.9034   20.9324 N.ar    1  UNL1       -0.3495
     16 H          -9.0841  -16.7076   20.7204 H       1  UNL1        0.1661
     17 O          -1.4457  -19.0658   20.9529 O.3     1  UNL1       -0.4045
     18 C          -0.7994  -17.7953   20.4859 C.3     1  UNL1        0.5753
     19 F          -0.1531  -16.5247   20.0190 F       1  UNL1       -0.1328
     20 F          -1.7201  -17.0034   21.3664 F       1  UNL1       -0.1328
     21 F           0.1212  -18.5872   19.6055 F       1  UNL1       -0.1328
@<TRIPOS>BOND
     1     9    10    2
     2    10     7    1
     3     7     8    2
     4     8     1    1
     5     1     2   ar
     6     2     3   ar
     7     3     4   ar
     8     4    17    1
     9    17    18    1
    10    18    19    1
    11    18    20    1
    12    18    21    1
    13     4     5   ar
    14     5     6   ar
    15    10    11    1
    16    11    12   ar
    17    12    13   ar
    18    13    14   ar
    19    14    15   ar
    20     6     1   ar
    21    15    11   ar
    22    15    16    1
@<TRIPOS>MOLECULE
*****
 21 22 0 0 0
SMALL
GASTEIGER

@<TRIPOS>ATOM
      1 C          -7.3850  -18.5573   22.2840 C.ar    1  UNL1        0.0003
      2 C          -8.4302  -19.5854   21.9671 C.ar    1  UNL1        0.0031
      3 C          -9.8828  -19.2596   22.1514 C.ar    1  UNL1        0.0372
      4 C         -10.2901  -17.9057   22.6525 C.ar    1  UNL1        0.1468
      5 C          -9.2448  -16.8776   22.9694 C.ar    1  UNL1        0.0372
      6 C          -7.7923  -17.2034   22.7852 C.ar    1  UNL1        0.0031
      7 C          -5.4062  -19.2189   20.7359 C.2     1  UNL1        0.0435
      8 C          -5.9324  -18.8831   22.0998 C.2     1  UNL1        0.0033
      9 O          -3.5299  -20.9589   20.2862 O.2     1  UNL1       -0.2850
     10 C          -3.9536  -19.5447   20.5517 C.2     1  UNL1        0.2111
     11 C          -2.9247  -18.4563   20.6331 C.ar    1  UNL1        0.0961
     12 C          -1.6696  -18.3667   19.8165 C.ar    1  UNL1        0.0218
     13 C          -0.9394  -17.1214   20.2240 C.ar    1  UNL1        0.0200
     14 C          -1.7432  -16.4413   21.2924 C.ar    1  UNL1        0.0725
     15 N          -2.9701  -17.2663   21.5452 N.ar    1  UNL1       -0.3495
     16 H          -3.6806  -17.0626   22.1957 H       1  UNL1        0.1661
     17 O         -11.7427  -17.5799   22.8367 O.3     1  UNL1       -0.4045
     18 C         -12.5027  -18.1671   23.9888 C.3     1  UNL1        0.5753
     19 F         -13.2629  -18.7543   25.1410 F       1  UNL1       -0.1328
     20 F         -13.7786  -18.0441   23.2098 F       1  UNL1       -0.1328
     21 F         -11.2269  -18.2901   24.7678 F       1  UNL1       -0.1328
@<TRIPOS>BOND
     1     9    10    2
     2    10     7    1
     3     7     8    2
     4     8     1    1
     5     1     2   ar
     6     2     3   ar
     7     3     4   ar
     8     4    17    1
     9    17    18    1
    10    18    19    1
    11    18    20    1
    12    18    21    1
    13     4     5   ar
    14     5     6   ar
    15    10    11    1
    16    11    12   ar
    17    12    13   ar
    18    13    14   ar
    19    14    15   ar
    20     6     1   ar
    21    15    11   ar
    22    15    16    1
@<TRIPOS>MOLECULE
*****
 21 22 0 0 0
SMALL
GASTEIGER

@<TRIPOS>ATOM
      1 C          -7.3289  -18.5161   22.3236 C.ar    1  UNL1        0.0003
      2 C          -8.2223  -19.7156   22.4368 C.ar    1  UNL1        0.0031
      3 C          -9.7124  -19.5436   22.4358 C.ar    1  UNL1        0.0372
      4 C         -10.3090  -18.1722   22.3215 C.ar    1  UNL1        0.1468
      5 C          -9.4156  -16.9726   22.2083 C.ar    1  UNL1        0.0372
      6 C          -7.9255  -17.1446   22.2094 C.ar    1  UNL1        0.0031
      7 C          -4.9710  -17.7065   23.0551 C.2     1  UNL1        0.0435
      8 C          -5.8387  -18.6880   22.3246 C.2     1  UNL1        0.0033
      9 O          -2.7436  -18.0239   24.3543 O.2     1  UNL1       -0.2850
     10 C          -3.4808  -17.8784   23.0562 C.2     1  UNL1        0.2111
     11 C          -2.7280  -17.9048   21.7591 C.ar    1  UNL1        0.0961
     12 C          -2.1502  -19.1219   21.0997 C.ar    1  UNL1        0.0218
     13 C          -1.4859  -18.6881   19.8267 C.ar    1  UNL1        0.0200
     14 C          -1.6532  -17.2029   19.6993 C.ar    1  UNL1        0.0725
     15 N          -2.4209  -16.7188   20.8936 N.ar    1  UNL1       -0.3495
     16 H          -2.6780  -15.7864   21.0771 H       1  UNL1        0.1661
     17 O         -11.7992  -18.0002   22.3205 O.3     1  UNL1       -0.4045
     18 C         -12.4375  -16.9944   21.4091 C.3     1  UNL1        0.5753
     19 F         -13.0758  -15.9884   20.4976 F       1  UNL1       -0.1328
     20 F         -12.0153  -17.8045   20.2194 F       1  UNL1       -0.1328
     21 F         -12.8597  -16.1842   22.5988 F       1  UNL1       -0.1328
@<TRIPOS>BOND
     1     9    10    2
     2    10     7    1
     3     7     8    2
     4     8     1    1
     5     1     2   ar
     6     2     3   ar
     7     3     4   ar
     8     4    17    1
     9    17    18    1
    10    18    19    1
    11    18    20    1
    12    18    21    1
    13     4     5   ar
    14     5     6   ar
    15    10    11    1
    16    11    12   ar
    17    12    13   ar
    18    13    14   ar
    19    14    15   ar
    20     6     1   ar
    21    15    11   ar
    22    15    16    1
@<TRIPOS>MOLECULE
*****
 21 22 0 0 0
SMALL
GASTEIGER

@<TRIPOS>ATOM
      1 C          -9.3857  -19.0564   22.0906 C.ar    1  UNL1        0.0003
      2 C         -10.6960  -19.2039   21.3755 C.ar    1  UNL1        0.0031
      3 C         -11.9434  -18.6172   21.9670 C.ar    1  UNL1        0.0372
      4 C         -11.8805  -17.8831   23.2735 C.ar    1  UNL1        0.1468
      5 C         -10.5702  -17.7356   23.9886 C.ar    1  UNL1        0.0372
      6 C          -9.3229  -18.3223   23.3972 C.ar    1  UNL1        0.0031
      7 C          -6.7933  -19.1905   21.9850 C.2     1  UNL1        0.0435
      8 C          -8.1383  -19.6431   21.4992 C.2     1  UNL1        0.0033
      9 O          -5.6355  -20.9599   20.4753 O.2     1  UNL1       -0.2850
     10 C          -5.5458  -19.7772   21.3936 C.2     1  UNL1        0.2111
     11 C          -4.2087  -19.1813   21.7204 C.ar    1  UNL1        0.0961
     12 C          -3.9236  -18.2080   22.8256 C.ar    1  UNL1        0.0218
     13 C          -2.4606  -17.8791   22.7878 C.ar    1  UNL1        0.0200
     14 C          -1.8415  -18.6491   21.6591 C.ar    1  UNL1        0.0725
     15 N          -2.9218  -19.4539   20.9995 N.ar    1  UNL1       -0.3495
     16 H          -2.8066  -20.0554   20.2287 H       1  UNL1        0.1661
     17 O         -13.1279  -17.2964   23.8649 O.3     1  UNL1       -0.4045
     18 C         -14.2993  -18.1809   24.1739 C.3     1  UNL1        0.5753
     19 F         -15.4708  -19.0655   24.4828 F       1  UNL1       -0.1328
     20 F         -14.6395  -18.2402   22.7142 F       1  UNL1       -0.1328
     21 F         -13.9591  -18.1217   25.6335 F       1  UNL1       -0.1328
@<TRIPOS>BOND
     1     9    10    2
     2    10     7    1
     3     7     8    2
     4     8     1    1
     5     1     2   ar
     6     2     3   ar
     7     3     4   ar
     8     4    17    1
     9    17    18    1
    10    18    19    1
    11    18    20    1
    12    18    21    1
    13     4     5   ar
    14     5     6   ar
    15    10    11    1
    16    11    12   ar
    17    12    13   ar
    18    13    14   ar
    19    14    15   ar
    20     6     1   ar
    21    15    11   ar
    22    15    16    1
@<TRIPOS>MOLECULE
*****
 21 22 0 0 0
SMALL
GASTEIGER

@<TRIPOS>ATOM
      1 C         -13.7052   -6.9380   18.4691 C.ar    1  UNL1        0.0003
      2 C         -14.8151   -6.4224   19.3364 C.ar    1  UNL1        0.0031
      3 C         -16.0083   -7.2860   19.6198 C.ar    1  UNL1        0.0372
      4 C         -16.0917   -8.6652   19.0358 C.ar    1  UNL1        0.1468
      5 C         -14.9818   -9.1808   18.1686 C.ar    1  UNL1        0.0372
      6 C         -13.7886   -8.3172   17.8852 C.ar    1  UNL1        0.0031
      7 C         -11.8625   -5.3043   19.2970 C.2     1  UNL1        0.0435
      8 C         -12.5119   -6.0744   18.1857 C.2     1  UNL1        0.0033
      9 O          -9.2905   -4.9385   19.3323 O.2     1  UNL1       -0.2850
     10 C         -10.6692   -4.4407   19.0136 C.2     1  UNL1        0.2111
     11 C         -10.8545   -3.0794   18.4115 C.ar    1  UNL1        0.0961
     12 C         -11.8207   -2.0322   18.8803 C.ar    1  UNL1        0.0218
     13 C         -11.6695   -0.8319   17.9935 C.ar    1  UNL1        0.0200
     14 C         -10.6099   -1.1373   16.9766 C.ar    1  UNL1        0.0725
     15 N         -10.1062   -2.5264   17.2350 N.ar    1  UNL1       -0.3495
     16 H          -9.4073   -2.9931   16.7223 H       1  UNL1        0.1661
     17 O         -17.2850   -9.5287   19.3193 O.3     1  UNL1       -0.4045
     18 C         -18.0692  -10.1201   18.1855 C.3     1  UNL1        0.5753
     19 F         -18.8533  -10.7115   17.0517 F       1  UNL1       -0.1328
     20 F         -17.4214  -11.4504   18.4314 F       1  UNL1       -0.1328
     21 F         -18.7169   -8.7897   17.9396 F       1  UNL1       -0.1328
@<TRIPOS>BOND
     1     9    10    2
     2    10     7    1
     3     7     8    2
     4     8     1    1
     5     1     2   ar
     6     2     3   ar
     7     3     4   ar
     8     4    17    1
     9    17    18    1
    10    18    19    1
    11    18    20    1
    12    18    21    1
    13     4     5   ar
    14     5     6   ar
    15    10    11    1
    16    11    12   ar
    17    12    13   ar
    18    13    14   ar
    19    14    15   ar
    20     6     1   ar
    21    15    11   ar
    22    15    16    1
@<TRIPOS>MOLECULE
*****
 21 22 0 0 0
SMALL
GASTEIGER

@<TRIPOS>ATOM
      1 C           3.3838   -1.0865   23.0257 C.ar    1  UNL1        0.0003
      2 C           2.5393   -0.5392   21.9135 C.ar    1  UNL1        0.0031
      3 C           2.6012   -1.1602   20.5495 C.ar    1  UNL1        0.0372
      4 C           3.5076   -2.3285   20.2978 C.ar    1  UNL1        0.1468
      5 C           4.3522   -2.8758   21.4100 C.ar    1  UNL1        0.0372
      6 C           4.2903   -2.2548   22.7740 C.ar    1  UNL1        0.0031
      7 C           2.3187    0.6115   24.6787 C.2     1  UNL1        0.0435
      8 C           3.3219   -0.4655   24.3898 C.2     1  UNL1        0.0033
      9 O           3.2868    2.2421   26.4546 O.2     1  UNL1       -0.2850
     10 C           2.2568    1.2325   26.0428 C.2     1  UNL1        0.2111
     11 C           1.1649    0.8439   26.9950 C.ar    1  UNL1        0.0961
     12 C          -0.2136    1.4334   27.0437 C.ar    1  UNL1        0.0218
     13 C          -0.9707    0.7513   28.1444 C.ar    1  UNL1        0.0200
     14 C          -0.0602   -0.2597   28.7760 C.ar    1  UNL1        0.0725
     15 N           1.2596   -0.2025   28.0655 N.ar    1  UNL1       -0.3495
     16 H           2.0494   -0.7548   28.2666 H       1  UNL1        0.1661
     17 O           3.5695   -2.9495   18.9337 O.3     1  UNL1       -0.4045
     18 C           4.1605   -4.3169   18.7583 C.3     1  UNL1        0.5753
     19 F           4.7516   -5.6844   18.5829 F       1  UNL1       -0.1328
     20 F           5.4324   -3.7025   18.2535 F       1  UNL1       -0.1328
     21 F           2.8887   -4.9314   19.2631 F       1  UNL1       -0.1328
@<TRIPOS>BOND
     1     9    10    2
     2    10     7    1
     3     7     8    2
     4     8     1    1
     5     1     2   ar
     6     2     3   ar
     7     3     4   ar
     8     4    17    1
     9    17    18    1
    10    18    19    1
    11    18    20    1
    12    18    21    1
    13     4     5   ar
    14     5     6   ar
    15    10    11    1
    16    11    12   ar
    17    12    13   ar
    18    13    14   ar
    19    14    15   ar
    20     6     1   ar
    21    15    11   ar
    22    15    16    1
@<TRIPOS>MOLECULE
*****
 21 22 0 0 0
SMALL
GASTEIGER

@<TRIPOS>ATOM
      1 C           1.5576    0.6057   18.7938 C.ar    1  UNL1        0.0003
      2 C           1.2921   -0.2085   20.0253 C.ar    1  UNL1        0.0031
      3 C           2.2267   -1.3179   20.4067 C.ar    1  UNL1        0.0372
      4 C           3.4269   -1.6131   19.5567 C.ar    1  UNL1        0.1468
      5 C           3.6924   -0.7988   18.3253 C.ar    1  UNL1        0.0372
      6 C           2.7578    0.3106   17.9439 C.ar    1  UNL1        0.0031
      7 C          -0.0336    2.5425   19.4775 C.2     1  UNL1        0.0435
      8 C           0.6229    1.7152   18.4123 C.2     1  UNL1        0.0033
      9 O          -0.4564    4.8316   18.3238 O.2     1  UNL1       -0.2850
     10 C          -0.9683    3.6520   19.0960 C.2     1  UNL1        0.2111
     11 C          -2.4147    3.5817   19.4867 C.ar    1  UNL1        0.0961
     12 C          -3.5787    3.9978   18.6370 C.ar    1  UNL1        0.0218
     13 C          -4.8346    3.7563   19.4208 C.ar    1  UNL1        0.0200
     14 C          -4.4468    3.1909   20.7550 C.ar    1  UNL1        0.0725
     15 N          -2.9513    3.0830   20.7957 N.ar    1  UNL1       -0.3495
     16 H          -2.4158    2.7444   21.5493 H       1  UNL1        0.1661
     17 O           4.3616   -2.7226   19.9383 O.3     1  UNL1       -0.4045
     18 C           4.5150   -3.9155   19.0420 C.3     1  UNL1        0.5753
     19 F           4.6684   -5.1086   18.1458 F       1  UNL1       -0.1328
     20 F           3.0604   -4.2357   19.2192 F       1  UNL1       -0.1328
     21 F           5.9697   -3.5954   18.8649 F       1  UNL1       -0.1328
@<TRIPOS>BOND
     1     9    10    2
     2    10     7    1
     3     7     8    2
     4     8     1    1
     5     1     2   ar
     6     2     3   ar
     7     3     4   ar
     8     4    17    1
     9    17    18    1
    10    18    19    1
    11    18    20    1
    12    18    21    1
    13     4     5   ar
    14     5     6   ar
    15    10    11    1
    16    11    12   ar
    17    12    13   ar
    18    13    14   ar
    19    14    15   ar
    20     6     1   ar
    21    15    11   ar
    22    15    16    1
@<TRIPOS>MOLECULE
*****
 21 22 0 0 0
SMALL
GASTEIGER

@<TRIPOS>ATOM
      1 C           6.9729   -4.2059   23.3243 C.ar    1  UNL1        0.0003
      2 C           7.7191   -4.3177   22.0280 C.ar    1  UNL1        0.0031
      3 C           7.0300   -3.9942   20.7356 C.ar    1  UNL1        0.0372
      4 C           5.5945   -3.5588   20.7395 C.ar    1  UNL1        0.1468
      5 C           4.8483   -3.4470   22.0359 C.ar    1  UNL1        0.0372
      6 C           5.5374   -3.7706   23.3283 C.ar    1  UNL1        0.0031
      7 C           6.8539   -4.7807   25.8553 C.2     1  UNL1        0.0435
      8 C           7.6620   -4.5295   24.6168 C.2     1  UNL1        0.0033
      9 O           7.7116   -4.0427   28.1940 O.2     1  UNL1       -0.2850
     10 C           7.5431   -5.1042   27.1478 C.2     1  UNL1        0.2111
     11 C           8.0636   -6.4892   27.3939 C.ar    1  UNL1        0.0961
     12 C           7.6405   -7.7320   26.6684 C.ar    1  UNL1        0.0218
     13 C           8.4141   -8.8856   27.2349 C.ar    1  UNL1        0.0200
     14 C           9.3154   -8.3557   28.3105 C.ar    1  UNL1        0.0725
     15 N           9.0988   -6.8747   28.4088 N.ar    1  UNL1       -0.3495
     16 H           9.5558   -6.2630   29.0302 H       1  UNL1        0.1661
     17 O           4.9054   -3.2353   19.4471 O.3     1  UNL1       -0.4045
     18 C           3.6547   -3.9674   19.0602 C.3     1  UNL1        0.5753
     19 F           2.4039   -4.6996   18.6734 F       1  UNL1       -0.1328
     20 F           4.4816   -5.1086   18.5465 F       1  UNL1       -0.1328
     21 F           2.8278   -2.8263   19.5740 F       1  UNL1       -0.1328
@<TRIPOS>BOND
     1     9    10    2
     2    10     7    1
     3     7     8    2
     4     8     1    1
     5     1     2   ar
     6     2     3   ar
     7     3     4   ar
     8     4    17    1
     9    17    18    1
    10    18    19    1
    11    18    20    1
    12    18    21    1
    13     4     5   ar
    14     5     6   ar
    15    10    11    1
    16    11    12   ar
    17    12    13   ar
    18    13    14   ar
    19    14    15   ar
    20     6     1   ar
    21    15    11   ar
    22    15    16    1
