@<TRIPOS>MOLECULE
*****
 19 21 0 0 0
SMALL
GASTEIGER

@<TRIPOS>ATOM
      1 C          -9.7340   -5.4296   19.2183 C.3     1  UNL1        0.0952
      2 C         -10.7934   -6.3134   18.6294 C.2     1  UNL1        0.2298
      3 O         -10.4095   -7.4306   17.7052 O.2     1  UNL1       -0.2745
      4 N         -12.2367   -6.0798   18.9648 N.am    1  UNL1       -0.2586
      5 C         -12.7694   -5.0078   19.8688 C.3     1  UNL1        0.1029
      6 C         -14.2626   -5.1427   19.9178 C.3     1  UNL1        0.0495
      7 C         -14.6526   -6.2980   19.0442 C.ar    1  UNL1       -0.0068
      8 C         -15.9861   -6.8974   18.7089 C.ar    1  UNL1       -0.0029
      9 C         -16.0675   -8.0760   17.7846 C.ar    1  UNL1        0.0010
     10 C         -14.8154   -8.6552   17.1957 C.ar    1  UNL1        0.0013
     11 C         -13.4819   -8.0557   17.5310 C.ar    1  UNL1        0.0146
     12 C         -13.4005   -6.8772   18.4552 C.ar    1  UNL1        0.0499
     13 C         -17.4010   -8.6755   17.4493 C.ar    1  UNL1        0.0152
     14 C         -18.2124   -8.1150   16.3191 C.ar    1  UNL1        0.0985
     15 N         -19.5459   -8.7144   15.9837 N.ar    1  UNL1       -0.2423
     16 C         -20.0680   -9.8744   16.7786 C.ar    1  UNL1        0.0986
     17 C         -19.2566  -10.4350   17.9088 C.ar    1  UNL1        0.0164
     18 C         -17.9231   -9.8355   18.2442 C.ar    1  UNL1       -0.0188
     19 C         -17.1117  -10.3960   19.3744 C.3     1  UNL1        0.0311
@<TRIPOS>BOND
     1     1     2    1
     2     2     3    2
     3     2     4   am
     4     4     5    1
     5     5     6    1
     6     6     7    1
     7     7     8   ar
     8     8     9   ar
     9     9    13    1
    10    13    14   ar
    11    14    15   ar
    12    15    16   ar
    13    16    17   ar
    14    17    18   ar
    15    18    19    1
    16     9    10   ar
    17    10    11   ar
    18    11    12   ar
    19    12     4    1
    20    12     7   ar
    21    18    13   ar
@<TRIPOS>MOLECULE
*****
 19 21 0 0 0
SMALL
GASTEIGER

@<TRIPOS>ATOM
      1 C         -10.5076   -1.0941   16.9456 C.3     1  UNL1        0.0952
      2 C         -11.6576   -2.0568   16.9124 C.2     1  UNL1        0.2298
      3 O         -12.8781   -1.7393   16.1005 O.2     1  UNL1       -0.2745
      4 N         -11.5867   -3.3369   17.6910 N.am    1  UNL1       -0.2586
      5 C         -10.4378   -3.7880   18.5434 C.3     1  UNL1        0.1029
      6 C         -10.7934   -5.1206   19.1331 C.3     1  UNL1        0.0495
      7 C         -12.1621   -5.4931   18.6452 C.ar    1  UNL1       -0.0068
      8 C         -13.0252   -6.6936   18.8974 C.ar    1  UNL1       -0.0029
      9 C         -14.3786   -6.7918   18.2582 C.ar    1  UNL1        0.0010
     10 C         -14.8689   -5.6894   17.3669 C.ar    1  UNL1        0.0013
     11 C         -14.0058   -4.4889   17.1148 C.ar    1  UNL1        0.0146
     12 C         -12.6524   -4.3907   17.7539 C.ar    1  UNL1        0.0499
     13 C         -15.2419   -7.9924   18.5103 C.ar    1  UNL1        0.0152
     14 C         -14.7763   -9.3535   18.0852 C.ar    1  UNL1        0.0985
     15 N         -15.6394  -10.5540   18.3373 N.ar    1  UNL1       -0.2423
     16 C         -16.9682  -10.3936   19.0146 C.ar    1  UNL1        0.0986
     17 C         -17.4338   -9.0325   19.4397 C.ar    1  UNL1        0.0164
     18 C         -16.5706   -7.8319   19.1876 C.ar    1  UNL1       -0.0188
     19 C         -17.0361   -6.4708   19.6128 C.3     1  UNL1        0.0311
@<TRIPOS>BOND
     1     1     2    1
     2     2     3    2
     3     2     4   am
     4     4     5    1
     5     5     6    1
     6     6     7    1
     7     7     8   ar
     8     8     9   ar
     9     9    13    1
    10    13    14   ar
    11    14    15   ar
    12    15    16   ar
    13    16    17   ar
    14    17    18   ar
    15    18    19    1
    16     9    10   ar
    17    10    11   ar
    18    11    12   ar
    19    12     4    1
    20    12     7   ar
    21    18    13   ar
@<TRIPOS>MOLECULE
*****
 19 21 0 0 0
SMALL
GASTEIGER

@<TRIPOS>ATOM
      1 C         -20.4457   -8.9357   20.3683 C.3     1  UNL1        0.0952
      2 C         -19.5811   -7.7394   20.1007 C.2     1  UNL1        0.2298
      3 O         -20.1807   -6.3645   20.1061 O.2     1  UNL1       -0.2745
      4 N         -18.1170   -7.9181   19.8279 N.am    1  UNL1       -0.2586
      5 C         -17.3802   -9.2241   19.7899 C.3     1  UNL1        0.1029
      6 C         -15.9405   -8.9353   19.4837 C.3     1  UNL1        0.0495
      7 C         -15.7875   -7.4508   19.3323 C.ar    1  UNL1       -0.0068
      8 C         -14.5971   -6.5903   19.0283 C.ar    1  UNL1       -0.0029
      9 C         -14.7519   -5.1012   18.9370 C.ar    1  UNL1        0.0010
     10 C         -16.0971   -4.4725   19.1497 C.ar    1  UNL1        0.0013
     11 C         -17.2875   -5.3330   19.4538 C.ar    1  UNL1        0.0146
     12 C         -17.1327   -6.8221   19.5451 C.ar    1  UNL1        0.0499
     13 C         -13.5615   -4.2406   18.6330 C.ar    1  UNL1        0.0152
     14 C         -12.8813   -4.3451   17.3001 C.ar    1  UNL1        0.0985
     15 N         -11.6909   -3.4846   16.9960 N.ar    1  UNL1       -0.2423
     16 C         -11.1806   -2.5195   18.0248 C.ar    1  UNL1        0.0986
     17 C         -11.8608   -2.4151   19.3577 C.ar    1  UNL1        0.0164
     18 C         -13.0512   -3.2756   19.6617 C.ar    1  UNL1       -0.0188
     19 C         -13.7314   -3.1711   20.9946 C.3     1  UNL1        0.0311
@<TRIPOS>BOND
     1     1     2    1
     2     2     3    2
     3     2     4   am
     4     4     5    1
     5     5     6    1
     6     6     7    1
     7     7     8   ar
     8     8     9   ar
     9     9    13    1
    10    13    14   ar
    11    14    15   ar
    12    15    16   ar
    13    16    17   ar
    14    17    18   ar
    15    18    19    1
    16     9    10   ar
    17    10    11   ar
    18    11    12   ar
    19    12     4    1
    20    12     7   ar
    21    18    13   ar
@<TRIPOS>MOLECULE
*****
 19 21 0 0 0
SMALL
GASTEIGER

@<TRIPOS>ATOM
      1 C         -15.0002    2.4174   18.5461 C.3     1  UNL1        0.0952
      2 C         -14.6786    0.9807   18.8338 C.2     1  UNL1        0.2298
      3 O         -15.5978    0.1640   19.6927 O.2     1  UNL1       -0.2745
      4 N         -13.4378    0.3610   18.2626 N.am    1  UNL1       -0.2586
      5 C         -12.4293    1.0493   17.3912 C.3     1  UNL1        0.1029
      6 C         -11.3559    0.0578   17.0525 C.3     1  UNL1        0.0495
      7 C         -11.7010   -1.2432   17.7145 C.ar    1  UNL1       -0.0068
      8 C         -11.0098   -2.5743   17.7329 C.ar    1  UNL1       -0.0029
      9 C         -11.6053   -3.7180   18.4992 C.ar    1  UNL1        0.0010
     10 C         -12.8920   -3.5307   19.2471 C.ar    1  UNL1        0.0013
     11 C         -13.5832   -2.1996   19.2287 C.ar    1  UNL1        0.0146
     12 C         -12.9877   -1.0559   18.4624 C.ar    1  UNL1        0.0499
     13 C         -10.9141   -5.0492   18.5177 C.ar    1  UNL1        0.0152
     14 C          -9.7052   -5.2546   19.3816 C.ar    1  UNL1        0.0985
     15 N          -9.0140   -6.5857   19.4001 N.ar    1  UNL1       -0.2423
     16 C          -9.5317   -7.7115   18.5546 C.ar    1  UNL1        0.0986
     17 C         -10.7406   -7.5061   17.6907 C.ar    1  UNL1        0.0164
     18 C         -11.4318   -6.1749   17.6723 C.ar    1  UNL1       -0.0188
     19 C         -12.6407   -5.9695   16.8084 C.3     1  UNL1        0.0311
@<TRIPOS>BOND
     1     1     2    1
     2     2     3    2
     3     2     4   am
     4     4     5    1
     5     5     6    1
     6     6     7    1
     7     7     8   ar
     8     8     9   ar
     9     9    13    1
    10    13    14   ar
    11    14    15   ar
    12    15    16   ar
    13    16    17   ar
    14    17    18   ar
    15    18    19    1
    16     9    10   ar
    17    10    11   ar
    18    11    12   ar
    19    12     4    1
    20    12     7   ar
    21    18    13   ar
@<TRIPOS>MOLECULE
*****
 19 21 0 0 0
SMALL
GASTEIGER

@<TRIPOS>ATOM
      1 C          -9.7575   -7.6398   18.5095 C.3     1  UNL1        0.0952
      2 C         -10.0521   -6.1936   18.7778 C.2     1  UNL1        0.2298
      3 O          -9.1760   -5.4103   19.7098 O.2     1  UNL1       -0.2745
      4 N         -11.2227   -5.5310   18.1142 N.am    1  UNL1       -0.2586
      5 C         -12.1824   -6.1829   17.1634 C.3     1  UNL1        0.1029
      6 C         -13.1920   -5.1549   16.7464 C.3     1  UNL1        0.0495
      7 C         -12.8563   -3.8676   17.4394 C.ar    1  UNL1       -0.0068
      8 C         -13.5016   -2.5139   17.4099 C.ar    1  UNL1       -0.0029
      9 C         -12.9298   -1.3926   18.2258 C.ar    1  UNL1        0.0010
     10 C         -11.7127   -1.6251   19.0711 C.ar    1  UNL1        0.0013
     11 C         -11.0674   -2.9788   19.1006 C.ar    1  UNL1        0.0146
     12 C         -11.6392   -4.1001   18.2848 C.ar    1  UNL1        0.0499
     13 C         -13.5751   -0.0388   18.1964 C.ar    1  UNL1        0.0152
     14 C         -12.9365    1.0799   17.4277 C.ar    1  UNL1        0.0985
     15 N         -13.5817    2.4336   17.3982 N.ar    1  UNL1       -0.2423
     16 C         -14.8656    2.6688   18.1374 C.ar    1  UNL1        0.0986
     17 C         -15.5042    1.5502   18.9061 C.ar    1  UNL1        0.0164
     18 C         -14.8589    0.1964   18.9356 C.ar    1  UNL1       -0.0188
     19 C         -15.4975   -0.9222   19.7043 C.3     1  UNL1        0.0311
@<TRIPOS>BOND
     1     1     2    1
     2     2     3    2
     3     2     4   am
     4     4     5    1
     5     5     6    1
     6     6     7    1
     7     7     8   ar
     8     8     9   ar
     9     9    13    1
    10    13    14   ar
    11    14    15   ar
    12    15    16   ar
    13    16    17   ar
    14    17    18   ar
    15    18    19    1
    16     9    10   ar
    17    10    11   ar
    18    11    12   ar
    19    12     4    1
    20    12     7   ar
    21    18    13   ar
@<TRIPOS>MOLECULE
*****
 19 21 0 0 0
SMALL
GASTEIGER

@<TRIPOS>ATOM
      1 C         -14.9437    2.4902   18.4352 C.3     1  UNL1        0.0952
      2 C         -13.9009    1.4348   18.2140 C.2     1  UNL1        0.2298
      3 O         -12.6025    1.7905   17.5525 O.2     1  UNL1       -0.2745
      4 N         -14.1565    0.0239   18.6543 N.am    1  UNL1       -0.2586
      5 C         -15.4003   -0.4787   19.3254 C.3     1  UNL1        0.1029
      6 C         -15.2257   -1.9454   19.5867 C.3     1  UNL1        0.0495
      7 C         -13.8740   -2.3493   19.0771 C.ar    1  UNL1       -0.0068
      8 C         -13.1596   -3.6681   19.0633 C.ar    1  UNL1       -0.0029
      9 C         -11.7843   -3.7699   18.4732 C.ar    1  UNL1        0.0010
     10 C         -11.1235   -2.5528   17.8970 C.ar    1  UNL1        0.0013
     11 C         -11.8379   -1.2340   17.9108 C.ar    1  UNL1        0.0146
     12 C         -13.2132   -1.1323   18.5008 C.ar    1  UNL1        0.0499
     13 C         -11.0697   -5.0887   18.4594 C.ar    1  UNL1        0.0152
     14 C          -9.8772   -5.3049   19.3432 C.ar    1  UNL1        0.0985
     15 N          -9.1626   -6.6236   19.3295 N.ar    1  UNL1       -0.2423
     16 C          -9.6406   -7.7264   18.4319 C.ar    1  UNL1        0.0986
     17 C         -10.8332   -7.5102   17.5480 C.ar    1  UNL1        0.0164
     18 C         -11.5477   -6.1913   17.5618 C.ar    1  UNL1       -0.0188
     19 C         -12.7403   -5.9752   16.6780 C.3     1  UNL1        0.0311
@<TRIPOS>BOND
     1     1     2    1
     2     2     3    2
     3     2     4   am
     4     4     5    1
     5     5     6    1
     6     6     7    1
     7     7     8   ar
     8     8     9   ar
     9     9    13    1
    10    13    14   ar
    11    14    15   ar
    12    15    16   ar
    13    16    17   ar
    14    17    18   ar
    15    18    19    1
    16     9    10   ar
    17    10    11   ar
    18    11    12   ar
    19    12     4    1
    20    12     7   ar
    21    18    13   ar
@<TRIPOS>MOLECULE
*****
 19 21 0 0 0
SMALL
GASTEIGER

@<TRIPOS>ATOM
      1 C          -9.5917   -7.6354   18.8417 C.3     1  UNL1        0.0952
      2 C         -10.1169   -6.2383   18.9916 C.2     1  UNL1        0.2298
      3 O          -9.1927   -5.1294   19.3989 O.2     1  UNL1       -0.2745
      4 N         -11.5663   -5.9502   18.7341 N.am    1  UNL1       -0.2586
      5 C         -12.6046   -6.9515   18.3224 C.3     1  UNL1        0.1029
      6 C         -13.9118   -6.2304   18.1770 C.3     1  UNL1        0.0495
      7 C         -13.6814   -4.7835   18.4987 C.ar    1  UNL1       -0.0068
      8 C         -14.6044   -3.6014   18.5227 C.ar    1  UNL1       -0.0029
      9 C         -14.0777   -2.2460   18.8909 C.ar    1  UNL1        0.0010
     10 C         -12.6280   -2.0729   19.2352 C.ar    1  UNL1        0.0013
     11 C         -11.7051   -3.2551   19.2113 C.ar    1  UNL1        0.0146
     12 C         -12.2318   -4.6104   18.8430 C.ar    1  UNL1        0.0499
     13 C         -15.0006   -1.0638   18.9149 C.ar    1  UNL1        0.0152
     14 C         -15.8737   -0.8180   20.1096 C.ar    1  UNL1        0.0985
     15 N         -16.7966    0.3642   20.1336 N.ar    1  UNL1       -0.2423
     16 C         -16.8465    1.3007   18.9628 C.ar    1  UNL1        0.0986
     17 C         -15.9734    1.0549   17.7681 C.ar    1  UNL1        0.0164
     18 C         -15.0505   -0.1274   17.7441 C.ar    1  UNL1       -0.0188
     19 C         -14.1774   -0.3732   16.5494 C.3     1  UNL1        0.0311
@<TRIPOS>BOND
     1     1     2    1
     2     2     3    2
     3     2     4   am
     4     4     5    1
     5     5     6    1
     6     6     7    1
     7     7     8   ar
     8     8     9   ar
     9     9    13    1
    10    13    14   ar
    11    14    15   ar
    12    15    16   ar
    13    16    17   ar
    14    17    18   ar
    15    18    19    1
    16     9    10   ar
    17    10    11   ar
    18    11    12   ar
    19    12     4    1
    20    12     7   ar
    21    18    13   ar
@<TRIPOS>MOLECULE
*****
 19 21 0 0 0
SMALL
GASTEIGER

@<TRIPOS>ATOM
      1 C          -2.1310    4.8214   19.5158 C.3     1  UNL1        0.0952
      2 C          -1.5515    3.4735   19.8284 C.2     1  UNL1        0.2298
      3 O          -2.3651    2.4641   20.5827 O.2     1  UNL1       -0.2745
      4 N          -0.1585    3.1352   19.3866 N.am    1  UNL1       -0.2586
      5 C           0.7696    4.0374   18.6286 C.3     1  UNL1        0.1029
      6 C           2.0526    3.2951   18.3988 C.3     1  UNL1        0.0495
      7 C           1.9174    1.9341   19.0148 C.ar    1  UNL1       -0.0068
      8 C           2.8621    0.7720   19.0987 C.ar    1  UNL1       -0.0029
      9 C           2.4403   -0.4889   19.7931 C.ar    1  UNL1        0.0010
     10 C           1.0737   -0.5877   20.4036 C.ar    1  UNL1        0.0013
     11 C           0.1290    0.5744   20.3197 C.ar    1  UNL1        0.0146
     12 C           0.5508    1.8353   19.6253 C.ar    1  UNL1        0.0499
     13 C           3.3850   -1.6510   19.8770 C.ar    1  UNL1        0.0152
     14 C           3.8092   -2.3644   18.6275 C.ar    1  UNL1        0.0985
     15 N           4.7539   -3.5265   18.7114 N.ar    1  UNL1       -0.2423
     16 C           5.2744   -3.9753   20.0448 C.ar    1  UNL1        0.0986
     17 C           4.8501   -3.2619   21.2942 C.ar    1  UNL1        0.0164
     18 C           3.9054   -2.0997   21.2103 C.ar    1  UNL1       -0.0188
     19 C           3.4812   -1.3864   22.4597 C.3     1  UNL1        0.0311
@<TRIPOS>BOND
     1     1     2    1
     2     2     3    2
     3     2     4   am
     4     4     5    1
     5     5     6    1
     6     6     7    1
     7     7     8   ar
     8     8     9   ar
     9     9    13    1
    10    13    14   ar
    11    14    15   ar
    12    15    16   ar
    13    16    17   ar
    14    17    18   ar
    15    18    19    1
    16     9    10   ar
    17    10    11   ar
    18    11    12   ar
    19    12     4    1
    20    12     7   ar
    21    18    13   ar
@<TRIPOS>MOLECULE
*****
 19 21 0 0 0
SMALL
GASTEIGER

@<TRIPOS>ATOM
      1 C         -10.7054   -2.0153   18.5735 C.3     1  UNL1        0.0952
      2 C         -11.4442   -3.2219   18.0749 C.2     1  UNL1        0.2298
      3 O         -10.9909   -3.9149   16.8243 O.2     1  UNL1       -0.2745
      4 N         -12.6362   -3.7353   18.8270 N.am    1  UNL1       -0.2586
      5 C         -13.2035   -3.1497   20.0861 C.3     1  UNL1        0.1029
      6 C         -14.3880   -3.9769   20.4892 C.3     1  UNL1        0.0495
      7 C         -14.5528   -5.0737   19.4793 C.ar    1  UNL1       -0.0068
      8 C         -15.5489   -6.1891   19.3624 C.ar    1  UNL1       -0.0029
      9 C         -15.4622   -7.1552   18.2182 C.ar    1  UNL1        0.0010
     10 C         -14.3795   -7.0058   17.1909 C.ar    1  UNL1        0.0013
     11 C         -13.3835   -5.8904   17.3078 C.ar    1  UNL1        0.0146
     12 C         -13.4701   -4.9244   18.4520 C.ar    1  UNL1        0.0499
     13 C         -16.4583   -8.2706   18.1013 C.ar    1  UNL1        0.0152
     14 C         -16.1327   -9.6276   18.6514 C.ar    1  UNL1        0.0985
     15 N         -17.1287  -10.7430   18.5346 N.ar    1  UNL1       -0.2423
     16 C         -18.4504  -10.5015   17.8675 C.ar    1  UNL1        0.0986
     17 C         -18.7761   -9.1446   17.3174 C.ar    1  UNL1        0.0164
     18 C         -17.7800   -8.0291   17.4343 C.ar    1  UNL1       -0.0188
     19 C         -18.1056   -6.6721   16.8842 C.3     1  UNL1        0.0311
@<TRIPOS>BOND
     1     1     2    1
     2     2     3    2
     3     2     4   am
     4     4     5    1
     5     5     6    1
     6     6     7    1
     7     7     8   ar
     8     8     9   ar
     9     9    13    1
    10    13    14   ar
    11    14    15   ar
    12    15    16   ar
    13    16    17   ar
    14    17    18   ar
    15    18    19    1
    16     9    10   ar
    17    10    11   ar
    18    11    12   ar
    19    12     4    1
    20    12     7   ar
    21    18    13   ar
