@<TRIPOS>MOLECULE
*****
 15 16 0 0 0
SMALL
GASTEIGER

@<TRIPOS>ATOM
      1 C          -3.8574  -19.1966   20.0375 C.ar    1  UNL1        0.1677
      2 C          -4.1373  -20.6694   20.0891 C.ar    1  UNL1        0.0424
      3 C          -5.6207  -20.8551   20.2121 C.ar    1  UNL1        0.0407
      4 C          -6.2575  -19.4972   20.2366 C.ar    1  UNL1        0.1469
      5 O          -5.1677  -18.4722   20.1287 O.2     1  UNL1       -0.4518
      6 C          -7.7262  -19.2140   20.3493 C.ar    1  UNL1        0.0537
      7 C          -8.6697  -19.7163   19.2969 C.ar    1  UNL1        0.0062
      8 C         -10.1384  -19.4332   19.4096 C.ar    1  UNL1        0.0208
      9 C         -10.6636  -18.6477   20.5746 C.ar    1  UNL1        0.0989
     10 N          -9.7201  -18.1454   21.6269 N.ar    1  UNL1       -0.2422
     11 C          -8.2514  -18.4285   21.5143 C.ar    1  UNL1        0.1019
     12 O          -0.5155  -17.7657   18.4455 O.2     1  UNL1       -0.4086
     13 N          -1.8682  -18.4022   18.5670 N.2     1  UNL1       -0.0814
     14 C          -2.5045  -18.5600   19.9161 C.2     1  UNL1        0.1771
     15 H          -0.1181  -17.6672   17.6027 H       1  UNL1        0.3278
@<TRIPOS>BOND
     1    12    13    1
     2    13    14    2
     3    14     1    1
     4     1     2   ar
     5     2     3   ar
     6     3     4   ar
     7     4     6    1
     8     6     7   ar
     9     7     8   ar
    10     8     9   ar
    11     9    10   ar
    12    10    11   ar
    13     4     5   ar
    14     5     1   ar
    15    11     6   ar
    16    12    15    1
@<TRIPOS>MOLECULE
*****
 15 16 0 0 0
SMALL
GASTEIGER

@<TRIPOS>ATOM
      1 C         -11.2562  -17.0567   22.4891 C.ar    1  UNL1        0.1677
      2 C         -11.3194  -18.2246   23.4284 C.ar    1  UNL1        0.0424
      3 C         -10.2363  -18.0552   24.4521 C.ar    1  UNL1        0.0407
      4 C          -9.5036  -16.7827   24.1456 C.ar    1  UNL1        0.1469
      5 O         -10.1340  -16.1656   22.9324 O.2     1  UNL1       -0.4518
      6 C          -8.3442  -16.2252   24.9170 C.ar    1  UNL1        0.0537
      7 C          -8.3304  -16.3079   26.4146 C.ar    1  UNL1        0.0062
      8 C          -7.1710  -15.7504   27.1858 C.ar    1  UNL1        0.0208
      9 C          -6.0253  -15.1101   26.4594 C.ar    1  UNL1        0.0989
     10 N          -6.0391  -15.0274   24.9618 N.ar    1  UNL1       -0.2422
     11 C          -7.1986  -15.5849   24.1906 C.ar    1  UNL1        0.1019
     12 O         -12.6024  -15.7113   19.0067 O.2     1  UNL1       -0.4086
     13 N         -11.7017  -15.9467   20.1827 N.2     1  UNL1       -0.0814
     14 C         -12.1570  -16.8213   21.3131 C.2     1  UNL1        0.1771
     15 H         -12.3179  -15.1649   18.3007 H       1  UNL1        0.3278
@<TRIPOS>BOND
     1    12    13    1
     2    13    14    2
     3    14     1    1
     4     1     2   ar
     5     2     3   ar
     6     3     4   ar
     7     4     6    1
     8     6     7   ar
     9     7     8   ar
    10     8     9   ar
    11     9    10   ar
    12    10    11   ar
    13     4     5   ar
    14     5     1   ar
    15    11     6   ar
    16    12    15    1
@<TRIPOS>MOLECULE
*****
 15 16 0 0 0
SMALL
GASTEIGER

@<TRIPOS>ATOM
      1 C         -12.8581  -17.6735   23.1973 C.ar    1  UNL1        0.1677
      2 C         -12.5952  -16.2999   22.6548 C.ar    1  UNL1        0.0424
      3 C         -11.3603  -16.3655   21.8058 C.ar    1  UNL1        0.0407
      4 C         -10.8601  -17.7796   21.8236 C.ar    1  UNL1        0.1469
      5 O         -11.7858  -18.5879   22.6836 O.2     1  UNL1       -0.4518
      6 C          -9.6471  -18.2948   21.1071 C.ar    1  UNL1        0.0537
      7 C          -9.8036  -19.2222   19.9387 C.ar    1  UNL1        0.0062
      8 C          -8.5907  -19.7374   19.2223 C.ar    1  UNL1        0.0208
      9 C          -7.2211  -19.3250   19.6743 C.ar    1  UNL1        0.0989
     10 N          -7.0645  -18.3976   20.8427 N.ar    1  UNL1       -0.2422
     11 C          -8.2775  -17.8824   21.5591 C.ar    1  UNL1        0.1019
     12 O         -14.8569  -18.8781   26.4072 O.2     1  UNL1       -0.4086
     13 N         -13.7212  -18.4876   25.5087 N.2     1  UNL1       -0.0814
     14 C         -13.9940  -18.0640   24.0958 C.2     1  UNL1        0.1771
     15 H         -14.6865  -19.1426   27.2898 H       1  UNL1        0.3278
@<TRIPOS>BOND
     1    12    13    1
     2    13    14    2
     3    14     1    1
     4     1     2   ar
     5     2     3   ar
     6     3     4   ar
     7     4     6    1
     8     6     7   ar
     9     7     8   ar
    10     8     9   ar
    11     9    10   ar
    12    10    11   ar
    13     4     5   ar
    14     5     1   ar
    15    11     6   ar
    16    12    15    1
@<TRIPOS>MOLECULE
*****
 15 16 0 0 0
SMALL
GASTEIGER

@<TRIPOS>ATOM
      1 C          -3.5708  -19.2608   20.4424 C.ar    1  UNL1        0.1677
      2 C          -4.2329  -20.5089   19.9384 C.ar    1  UNL1        0.0424
      3 C          -5.6155  -20.5662   20.5173 C.ar    1  UNL1        0.0407
      4 C          -5.8079  -19.3535   21.3790 C.ar    1  UNL1        0.1469
      5 O          -4.5442  -18.5468   21.3327 O.2     1  UNL1       -0.4518
      6 C          -7.0466  -19.0082   22.1514 C.ar    1  UNL1        0.0537
      7 C          -8.0103  -20.0881   22.5452 C.ar    1  UNL1        0.0062
      8 C          -9.2489  -19.7428   23.3175 C.ar    1  UNL1        0.0208
      9 C          -9.5238  -18.3177   23.6960 C.ar    1  UNL1        0.0989
     10 N          -8.5602  -17.2378   23.3022 N.ar    1  UNL1       -0.2422
     11 C          -7.3216  -17.5831   22.5299 C.ar    1  UNL1        0.1019
     12 O          -0.4668  -17.8586   18.4056 O.2     1  UNL1       -0.4086
     13 N          -1.8579  -18.3128   18.7343 N.2     1  UNL1       -0.0814
     14 C          -2.1795  -18.8065   20.1137 C.2     1  UNL1        0.1771
     15 H          -0.2660  -17.5502   17.5439 H       1  UNL1        0.3278
@<TRIPOS>BOND
     1    12    13    1
     2    13    14    2
     3    14     1    1
     4     1     2   ar
     5     2     3   ar
     6     3     4   ar
     7     4     6    1
     8     6     7   ar
     9     7     8   ar
    10     8     9   ar
    11     9    10   ar
    12    10    11   ar
    13     4     5   ar
    14     5     1   ar
    15    11     6   ar
    16    12    15    1
@<TRIPOS>MOLECULE
*****
 15 16 0 0 0
SMALL
GASTEIGER

@<TRIPOS>ATOM
      1 C          -8.0085  -18.5351   21.6119 C.ar    1  UNL1        0.1677
      2 C          -7.7682  -19.8958   22.1957 C.ar    1  UNL1        0.0424
      3 C          -6.3200  -20.2344   22.0010 C.ar    1  UNL1        0.0407
      4 C          -5.6652  -19.0830   21.2970 C.ar    1  UNL1        0.1469
      5 O          -6.7088  -18.0328   21.0565 O.2     1  UNL1       -0.4518
      6 C          -4.2205  -18.9970   20.9027 C.ar    1  UNL1        0.0537
      7 C          -3.8467  -18.5959   19.5065 C.ar    1  UNL1        0.0062
      8 C          -2.4021  -18.5099   19.1123 C.ar    1  UNL1        0.0208
      9 C          -1.3312  -18.8250   20.1142 C.ar    1  UNL1        0.0989
     10 N          -1.7049  -19.2261   21.5104 N.ar    1  UNL1       -0.2422
     11 C          -3.1496  -19.3121   21.9046 C.ar    1  UNL1        0.1019
     12 O         -10.6512  -15.5774   21.4753 O.2     1  UNL1       -0.4086
     13 N          -9.3412  -16.3077   21.4994 N.2     1  UNL1       -0.0814
     14 C          -9.3186  -17.8049   21.5878 C.2     1  UNL1        0.1771
     15 H         -10.6652  -14.6422   21.4201 H       1  UNL1        0.3278
@<TRIPOS>BOND
     1    12    13    1
     2    13    14    2
     3    14     1    1
     4     1     2   ar
     5     2     3   ar
     6     3     4   ar
     7     4     6    1
     8     6     7   ar
     9     7     8   ar
    10     8     9   ar
    11     9    10   ar
    12    10    11   ar
    13     4     5   ar
    14     5     1   ar
    15    11     6   ar
    16    12    15    1
@<TRIPOS>MOLECULE
*****
 15 16 0 0 0
SMALL
GASTEIGER

@<TRIPOS>ATOM
      1 C         -10.1755  -18.1794   21.0126 C.ar    1  UNL1        0.1677
      2 C         -10.2447  -19.0233   22.2508 C.ar    1  UNL1        0.0424
      3 C          -8.8670  -19.5442   22.5343 C.ar    1  UNL1        0.0407
      4 C          -7.9462  -19.0222   21.4713 C.ar    1  UNL1        0.1469
      5 O          -8.7550  -18.1788   20.5309 O.2     1  UNL1       -0.4518
      6 C          -6.4750  -19.2958   21.3672 C.ar    1  UNL1        0.0537
      7 C          -5.9559  -20.2086   20.2961 C.ar    1  UNL1        0.0062
      8 C          -4.4847  -20.4821   20.1920 C.ar    1  UNL1        0.0208
      9 C          -3.5327  -19.8427   21.1589 C.ar    1  UNL1        0.0989
     10 N          -4.0519  -18.9299   22.2299 N.ar    1  UNL1       -0.2422
     11 C          -5.5230  -18.6564   22.3341 C.ar    1  UNL1        0.1019
     12 O         -12.2381  -15.4620   18.9849 O.2     1  UNL1       -0.4086
     13 N         -11.0887  -16.1793   19.6284 N.2     1  UNL1       -0.0814
     14 C         -11.3250  -17.4621   20.3691 C.2     1  UNL1        0.1771
     15 H         -12.0903  -14.6607   18.5222 H       1  UNL1        0.3278
@<TRIPOS>BOND
     1    12    13    1
     2    13    14    2
     3    14     1    1
     4     1     2   ar
     5     2     3   ar
     6     3     4   ar
     7     4     6    1
     8     6     7   ar
     9     7     8   ar
    10     8     9   ar
    11     9    10   ar
    12    10    11   ar
    13     4     5   ar
    14     5     1   ar
    15    11     6   ar
    16    12    15    1
@<TRIPOS>MOLECULE
*****
 15 16 0 0 0
SMALL
GASTEIGER

@<TRIPOS>ATOM
      1 C          -9.2201  -17.9104   21.5785 C.ar    1  UNL1        0.1677
      2 C          -9.3391  -19.1280   22.4467 C.ar    1  UNL1        0.0424
      3 C          -7.9829  -19.7614   22.5449 C.ar    1  UNL1        0.0407
      4 C          -7.0259  -18.9354   21.7376 C.ar    1  UNL1        0.1469
      5 O          -7.7905  -17.7914   21.1404 O.2     1  UNL1       -0.4518
      6 C          -5.5613  -19.2059   21.5590 C.ar    1  UNL1        0.0537
      7 C          -4.5656  -18.5958   22.5004 C.ar    1  UNL1        0.0062
      8 C          -3.1011  -18.8663   22.3217 C.ar    1  UNL1        0.0208
      9 C          -2.6322  -19.7469   21.2016 C.ar    1  UNL1        0.0989
     10 N          -3.6279  -20.3570   20.2601 N.ar    1  UNL1       -0.2422
     11 C          -5.0924  -20.0865   20.4388 C.ar    1  UNL1        0.1019
     12 O         -12.0104  -16.0508   19.4558 O.2     1  UNL1       -0.4086
     13 N         -10.8955  -16.9852   19.8215 N.2     1  UNL1       -0.0814
     14 C         -10.3350  -16.9760   21.2128 C.2     1  UNL1        0.1771
     15 H         -12.3604  -16.0566   18.5866 H       1  UNL1        0.3278
@<TRIPOS>BOND
     1    12    13    1
     2    13    14    2
     3    14     1    1
     4     1     2   ar
     5     2     3   ar
     6     3     4   ar
     7     4     6    1
     8     6     7   ar
     9     7     8   ar
    10     8     9   ar
    11     9    10   ar
    12    10    11   ar
    13     4     5   ar
    14     5     1   ar
    15    11     6   ar
    16    12    15    1
@<TRIPOS>MOLECULE
*****
 15 16 0 0 0
SMALL
GASTEIGER

@<TRIPOS>ATOM
      1 C          -6.0332  -19.3122   20.8037 C.ar    1  UNL1        0.1677
      2 C          -6.4996  -20.0961   21.9945 C.ar    1  UNL1        0.0424
      3 C          -7.8991  -19.6624   22.3158 C.ar    1  UNL1        0.0407
      4 C          -8.2977  -18.6105   21.3234 C.ar    1  UNL1        0.1469
      5 O          -7.1445  -18.3941   20.3889 O.2     1  UNL1       -0.4518
      6 C          -9.6177  -17.8998   21.2743 C.ar    1  UNL1        0.0537
      7 C         -10.0016  -16.9538   22.3733 C.ar    1  UNL1        0.0062
      8 C         -11.3216  -16.2432   22.3241 C.ar    1  UNL1        0.0208
      9 C         -12.2578  -16.4784   21.1760 C.ar    1  UNL1        0.0989
     10 N         -11.8739  -17.4244   20.0770 N.ar    1  UNL1       -0.2422
     11 C         -10.5539  -18.1350   20.1262 C.ar    1  UNL1        0.1019
     12 O          -2.6506  -18.3098   18.9862 O.2     1  UNL1       -0.4086
     13 N          -3.9926  -18.1957   19.6464 N.2     1  UNL1       -0.0814
     14 C          -4.6911  -19.4265   20.1435 C.2     1  UNL1        0.1771
     15 H          -2.2143  -17.5409   18.6757 H       1  UNL1        0.3278
@<TRIPOS>BOND
     1    12    13    1
     2    13    14    2
     3    14     1    1
     4     1     2   ar
     5     2     3   ar
     6     3     4   ar
     7     4     6    1
     8     6     7   ar
     9     7     8   ar
    10     8     9   ar
    11     9    10   ar
    12    10    11   ar
    13     4     5   ar
    14     5     1   ar
    15    11     6   ar
    16    12    15    1
@<TRIPOS>MOLECULE
*****
 15 16 0 0 0
SMALL
GASTEIGER

@<TRIPOS>ATOM
      1 C          -4.7722  -18.4149   22.4300 C.ar    1  UNL1        0.1677
      2 C          -4.9411  -19.8487   22.0226 C.ar    1  UNL1        0.0424
      3 C          -6.4105  -20.1290   21.9120 C.ar    1  UNL1        0.0407
      4 C          -7.1497  -18.8685   22.2509 C.ar    1  UNL1        0.1469
      5 O          -6.1371  -17.8092   22.5710 O.2     1  UNL1       -0.4518
      6 C          -8.6399  -18.6975   22.2669 C.ar    1  UNL1        0.0537
      7 C          -9.5180  -19.8154   22.7454 C.ar    1  UNL1        0.0062
      8 C         -11.0081  -19.6443   22.7614 C.ar    1  UNL1        0.0208
      9 C         -11.6201  -18.3553   22.2988 C.ar    1  UNL1        0.0989
     10 N         -10.7419  -17.2374   21.8203 N.ar    1  UNL1       -0.2422
     11 C          -9.2518  -17.4085   21.8043 C.ar    1  UNL1        0.1019
     12 O          -1.5475  -16.1944   21.7817 O.2     1  UNL1       -0.4086
     13 N          -2.8522  -16.8987   21.5554 N.2     1  UNL1       -0.0814
     14 C          -3.4673  -17.7106   22.6565 C.2     1  UNL1        0.1771
     15 H          -1.1633  -15.6872   21.0939 H       1  UNL1        0.3278
@<TRIPOS>BOND
     1    12    13    1
     2    13    14    2
     3    14     1    1
     4     1     2   ar
     5     2     3   ar
     6     3     4   ar
     7     4     6    1
     8     6     7   ar
     9     7     8   ar
    10     8     9   ar
    11     9    10   ar
    12    10    11   ar
    13     4     5   ar
    14     5     1   ar
    15    11     6   ar
    16    12    15    1
