@<TRIPOS>MOLECULE
*****
 34 38 0 0 0
SMALL
GASTEIGER

@<TRIPOS>ATOM
      1 N           7.9046   -9.9209   27.6161 N.3     1  UNL1       -0.2724
      2 C           8.9883  -10.8973   27.9656 C.3     1  UNL1        0.0724
      3 C           8.3407  -12.2077   28.3026 C.3     1  UNL1        0.0214
      4 C           7.4265  -13.3644   28.5786 C.3     1  UNL1        0.0072
      5 C           6.8567  -12.0411   28.1614 C.3     1  UNL1        0.0350
      6 C           6.5872  -10.6279   27.7370 C.3     1  UNL1        0.0761
      7 C           5.4201  -12.4714   28.1951 C.ar    1  UNL1       -0.0214
      8 C           4.8529  -13.2804   27.0665 C.ar    1  UNL1       -0.0034
      9 C           3.4162  -13.7107   27.1002 C.ar    1  UNL1        0.0146
     10 C           2.5469  -13.3320   28.2625 C.ar    1  UNL1        0.1228
     11 C           3.1143  -12.5229   29.3911 C.ar    1  UNL1        0.0146
     12 C           4.5508  -12.0926   29.3574 C.ar    1  UNL1       -0.0034
     13 S           1.1104  -13.7622   28.2962 S.3     1  UNL1        0.3126
     14 F           1.4844  -12.3652   28.6943 F       1  UNL1       -0.0934
     15 F           0.0479  -12.7954   28.7280 F       1  UNL1       -0.0934
     16 F           0.7363  -15.1592   27.8981 F       1  UNL1       -0.0934
     17 F          -0.3262  -14.1925   28.3299 F       1  UNL1       -0.0934
     18 F           2.1730  -14.7290   27.8644 F       1  UNL1       -0.0934
     19 C           8.1034   -8.4891   27.2158 C.3     1  UNL1        0.0730
     20 C           7.3157   -7.9123   26.0770 C.3     1  UNL1        0.0294
     21 C           8.0261   -7.2644   24.9258 C.3     1  UNL1        0.0666
     22 S           7.9003   -5.7863   24.7028 S.3     1  UNL1       -0.0756
     23 C           6.7483   -3.9754   21.4689 C.ar    1  UNL1        0.2029
     24 N           7.8004   -4.8966   20.9262 N.ar    1  UNL1       -0.1250
     25 N           8.3600   -5.6871   22.0715 N.ar    1  UNL1       -0.1220
     26 C           7.6538   -5.2545   23.3221 C.ar    1  UNL1        0.1933
     27 N           6.6577   -4.1966   22.9496 N.ar    1  UNL1       -0.2860
     28 C           5.7333   -3.4849   23.8926 C.3     1  UNL1        0.1341
     29 C           4.6568   -4.7350   19.0817 C.3     1  UNL1        0.0556
     30 C           4.9691   -3.3528   19.5737 C.ar    1  UNL1        0.1001
     31 N           4.3748   -2.0771   19.0547 N.ar    1  UNL1       -0.2085
     32 C           4.9689   -0.9395   19.8312 C.ar    1  UNL1        0.2849
     33 O           5.9303   -1.5121   20.8300 O.2     1  UNL1       -0.4283
     34 C           5.9304   -3.0036   20.6709 C.ar    1  UNL1        0.1964
@<TRIPOS>BOND
     1    29    30    1
     2    30    31   ar
     3    31    32   ar
     4    32    33   ar
     5    33    34   ar
     6    34    23    1
     7    23    24   ar
     8    24    25   ar
     9    25    26   ar
    10    26    22    1
    11    22    21    1
    12    21    20    1
    13    20    19    1
    14    19     1    1
    15     1     2    1
    16     2     3    1
    17     3     4    1
    18     4     5    1
    19     5     7    1
    20     7     8   ar
    21     8     9   ar
    22     9    10   ar
    23    10    13    1
    24    13    14    1
    25    13    15    1
    26    13    16    1
    27    13    17    1
    28    13    18    1
    29    10    11   ar
    30    11    12   ar
    31     5     6    1
    32    26    27   ar
    33    27    28    1
    34    34    30   ar
    35    27    23   ar
    36     6     1    1
    37     5     3    1
    38    12     7   ar
@<TRIPOS>MOLECULE
*****
 34 38 0 0 0
SMALL
GASTEIGER

@<TRIPOS>ATOM
      1 N           7.8021   -9.9399   27.5306 N.3     1  UNL1       -0.2724
      2 C           8.8935  -10.8744   27.9613 C.3     1  UNL1        0.0724
      3 C           8.2596  -12.1718   28.3672 C.3     1  UNL1        0.0214
      4 C           7.3580  -13.3242   28.6974 C.3     1  UNL1        0.0072
      5 C           6.7763  -12.0392   28.1873 C.3     1  UNL1        0.0350
      6 C           6.4936  -10.6598   27.6703 C.3     1  UNL1        0.0761
      7 C           5.3462  -12.4905   28.2204 C.ar    1  UNL1       -0.0214
      8 C           4.4544  -12.0742   29.3523 C.ar    1  UNL1       -0.0034
      9 C           3.0242  -12.5255   29.3854 C.ar    1  UNL1        0.0146
     10 C           2.4859  -13.3930   28.2865 C.ar    1  UNL1        0.1228
     11 C           3.3778  -13.8093   27.1545 C.ar    1  UNL1        0.0146
     12 C           4.8079  -13.3580   27.1214 C.ar    1  UNL1       -0.0034
     13 S           1.0558  -13.8443   28.3195 S.3     1  UNL1        0.3126
     14 F           2.1277  -14.7826   27.8499 F       1  UNL1       -0.0934
     15 F           0.6975  -15.2339   27.8829 F       1  UNL1       -0.0934
     16 F          -0.0162  -12.9059   28.7891 F       1  UNL1       -0.0934
     17 F          -0.3744  -14.2955   28.3526 F       1  UNL1       -0.0934
     18 F           1.4140  -12.4546   28.7561 F       1  UNL1       -0.0934
     19 C           7.9867   -8.5326   27.0454 C.3     1  UNL1        0.0730
     20 C           9.0937   -7.6867   27.6014 C.3     1  UNL1        0.0294
     21 C           8.7708   -6.4757   28.4255 C.3     1  UNL1        0.0666
     22 S           7.3462   -6.1684   28.7808 S.3     1  UNL1       -0.0756
     23 C           6.4154   -3.2751   31.1948 C.ar    1  UNL1        0.2029
     24 N           6.7249   -4.3751   32.1665 N.ar    1  UNL1       -0.1250
     25 N           7.1113   -5.5928   31.3805 N.ar    1  UNL1       -0.1220
     26 C           7.0405   -5.2454   29.9230 C.ar    1  UNL1        0.1933
     27 N           6.6104   -3.8130   29.8083 N.ar    1  UNL1       -0.2860
     28 C           6.4105   -3.0521   28.5311 C.3     1  UNL1        0.1341
     29 C           4.2605   -2.4592   33.5058 C.3     1  UNL1        0.0556
     30 C           4.9957   -1.5068   32.6100 C.ar    1  UNL1        0.1001
     31 N           4.8694   -0.0122   32.6191 N.ar    1  UNL1       -0.2085
     32 C           5.7818    0.5365   31.5625 C.ar    1  UNL1        0.2849
     33 O           6.4719   -0.6189   30.9004 O.2     1  UNL1       -0.4283
     34 C           5.9861   -1.8818   31.5478 C.ar    1  UNL1        0.1964
@<TRIPOS>BOND
     1    29    30    1
     2    30    31   ar
     3    31    32   ar
     4    32    33   ar
     5    33    34   ar
     6    34    23    1
     7    23    24   ar
     8    24    25   ar
     9    25    26   ar
    10    26    22    1
    11    22    21    1
    12    21    20    1
    13    20    19    1
    14    19     1    1
    15     1     2    1
    16     2     3    1
    17     3     4    1
    18     4     5    1
    19     5     7    1
    20     7     8   ar
    21     8     9   ar
    22     9    10   ar
    23    10    13    1
    24    13    14    1
    25    13    15    1
    26    13    16    1
    27    13    17    1
    28    13    18    1
    29    10    11   ar
    30    11    12   ar
    31     5     6    1
    32    26    27   ar
    33    27    28    1
    34    34    30   ar
    35    27    23   ar
    36     6     1    1
    37     5     3    1
    38    12     7   ar
@<TRIPOS>MOLECULE
*****
 34 38 0 0 0
SMALL
GASTEIGER

@<TRIPOS>ATOM
      1 N           2.0539    0.9650   24.6834 N.3     1  UNL1       -0.2724
      2 C           2.8138    0.6688   25.9423 C.3     1  UNL1        0.0724
      3 C           3.7267   -0.4901   25.6710 C.3     1  UNL1        0.0214
      4 C           4.5151   -1.6372   25.1120 C.3     1  UNL1        0.0072
      5 C           3.5310   -0.9101   24.2443 C.3     1  UNL1        0.0350
      6 C           2.4971   -0.0108   23.6340 C.3     1  UNL1        0.0761
      7 C           3.7684   -1.7340   23.0135 C.ar    1  UNL1       -0.0214
      8 C           4.5533   -3.0090   23.1044 C.ar    1  UNL1       -0.0034
      9 C           4.7907   -3.8329   21.8736 C.ar    1  UNL1        0.0146
     10 C           4.2434   -3.3817   20.5519 C.ar    1  UNL1        0.1228
     11 C           3.4585   -2.1066   20.4611 C.ar    1  UNL1        0.0146
     12 C           3.2210   -1.2828   21.6919 C.ar    1  UNL1       -0.0034
     13 S           4.4808   -4.2056   19.3211 S.3     1  UNL1        0.3126
     14 F           3.7811   -4.8079   20.5033 F       1  UNL1       -0.0934
     15 F           4.0186   -5.6317   19.2725 F       1  UNL1       -0.0934
     16 F           5.1805   -3.6032   18.1389 F       1  UNL1       -0.0934
     17 F           4.7183   -5.0294   18.0903 F       1  UNL1       -0.0934
     18 F           4.9431   -2.7793   19.3697 F       1  UNL1       -0.0934
     19 C           1.0305    2.0471   24.5053 C.3     1  UNL1        0.0730
     20 C          -0.4013    1.7932   24.8734 C.3     1  UNL1        0.0294
     21 C          -1.1394    2.7744   25.7351 C.3     1  UNL1        0.0666
     22 S          -0.6123    3.1226   27.0956 S.3     1  UNL1       -0.0756
     23 C           1.0427    0.7502   29.6836 C.ar    1  UNL1        0.2029
     24 N          -0.1816   -0.0334   29.3134 N.ar    1  UNL1       -0.1250
     25 N          -0.9505    0.7599   28.2990 N.ar    1  UNL1       -0.1220
     26 C          -0.2015    2.0338   28.0421 C.ar    1  UNL1        0.1933
     27 N           1.0304    2.0278   28.8979 N.ar    1  UNL1       -0.2860
     28 C           2.0678    3.1096   28.9574 C.3     1  UNL1        0.1341
     29 C           1.6623    2.1722   32.5548 C.3     1  UNL1        0.0556
     30 C           2.3794    0.9835   31.9866 C.ar    1  UNL1        0.1001
     31 N           3.5072    0.2398   32.6384 N.ar    1  UNL1       -0.2085
     32 C           3.9195   -0.8734   31.7216 C.ar    1  UNL1        0.2849
     33 O           3.0465   -0.8177   30.5031 O.2     1  UNL1       -0.4283
     34 C           2.0946    0.3300   30.6670 C.ar    1  UNL1        0.1964
@<TRIPOS>BOND
     1    29    30    1
     2    30    31   ar
     3    31    32   ar
     4    32    33   ar
     5    33    34   ar
     6    34    23    1
     7    23    24   ar
     8    24    25   ar
     9    25    26   ar
    10    26    22    1
    11    22    21    1
    12    21    20    1
    13    20    19    1
    14    19     1    1
    15     1     2    1
    16     2     3    1
    17     3     4    1
    18     4     5    1
    19     5     7    1
    20     7     8   ar
    21     8     9   ar
    22     9    10   ar
    23    10    13    1
    24    13    14    1
    25    13    15    1
    26    13    16    1
    27    13    17    1
    28    13    18    1
    29    10    11   ar
    30    11    12   ar
    31     5     6    1
    32    26    27   ar
    33    27    28    1
    34    34    30   ar
    35    27    23   ar
    36     6     1    1
    37     5     3    1
    38    12     7   ar
@<TRIPOS>MOLECULE
*****
 34 38 0 0 0
SMALL
GASTEIGER

@<TRIPOS>ATOM
      1 N           1.4653    1.7155   23.1783 N.3     1  UNL1       -0.2724
      2 C           1.9136    1.5629   24.6016 C.3     1  UNL1        0.0724
      3 C           2.7445    0.3175   24.6949 C.3     1  UNL1        0.0214
      4 C           3.5153   -0.9514   24.4813 C.3     1  UNL1        0.0072
      5 C           2.8097   -0.2996   23.3292 C.3     1  UNL1        0.0350
      6 C           2.0191    0.5644   22.3920 C.3     1  UNL1        0.0761
      7 C           3.2160   -1.3143   22.3021 C.ar    1  UNL1       -0.0214
      8 C           2.6296   -1.2612   20.9225 C.ar    1  UNL1       -0.0034
      9 C           3.0358   -2.2760   19.8952 C.ar    1  UNL1        0.0146
     10 C           4.0285   -3.3439   20.2476 C.ar    1  UNL1        0.1228
     11 C           4.6150   -3.3970   21.6273 C.ar    1  UNL1        0.0146
     12 C           4.2087   -2.3822   22.6544 C.ar    1  UNL1       -0.0034
     13 S           4.4348   -4.3587   19.2204 S.3     1  UNL1        0.3126
     14 F           4.8664   -2.9296   19.0745 F       1  UNL1       -0.0934
     15 F           5.2727   -3.9443   18.0473 F       1  UNL1       -0.0934
     16 F           4.0032   -5.7879   19.3663 F       1  UNL1       -0.0934
     17 F           4.8411   -5.3735   18.1932 F       1  UNL1       -0.0934
     18 F           3.5969   -4.7731   20.3936 F       1  UNL1       -0.0934
     19 C           0.6129    2.8245   22.6365 C.3     1  UNL1        0.0730
     20 C          -0.4444    2.5271   21.6149 C.3     1  UNL1        0.0294
     21 C          -0.7309    3.5147   20.5228 C.3     1  UNL1        0.0666
     22 S           0.2790    3.7477   19.4384 S.3     1  UNL1       -0.0756
     23 C           3.0792    1.2819   18.3691 C.ar    1  UNL1        0.2029
     24 N           1.8517    0.4703   18.0783 N.ar    1  UNL1       -0.1250
     25 N           0.6534    1.2952   18.4434 N.ar    1  UNL1       -0.1220
     26 C           1.1402    2.6166   18.9599 C.ar    1  UNL1        0.1933
     27 N           2.6395    2.6083   18.9140 N.ar    1  UNL1       -0.2860
     28 C           3.5407    3.7298   19.3385 C.3     1  UNL1        0.1341
     29 C           5.3774    1.0184   20.6710 C.3     1  UNL1        0.0556
     30 C           5.5538    0.7227   19.2110 C.ar    1  UNL1        0.1001
     31 N           6.8175    0.2540   18.5528 N.ar    1  UNL1       -0.2085
     32 C           6.5422    0.0854   17.0880 C.ar    1  UNL1        0.2849
     33 O           5.1084    0.4500   16.8409 O.2     1  UNL1       -0.4283
     34 C           4.4975    0.8438   18.1530 C.ar    1  UNL1        0.1964
@<TRIPOS>BOND
     1    29    30    1
     2    30    31   ar
     3    31    32   ar
     4    32    33   ar
     5    33    34   ar
     6    34    23    1
     7    23    24   ar
     8    24    25   ar
     9    25    26   ar
    10    26    22    1
    11    22    21    1
    12    21    20    1
    13    20    19    1
    14    19     1    1
    15     1     2    1
    16     2     3    1
    17     3     4    1
    18     4     5    1
    19     5     7    1
    20     7     8   ar
    21     8     9   ar
    22     9    10   ar
    23    10    13    1
    24    13    14    1
    25    13    15    1
    26    13    16    1
    27    13    17    1
    28    13    18    1
    29    10    11   ar
    30    11    12   ar
    31     5     6    1
    32    26    27   ar
    33    27    28    1
    34    34    30   ar
    35    27    23   ar
    36     6     1    1
    37     5     3    1
    38    12     7   ar
@<TRIPOS>MOLECULE
*****
 34 38 0 0 0
SMALL
GASTEIGER

@<TRIPOS>ATOM
      1 N           0.8607    3.1318   19.0958 N.3     1  UNL1       -0.2724
      2 C           1.9240    4.0954   18.6589 C.3     1  UNL1        0.0724
      3 C           3.1691    3.3111   18.3681 C.3     1  UNL1        0.0214
      4 C           4.2387    2.2804   18.1596 C.3     1  UNL1        0.0072
      5 C           2.8754    1.8629   18.6253 C.3     1  UNL1        0.0350
      6 C           1.4487    1.7520   19.0750 C.3     1  UNL1        0.0761
      7 C           3.1784    0.3958   18.7020 C.ar    1  UNL1       -0.0214
      8 C           4.1167   -0.2289   17.7124 C.ar    1  UNL1       -0.0034
      9 C           4.4198   -1.6960   17.7890 C.ar    1  UNL1        0.0146
     10 C           3.7845   -2.5384   18.8552 C.ar    1  UNL1        0.1228
     11 C           2.8461   -1.9136   19.8448 C.ar    1  UNL1        0.0146
     12 C           2.5431   -0.4466   19.7682 C.ar    1  UNL1       -0.0034
     13 S           4.0875   -4.0055   18.9318 S.3     1  UNL1        0.3126
     14 F           2.9268   -3.4385   19.6944 F       1  UNL1       -0.0934
     15 F           3.2298   -4.9056   19.7710 F       1  UNL1       -0.0934
     16 F           5.2481   -4.5724   18.1692 F       1  UNL1       -0.0934
     17 F           4.3905   -5.4725   19.0084 F       1  UNL1       -0.0934
     18 F           4.9451   -3.1053   18.0925 F       1  UNL1       -0.0934
     19 C          -0.5440    3.4858   19.4851 C.3     1  UNL1        0.0730
     20 C          -1.1545    2.8864   20.7171 C.3     1  UNL1        0.0294
     21 C          -0.6230    3.2518   22.0714 C.3     1  UNL1        0.0666
     22 S           0.1868    2.2594   22.8521 S.3     1  UNL1       -0.0756
     23 C           0.3132    1.5264   26.6615 C.ar    1  UNL1        0.2029
     24 N          -0.9525    2.3251   26.5619 N.ar    1  UNL1       -0.1250
     25 N          -1.1539    2.6969   25.1228 N.ar    1  UNL1       -0.1220
     26 C          -0.0127    2.1280   24.3329 C.ar    1  UNL1        0.1933
     27 N           0.8940    1.4045   25.2840 N.ar    1  UNL1       -0.2860
     28 C           2.1595    0.6854   24.9210 C.3     1  UNL1        0.1341
     29 C          -1.1981   -0.5036   28.7218 C.3     1  UNL1        0.0556
     30 C           0.2012    0.0175   28.8651 C.ar    1  UNL1        0.1001
     31 N           1.1514   -0.3030   29.9806 N.ar    1  UNL1       -0.2085
     32 C           2.4334    0.4320   29.7230 C.ar    1  UNL1        0.2849
     33 O           2.2754    1.2067   28.4484 O.2     1  UNL1       -0.4283
     34 C           0.8958    0.9505   27.9181 C.ar    1  UNL1        0.1964
@<TRIPOS>BOND
     1    29    30    1
     2    30    31   ar
     3    31    32   ar
     4    32    33   ar
     5    33    34   ar
     6    34    23    1
     7    23    24   ar
     8    24    25   ar
     9    25    26   ar
    10    26    22    1
    11    22    21    1
    12    21    20    1
    13    20    19    1
    14    19     1    1
    15     1     2    1
    16     2     3    1
    17     3     4    1
    18     4     5    1
    19     5     7    1
    20     7     8   ar
    21     8     9   ar
    22     9    10   ar
    23    10    13    1
    24    13    14    1
    25    13    15    1
    26    13    16    1
    27    13    17    1
    28    13    18    1
    29    10    11   ar
    30    11    12   ar
    31     5     6    1
    32    26    27   ar
    33    27    28    1
    34    34    30   ar
    35    27    23   ar
    36     6     1    1
    37     5     3    1
    38    12     7   ar
@<TRIPOS>MOLECULE
*****
 34 38 0 0 0
SMALL
GASTEIGER

@<TRIPOS>ATOM
      1 N           4.0554   -0.7516   26.5411 N.3     1  UNL1       -0.2724
      2 C           3.7732    0.6999   26.2892 C.3     1  UNL1        0.0724
      3 C           3.6416    0.8963   24.8079 C.3     1  UNL1        0.0214
      4 C           3.5656    0.7843   23.3141 C.3     1  UNL1        0.0072
      5 C           3.8424   -0.4339   24.1443 C.3     1  UNL1        0.0350
      6 C           4.0982   -1.4523   25.2155 C.3     1  UNL1        0.0761
      7 C           3.9431   -1.3893   22.9923 C.ar    1  UNL1       -0.0214
      8 C           3.4073   -1.0002   21.6464 C.ar    1  UNL1       -0.0034
      9 C           3.5079   -1.9556   20.4943 C.ar    1  UNL1        0.0146
     10 C           4.1443   -3.3000   20.6883 C.ar    1  UNL1        0.1228
     11 C           4.6801   -3.6891   22.0343 C.ar    1  UNL1        0.0146
     12 C           4.5794   -2.7337   23.1863 C.ar    1  UNL1       -0.0034
     13 S           4.2449   -4.2554   19.5363 S.3     1  UNL1        0.3126
     14 F           3.0033   -3.4350   19.7240 F       1  UNL1       -0.0934
     15 F           3.1039   -4.3904   18.5720 F       1  UNL1       -0.0934
     16 F           5.4866   -5.0758   19.3485 F       1  UNL1       -0.0934
     17 F           4.3456   -5.2108   18.3843 F       1  UNL1       -0.0934
     18 F           5.3860   -4.1204   20.5006 F       1  UNL1       -0.0934
     19 C           4.2591   -1.3903   27.8829 C.3     1  UNL1        0.0730
     20 C           4.2009   -0.5552   29.1276 C.3     1  UNL1        0.0294
     21 C           3.0230   -0.6645   30.0498 C.3     1  UNL1        0.0666
     22 S           2.1164    0.5134   30.2513 S.3     1  UNL1       -0.0756
     23 C          -0.7125    1.5189   27.7913 C.ar    1  UNL1        0.2029
     24 N          -1.2970    0.2875   28.4174 N.ar    1  UNL1       -0.1250
     25 N          -0.3085   -0.2390   29.4151 N.ar    1  UNL1       -0.1220
     26 C           0.8870    0.6670   29.4056 C.ar    1  UNL1        0.1933
     27 N           0.6372    1.7534   28.4020 N.ar    1  UNL1       -0.2860
     28 C           1.5731    2.8771   28.0679 C.3     1  UNL1        0.1341
     29 C           0.1284    1.6486   24.6408 C.3     1  UNL1        0.0556
     30 C          -0.9770    2.4265   25.2910 C.ar    1  UNL1        0.1001
     31 N          -1.8900    3.4006   24.6073 N.ar    1  UNL1       -0.2085
     32 C          -2.8408    3.9431   25.6328 C.ar    1  UNL1        0.2849
     33 O          -2.5155    3.3042   26.9503 O.2     1  UNL1       -0.4283
     34 C          -1.3636    2.3669   26.7391 C.ar    1  UNL1        0.1964
@<TRIPOS>BOND
     1    29    30    1
     2    30    31   ar
     3    31    32   ar
     4    32    33   ar
     5    33    34   ar
     6    34    23    1
     7    23    24   ar
     8    24    25   ar
     9    25    26   ar
    10    26    22    1
    11    22    21    1
    12    21    20    1
    13    20    19    1
    14    19     1    1
    15     1     2    1
    16     2     3    1
    17     3     4    1
    18     4     5    1
    19     5     7    1
    20     7     8   ar
    21     8     9   ar
    22     9    10   ar
    23    10    13    1
    24    13    14    1
    25    13    15    1
    26    13    16    1
    27    13    17    1
    28    13    18    1
    29    10    11   ar
    30    11    12   ar
    31     5     6    1
    32    26    27   ar
    33    27    28    1
    34    34    30   ar
    35    27    23   ar
    36     6     1    1
    37     5     3    1
    38    12     7   ar
@<TRIPOS>MOLECULE
*****
 34 38 0 0 0
SMALL
GASTEIGER

@<TRIPOS>ATOM
      1 N           1.0536    3.0617   18.2925 N.3     1  UNL1       -0.2724
      2 C           2.2124    4.0127   18.2382 C.3     1  UNL1        0.0724
      3 C           3.4759    3.2096   18.3313 C.3     1  UNL1        0.0214
      4 C           4.5438    2.1620   18.4404 C.3     1  UNL1        0.0072
      5 C           3.0981    1.7623   18.4430 C.3     1  UNL1        0.0350
      6 C           1.6010    1.6709   18.4190 C.3     1  UNL1        0.0761
      7 C           3.3432    0.2879   18.5701 C.ar    1  UNL1       -0.0214
      8 C           4.2579   -0.4062   17.6050 C.ar    1  UNL1       -0.0034
      9 C           4.5031   -1.8806   17.7320 C.ar    1  UNL1        0.0146
     10 C           3.8334   -2.6609   18.8242 C.ar    1  UNL1        0.1228
     11 C           2.9186   -1.9666   19.7893 C.ar    1  UNL1        0.0146
     12 C           2.6735   -0.4923   19.6622 C.ar    1  UNL1       -0.0034
     13 S           4.0785   -4.1352   18.9513 S.3     1  UNL1        0.3126
     14 F           5.0489   -3.2759   18.1964 F       1  UNL1       -0.0934
     15 F           5.2940   -4.7503   18.3234 F       1  UNL1       -0.0934
     16 F           3.1081   -4.9945   19.7063 F       1  UNL1       -0.0934
     17 F           4.3236   -5.6096   19.0784 F       1  UNL1       -0.0934
     18 F           2.8629   -3.5201   19.5792 F       1  UNL1       -0.0934
     19 C          -0.3976    3.4359   18.2310 C.3     1  UNL1        0.0730
     20 C          -0.9991    3.8970   16.9366 C.3     1  UNL1        0.0294
     21 C          -2.4875    3.8763   16.7517 C.3     1  UNL1        0.0666
     22 S          -3.3438    4.8936   17.4459 S.3     1  UNL1       -0.0756
     23 C          -5.8533    4.2622   20.3387 C.ar    1  UNL1        0.2029
     24 N          -6.3245    3.2639   19.3232 N.ar    1  UNL1       -0.1250
     25 N          -5.4418    3.3789   18.1159 N.ar    1  UNL1       -0.1220
     26 C          -4.4250    4.4483   18.3853 C.ar    1  UNL1        0.1933
     27 N          -4.6794    4.9942   19.7591 N.ar    1  UNL1       -0.2860
     28 C          -3.8971    6.0813   20.4346 C.3     1  UNL1        0.1341
     29 C          -4.7115    3.0827   23.1591 C.3     1  UNL1        0.0556
     30 C          -5.9263    3.9466   22.9920 C.ar    1  UNL1        0.1001
     31 N          -6.8296    4.4200   24.0921 N.ar    1  UNL1       -0.2085
     32 C          -7.9126    5.2547   23.4755 C.ar    1  UNL1        0.2849
     33 O          -7.6788    5.2972   21.9945 O.2     1  UNL1       -0.4283
     34 C          -6.4511    4.4888   21.6957 C.ar    1  UNL1        0.1964
@<TRIPOS>BOND
     1    29    30    1
     2    30    31   ar
     3    31    32   ar
     4    32    33   ar
     5    33    34   ar
     6    34    23    1
     7    23    24   ar
     8    24    25   ar
     9    25    26   ar
    10    26    22    1
    11    22    21    1
    12    21    20    1
    13    20    19    1
    14    19     1    1
    15     1     2    1
    16     2     3    1
    17     3     4    1
    18     4     5    1
    19     5     7    1
    20     7     8   ar
    21     8     9   ar
    22     9    10   ar
    23    10    13    1
    24    13    14    1
    25    13    15    1
    26    13    16    1
    27    13    17    1
    28    13    18    1
    29    10    11   ar
    30    11    12   ar
    31     5     6    1
    32    26    27   ar
    33    27    28    1
    34    34    30   ar
    35    27    23   ar
    36     6     1    1
    37     5     3    1
    38    12     7   ar
@<TRIPOS>MOLECULE
*****
 34 38 0 0 0
SMALL
GASTEIGER

@<TRIPOS>ATOM
      1 N           3.7300    3.7090   18.0670 N.3     1  UNL1       -0.2724
      2 C           2.2875    4.0904   18.2212 C.3     1  UNL1        0.0724
      3 C           1.5028    2.8394   18.4847 C.3     1  UNL1        0.0214
      4 C           0.9977    1.4480   18.7265 C.3     1  UNL1        0.0072
      5 C           2.4604    1.6849   18.4934 C.3     1  UNL1        0.0350
      6 C           3.8368    2.2223   18.2352 C.3     1  UNL1        0.0761
      7 C           2.8730    0.2477   18.6129 C.ar    1  UNL1       -0.0214
      8 C           3.6725   -0.3964   17.5193 C.ar    1  UNL1       -0.0034
      9 C           4.0852   -1.8337   17.6388 C.ar    1  UNL1        0.0146
     10 C           3.6983   -2.6267   18.8518 C.ar    1  UNL1        0.1228
     11 C           2.8987   -1.9825   19.9454 C.ar    1  UNL1        0.0146
     12 C           2.4861   -0.5453   19.8259 C.ar    1  UNL1       -0.0034
     13 S           4.1109   -4.0638   18.9713 S.3     1  UNL1        0.3126
     14 F           5.0969   -3.0373   18.4980 F       1  UNL1       -0.0934
     15 F           5.5095   -4.4745   18.6174 F       1  UNL1       -0.0934
     16 F           3.1249   -5.0904   19.4446 F       1  UNL1       -0.0934
     17 F           4.5235   -5.5010   19.0908 F       1  UNL1       -0.0934
     18 F           2.7122   -3.6532   19.3252 F       1  UNL1       -0.0934
     19 C           4.8661    4.6491   17.7927 C.3     1  UNL1        0.0730
     20 C           5.4184    4.7731   16.4037 C.3     1  UNL1        0.0294
     21 C           6.7605    4.1892   16.0753 C.3     1  UNL1        0.0666
     22 S           7.5887    3.5587   17.1554 S.3     1  UNL1       -0.0756
     23 C           7.2037    0.0054   18.6688 C.ar    1  UNL1        0.2029
     24 N           7.1932   -0.3022   17.2007 N.ar    1  UNL1       -0.1250
     25 N           7.3362    0.9914   16.4551 N.ar    1  UNL1       -0.1220
     26 C           7.4350    2.0985   17.4624 C.ar    1  UNL1        0.1933
     27 N           7.3531    1.4890   18.8305 N.ar    1  UNL1       -0.2860
     28 C           7.4105    2.2328   20.1319 C.3     1  UNL1        0.1341
     29 C           9.1357   -2.5834   19.1329 C.3     1  UNL1        0.0556
     30 C           7.9734   -2.1851   19.9934 C.ar    1  UNL1        0.1001
     31 N           7.4952   -2.9068   21.2183 N.ar    1  UNL1       -0.2085
     32 C           6.3116   -2.1629   21.7621 C.ar    1  UNL1        0.2849
     33 O           6.0583   -0.9815   20.8733 O.2     1  UNL1       -0.4283
     34 C           7.0854   -0.9952   19.7802 C.ar    1  UNL1        0.1964
@<TRIPOS>BOND
     1    29    30    1
     2    30    31   ar
     3    31    32   ar
     4    32    33   ar
     5    33    34   ar
     6    34    23    1
     7    23    24   ar
     8    24    25   ar
     9    25    26   ar
    10    26    22    1
    11    22    21    1
    12    21    20    1
    13    20    19    1
    14    19     1    1
    15     1     2    1
    16     2     3    1
    17     3     4    1
    18     4     5    1
    19     5     7    1
    20     7     8   ar
    21     8     9   ar
    22     9    10   ar
    23    10    13    1
    24    13    14    1
    25    13    15    1
    26    13    16    1
    27    13    17    1
    28    13    18    1
    29    10    11   ar
    30    11    12   ar
    31     5     6    1
    32    26    27   ar
    33    27    28    1
    34    34    30   ar
    35    27    23   ar
    36     6     1    1
    37     5     3    1
    38    12     7   ar
@<TRIPOS>MOLECULE
*****
 34 38 0 0 0
SMALL
GASTEIGER

@<TRIPOS>ATOM
      1 N           1.1668    2.9859   18.2516 N.3     1  UNL1       -0.2724
      2 C           2.3385    3.9216   18.2153 C.3     1  UNL1        0.0724
      3 C           3.5897    3.1024   18.3308 C.3     1  UNL1        0.0214
      4 C           4.6419    2.0412   18.4595 C.3     1  UNL1        0.0072
      5 C           3.1913    1.6603   18.4385 C.3     1  UNL1        0.0350
      6 C           1.6938    1.5883   18.3895 C.3     1  UNL1        0.0761
      7 C           3.4150    0.1832   18.5720 C.ar    1  UNL1       -0.0214
      8 C           2.7421   -0.5807   19.6736 C.ar    1  UNL1       -0.0034
      9 C           2.9658   -2.0580   19.8072 C.ar    1  UNL1        0.0146
     10 C           3.8625   -2.7713   18.8391 C.ar    1  UNL1        0.1228
     11 C           4.5355   -2.0073   17.7375 C.ar    1  UNL1        0.0146
     12 C           4.3118   -0.5301   17.6039 C.ar    1  UNL1       -0.0034
     13 S           4.0863   -4.2485   18.9727 S.3     1  UNL1        0.3126
     14 F           2.8122   -3.6347   19.4727 F       1  UNL1       -0.0934
     15 F           3.0359   -5.1118   19.6062 F       1  UNL1       -0.0934
     16 F           5.3604   -4.8623   18.4727 F       1  UNL1       -0.0934
     17 F           4.3100   -5.7256   19.1062 F       1  UNL1       -0.0934
     18 F           5.1366   -3.3850   18.3391 F       1  UNL1       -0.0934
     19 C          -0.2783    3.3787   18.1651 C.3     1  UNL1        0.0730
     20 C          -0.7320    4.6960   18.7208 C.3     1  UNL1        0.0294
     21 C          -1.7404    4.7346   19.8306 C.3     1  UNL1        0.0666
     22 S          -1.9825    3.5129   20.6668 S.3     1  UNL1       -0.0756
     23 C          -4.3439    3.9617   23.7143 C.ar    1  UNL1        0.2029
     24 N          -5.1659    3.0610   22.8408 N.ar    1  UNL1       -0.1250
     25 N          -4.3814    2.7833   21.5929 N.ar    1  UNL1       -0.1220
     26 C          -3.0745    3.5123   21.6951 C.ar    1  UNL1        0.1933
     27 N          -3.0514    4.2406   23.0062 N.ar    1  UNL1       -0.2860
     28 C          -1.9320    5.0975   23.5191 C.3     1  UNL1        0.1341
     29 C          -2.8232    3.3661   26.5396 C.3     1  UNL1        0.0556
     30 C          -4.0452    4.2169   26.3583 C.ar    1  UNL1        0.1001
     31 N          -4.7828    4.9433   27.4438 N.ar    1  UNL1       -0.2085
     32 C          -5.9376    5.6660   26.8161 C.ar    1  UNL1        0.2849
     33 O          -5.9137    5.3863   25.3426 O.2     1  UNL1       -0.4283
     34 C          -4.7442    4.4907   25.0597 C.ar    1  UNL1        0.1964
@<TRIPOS>BOND
     1    29    30    1
     2    30    31   ar
     3    31    32   ar
     4    32    33   ar
     5    33    34   ar
     6    34    23    1
     7    23    24   ar
     8    24    25   ar
     9    25    26   ar
    10    26    22    1
    11    22    21    1
    12    21    20    1
    13    20    19    1
    14    19     1    1
    15     1     2    1
    16     2     3    1
    17     3     4    1
    18     4     5    1
    19     5     7    1
    20     7     8   ar
    21     8     9   ar
    22     9    10   ar
    23    10    13    1
    24    13    14    1
    25    13    15    1
    26    13    16    1
    27    13    17    1
    28    13    18    1
    29    10    11   ar
    30    11    12   ar
    31     5     6    1
    32    26    27   ar
    33    27    28    1
    34    34    30   ar
    35    27    23   ar
    36     6     1    1
    37     5     3    1
    38    12     7   ar
