@<TRIPOS>MOLECULE
*****
 30 31 0 0 0
SMALL
GASTEIGER

@<TRIPOS>ATOM
      1 N          -8.3159  -18.8055   22.6318 N.ar    1  UNL1       -0.3149
      2 C          -8.1436  -17.6206   23.5353 C.ar    1  UNL1        0.1203
      3 N          -6.7218  -17.1559   23.4240 N.ar    1  UNL1       -0.2310
      4 C          -6.0154  -18.0535   22.4517 C.ar    1  UNL1        0.0983
      5 C          -4.6023  -18.0742   21.9490 C.ar    1  UNL1        0.0206
      6 C          -4.1745  -19.1144   20.9566 C.ar    1  UNL1        0.0017
      7 C          -5.1598  -20.1340   20.4670 C.ar    1  UNL1        0.0016
      8 C          -6.5729  -20.1133   20.9697 C.ar    1  UNL1        0.0188
      9 C          -7.0006  -19.0731   21.9621 C.ar    1  UNL1        0.0786
     10 C          -2.7614  -19.1352   20.4538 C.2     1  UNL1        0.0048
     11 C          -1.9218  -17.8943   20.5250 C.2     1  UNL1        0.0598
     12 C          -0.5086  -17.9150   20.0222 C.2     1  UNL1        0.2679
     13 O           0.1388  -19.2182   19.6582 O.2     1  UNL1       -0.2681
     14 N           0.2569  -16.6326   19.8834 N.am    1  UNL1       -0.1934
     15 O           1.6700  -16.6534   19.3806 O.3     1  UNL1       -0.2949
     16 H          -0.1680  -15.7773   20.1223 H       1  UNL1        0.1825
     17 H           1.9330  -17.5680   19.1930 H       1  UNL1        0.2414
     18 C          -9.5814  -19.5859   22.4329 C.3     1  UNL1        0.1084
     19 C         -10.7849  -18.9227   21.8316 C.3     1  UNL1        0.0356
     20 C         -10.0391  -18.7369   20.5435 C.3     1  UNL1        0.0033
     21 C         -11.5308  -19.1085   23.1198 C.3     1  UNL1        0.0033
     22 C         -11.9885  -18.2595   21.2304 C.3     1  UNL1        0.0740
     23 C         -12.2625  -15.9537   22.3962 C.3     1  UNL1        0.0897
     24 N         -12.0587  -16.7632   21.1499 N.3     1  UNL1       -0.2703
     25 C         -11.9250  -16.0765   19.8231 C.3     1  UNL1        0.0897
     26 C          -9.2064  -17.0081   24.3985 C.3     1  UNL1        0.0639
     27 C          -8.8443  -16.4191   25.7296 C.3     1  UNL1        0.0071
     28 C          -9.1850  -17.7183   26.3972 C.3     1  UNL1        0.0004
     29 C          -8.5036  -15.1198   25.0620 C.3     1  UNL1        0.0004
     30 C          -8.4822  -15.8300   27.0608 C.3     1  UNL1        0.0004
@<TRIPOS>BOND
     1    23    24    1
     2    24    25    1
     3    24    22    1
     4    22    19    1
     5    19    20    1
     6    19    21    1
     7    19    18    1
     8    18     1    1
     9     1     2   ar
    10     2    26    1
    11    26    27    1
    12    27    28    1
    13    27    29    1
    14    27    30    1
    15     2     3   ar
    16     3     4   ar
    17     4     5   ar
    18     5     6   ar
    19     6    10    1
    20    10    11    2
    21    11    12    1
    22    12    13    2
    23    12    14   am
    24    14    15    1
    25     6     7   ar
    26     7     8   ar
    27     8     9   ar
    28     9     1   ar
    29     9     4   ar
    30    14    16    1
    31    15    17    1
@<TRIPOS>MOLECULE
*****
 30 31 0 0 0
SMALL
GASTEIGER

@<TRIPOS>ATOM
      1 N          -5.2804  -18.1062   22.6315 N.ar    1  UNL1       -0.3149
      2 C          -4.8909  -19.4239   22.0301 C.ar    1  UNL1        0.1203
      3 N          -6.1462  -20.2001   21.7619 N.ar    1  UNL1       -0.2310
      4 C          -7.3114  -19.3621   22.1976 C.ar    1  UNL1        0.0983
      5 C          -8.7906  -19.6102   22.1744 C.ar    1  UNL1        0.0206
      6 C          -9.7346  -18.5641   22.6886 C.ar    1  UNL1        0.0017
      7 C          -9.1996  -17.2700   23.2261 C.ar    1  UNL1        0.0016
      8 C          -7.7204  -17.0219   23.2493 C.ar    1  UNL1        0.0188
      9 C          -6.7764  -18.0679   22.7351 C.ar    1  UNL1        0.0786
     10 C         -11.2138  -18.8122   22.6654 C.2     1  UNL1        0.0048
     11 C         -12.1321  -17.9477   23.4774 C.2     1  UNL1        0.0598
     12 C         -13.6113  -18.1958   23.4542 C.2     1  UNL1        0.2679
     13 O         -14.3332  -18.3038   22.1438 O.2     1  UNL1       -0.2681
     14 N         -14.3686  -18.3358   24.7414 N.am    1  UNL1       -0.1934
     15 O         -15.8477  -18.5839   24.7181 O.3     1  UNL1       -0.2949
     16 H         -13.8948  -18.2649   25.6015 H       1  UNL1        0.1825
     17 H         -16.1541  -18.6261   23.7988 H       1  UNL1        0.2414
     18 C          -4.3393  -17.0177   23.0551 C.3     1  UNL1        0.1084
     19 C          -4.6357  -16.2044   24.2800 C.3     1  UNL1        0.0356
     20 C          -5.0086  -15.0372   23.4148 C.3     1  UNL1        0.0033
     21 C          -4.2628  -17.3716   25.1453 C.3     1  UNL1        0.0033
     22 C          -4.9322  -15.3911   25.5050 C.3     1  UNL1        0.0740
     23 C          -6.5420  -15.9736   27.4594 C.3     1  UNL1        0.0897
     24 N          -6.3119  -15.3974   26.0938 N.3     1  UNL1       -0.2703
     25 C          -7.4614  -14.8274   25.3168 C.3     1  UNL1        0.0897
     26 C          -3.4919  -19.8846   21.7466 C.3     1  UNL1        0.0639
     27 C          -2.6717  -19.1914   20.6994 C.3     1  UNL1        0.0071
     28 C          -1.7116  -18.7312   21.7560 C.3     1  UNL1        0.0004
     29 C          -3.6318  -19.6516   19.6428 C.3     1  UNL1        0.0004
     30 C          -1.8515  -18.4981   19.6521 C.3     1  UNL1        0.0004
@<TRIPOS>BOND
     1    23    24    1
     2    24    25    1
     3    24    22    1
     4    22    19    1
     5    19    20    1
     6    19    21    1
     7    19    18    1
     8    18     1    1
     9     1     2   ar
    10     2    26    1
    11    26    27    1
    12    27    28    1
    13    27    29    1
    14    27    30    1
    15     2     3   ar
    16     3     4   ar
    17     4     5   ar
    18     5     6   ar
    19     6    10    1
    20    10    11    2
    21    11    12    1
    22    12    13    2
    23    12    14   am
    24    14    15    1
    25     6     7   ar
    26     7     8   ar
    27     8     9   ar
    28     9     1   ar
    29     9     4   ar
    30    14    16    1
    31    15    17    1
@<TRIPOS>MOLECULE
*****
 30 31 0 0 0
SMALL
GASTEIGER

@<TRIPOS>ATOM
      1 N           5.6842   -2.0948   22.5335 N.ar    1  UNL1       -0.3149
      2 C           6.0595   -3.3451   21.7946 C.ar    1  UNL1        0.1203
      3 N           6.4939   -4.3668   22.8033 N.ar    1  UNL1       -0.2310
      4 C           6.3871   -3.7479   24.1655 C.ar    1  UNL1        0.0983
      5 C           6.6809   -4.2816   25.5362 C.ar    1  UNL1        0.0206
      6 C           6.4742   -3.4111   26.7401 C.ar    1  UNL1        0.0017
      7 C           5.9737   -2.0069   26.5734 C.ar    1  UNL1        0.0016
      8 C           5.6800   -1.4732   25.2027 C.ar    1  UNL1        0.0188
      9 C           5.8867   -2.3437   23.9988 C.ar    1  UNL1        0.0786
     10 C           6.7679   -3.9448   28.1109 C.2     1  UNL1        0.0048
     11 C           7.0983   -5.3962   28.2958 C.2     1  UNL1        0.0598
     12 C           7.3921   -5.9299   29.6666 C.2     1  UNL1        0.2679
     13 O           8.6090   -6.7761   29.8970 O.2     1  UNL1       -0.2681
     14 N           6.4690   -5.6174   30.8068 N.am    1  UNL1       -0.1934
     15 O           6.7628   -6.1510   32.1775 O.3     1  UNL1       -0.2949
     16 H           5.6703   -5.0620   30.6555 H       1  UNL1        0.1825
     17 H           7.5794   -6.6739   32.1527 H       1  UNL1        0.2414
     18 C           5.1927   -0.8194   21.9156 C.3     1  UNL1        0.1084
     19 C           3.8756   -0.7922   21.1985 C.3     1  UNL1        0.0356
     20 C           3.1909   -1.2892   22.4371 C.3     1  UNL1        0.0033
     21 C           4.5602   -0.2952   19.9598 C.3     1  UNL1        0.0033
     22 C           2.5584   -0.7651   20.4813 C.3     1  UNL1        0.0740
     23 C           1.9623    1.6828   21.1163 C.3     1  UNL1        0.0897
     24 N           1.9187    0.5473   20.1371 N.3     1  UNL1       -0.2703
     25 C           1.2352    0.7242   18.8136 C.3     1  UNL1        0.0897
     26 C           6.0092   -3.5395   20.3081 C.3     1  UNL1        0.0639
     27 C           4.7197   -3.9234   19.6452 C.3     1  UNL1        0.0071
     28 C           5.2203   -3.3630   18.3470 C.3     1  UNL1        0.0004
     29 C           4.2191   -4.4837   20.9433 C.3     1  UNL1        0.0004
     30 C           3.4300   -4.3073   18.9822 C.3     1  UNL1        0.0004
@<TRIPOS>BOND
     1    23    24    1
     2    24    25    1
     3    24    22    1
     4    22    19    1
     5    19    20    1
     6    19    21    1
     7    19    18    1
     8    18     1    1
     9     1     2   ar
    10     2    26    1
    11    26    27    1
    12    27    28    1
    13    27    29    1
    14    27    30    1
    15     2     3   ar
    16     3     4   ar
    17     4     5   ar
    18     5     6   ar
    19     6    10    1
    20    10    11    2
    21    11    12    1
    22    12    13    2
    23    12    14   am
    24    14    15    1
    25     6     7   ar
    26     7     8   ar
    27     8     9   ar
    28     9     1   ar
    29     9     4   ar
    30    14    16    1
    31    15    17    1
@<TRIPOS>MOLECULE
*****
 30 31 0 0 0
SMALL
GASTEIGER

@<TRIPOS>ATOM
      1 N           4.3103   -2.6502   21.8406 N.ar    1  UNL1       -0.3149
      2 C           4.8132   -2.4641   23.2415 C.ar    1  UNL1        0.1203
      3 N           4.0679   -1.3147   23.8527 N.ar    1  UNL1       -0.2310
      4 C           3.1044   -0.7905   22.8296 C.ar    1  UNL1        0.0983
      5 C           2.1100    0.3318   22.8696 C.ar    1  UNL1        0.0206
      6 C           1.2654    0.6287   21.6661 C.ar    1  UNL1        0.0017
      7 C           1.4151   -0.1966   20.4226 C.ar    1  UNL1        0.0016
      8 C           2.4095   -1.3189   20.3826 C.ar    1  UNL1        0.0188
      9 C           3.2541   -1.6158   21.5860 C.ar    1  UNL1        0.0786
     10 C           0.2709    1.7510   21.7061 C.2     1  UNL1        0.0048
     11 C          -0.6322    1.9950   20.5336 C.2     1  UNL1        0.0598
     12 C          -1.6266    3.1174   20.5736 C.2     1  UNL1        0.2679
     13 O          -1.1521    4.5403   20.5709 O.2     1  UNL1       -0.2681
     14 N          -3.0956    2.8167   20.6164 N.am    1  UNL1       -0.1934
     15 O          -4.0899    3.9390   20.6564 O.3     1  UNL1       -0.2949
     16 H          -3.4070    1.8828   20.6182 H       1  UNL1        0.1825
     17 H          -3.6201    4.7876   20.6490 H       1  UNL1        0.2414
     18 C           4.7808   -3.6883   20.8655 C.3     1  UNL1        0.1084
     19 C           5.2040   -3.2833   19.4848 C.3     1  UNL1        0.0356
     20 C           6.3225   -2.4702   20.0660 C.3     1  UNL1        0.0033
     21 C           4.0855   -4.0964   18.9034 C.3     1  UNL1        0.0033
     22 C           5.6273   -2.8782   18.1039 C.3     1  UNL1        0.0740
     23 C           3.9816   -1.0822   17.2001 C.3     1  UNL1        0.0897
     24 N           5.3653   -1.4835   17.6179 N.3     1  UNL1       -0.2703
     25 C           6.4871   -0.4900   17.5496 C.3     1  UNL1        0.0897
     26 C           5.8750   -3.2835   23.9132 C.3     1  UNL1        0.0639
     27 C           7.2994   -3.1879   23.4531 C.3     1  UNL1        0.0071
     28 C           7.2612   -1.7006   23.6436 C.3     1  UNL1        0.0004
     29 C           7.3377   -4.6752   23.2625 C.3     1  UNL1        0.0004
     30 C           8.7239   -3.0924   22.9929 C.3     1  UNL1        0.0004
@<TRIPOS>BOND
     1    23    24    1
     2    24    25    1
     3    24    22    1
     4    22    19    1
     5    19    20    1
     6    19    21    1
     7    19    18    1
     8    18     1    1
     9     1     2   ar
    10     2    26    1
    11    26    27    1
    12    27    28    1
    13    27    29    1
    14    27    30    1
    15     2     3   ar
    16     3     4   ar
    17     4     5   ar
    18     5     6   ar
    19     6    10    1
    20    10    11    2
    21    11    12    1
    22    12    13    2
    23    12    14   am
    24    14    15    1
    25     6     7   ar
    26     7     8   ar
    27     8     9   ar
    28     9     1   ar
    29     9     4   ar
    30    14    16    1
    31    15    17    1
@<TRIPOS>MOLECULE
*****
 30 31 0 0 0
SMALL
GASTEIGER

@<TRIPOS>ATOM
      1 N           0.0341    2.7818   23.3984 N.ar    1  UNL1       -0.3149
      2 C          -1.1093    3.2379   22.5413 C.ar    1  UNL1        0.1203
      3 N          -1.0609    2.4671   21.2554 N.ar    1  UNL1       -0.2310
      4 C           0.1124    1.5346   21.3178 C.ar    1  UNL1        0.0983
      5 C           0.6519    0.5335   20.3397 C.ar    1  UNL1        0.0206
      6 C           1.8682   -0.2731   20.6861 C.ar    1  UNL1        0.0017
      7 C           2.5449   -0.0786   22.0105 C.ar    1  UNL1        0.0016
      8 C           2.0054    0.9225   22.9886 C.ar    1  UNL1        0.0188
      9 C           0.7891    1.7291   22.6422 C.ar    1  UNL1        0.0786
     10 C           2.4077   -1.2743   19.7080 C.2     1  UNL1        0.0048
     11 C           3.7252   -1.9424   19.9684 C.2     1  UNL1        0.0598
     12 C           4.2648   -2.9435   18.9903 C.2     1  UNL1        0.2679
     13 O           4.9562   -2.4767   17.7437 O.2     1  UNL1       -0.2681
     14 N           4.1131   -4.4114   19.2589 N.am    1  UNL1       -0.1934
     15 O           4.6526   -5.4125   18.2808 O.3     1  UNL1       -0.2949
     16 H           3.6593   -4.7178   20.0771 H       1  UNL1        0.1825
     17 H           5.0657   -4.9473   17.5367 H       1  UNL1        0.2414
     18 C           0.3645    3.2893   24.7707 C.3     1  UNL1        0.1084
     19 C          -0.4667    2.8686   25.9462 C.3     1  UNL1        0.0356
     20 C          -0.6326    4.3055   26.3432 C.3     1  UNL1        0.0033
     21 C          -0.3008    1.4316   25.5492 C.3     1  UNL1        0.0033
     22 C          -1.2980    2.4478   27.1217 C.3     1  UNL1        0.0740
     23 C          -1.3520    0.3936   28.7116 C.3     1  UNL1        0.0897
     24 N          -0.6805    1.6447   28.2280 N.3     1  UNL1       -0.2703
     25 C           0.6085    2.0927   28.8507 C.3     1  UNL1        0.0897
     26 C          -2.1230    4.2816   22.9060 C.3     1  UNL1        0.0639
     27 C          -3.5872    3.9797   22.7847 C.3     1  UNL1        0.0071
     28 C          -3.5452    3.2497   24.0944 C.3     1  UNL1        0.0004
     29 C          -3.6293    4.7097   21.4750 C.3     1  UNL1        0.0004
     30 C          -5.0516    3.6778   22.6634 C.3     1  UNL1        0.0004
@<TRIPOS>BOND
     1    23    24    1
     2    24    25    1
     3    24    22    1
     4    22    19    1
     5    19    20    1
     6    19    21    1
     7    19    18    1
     8    18     1    1
     9     1     2   ar
    10     2    26    1
    11    26    27    1
    12    27    28    1
    13    27    29    1
    14    27    30    1
    15     2     3   ar
    16     3     4   ar
    17     4     5   ar
    18     5     6   ar
    19     6    10    1
    20    10    11    2
    21    11    12    1
    22    12    13    2
    23    12    14   am
    24    14    15    1
    25     6     7   ar
    26     7     8   ar
    27     8     9   ar
    28     9     1   ar
    29     9     4   ar
    30    14    16    1
    31    15    17    1
@<TRIPOS>MOLECULE
*****
 30 31 0 0 0
SMALL
GASTEIGER

@<TRIPOS>ATOM
      1 N           2.3686   -0.7520   20.5187 N.ar    1  UNL1       -0.3149
      2 C           3.3311   -1.8679   20.2391 C.ar    1  UNL1        0.1203
      3 N           4.0487   -2.1918   21.5159 N.ar    1  UNL1       -0.2310
      4 C           3.5297   -1.2760   22.5845 C.ar    1  UNL1        0.0983
      5 C           3.8685   -1.1375   24.0392 C.ar    1  UNL1        0.0206
      6 C           3.1688   -0.1092   24.8775 C.ar    1  UNL1        0.0017
      7 C           2.1304    0.7807   24.2612 C.ar    1  UNL1        0.0016
      8 C           1.7916    0.6422   22.8066 C.ar    1  UNL1        0.0188
      9 C           2.4913   -0.3862   21.9682 C.ar    1  UNL1        0.0786
     10 C           3.5076    0.0294   26.3322 C.2     1  UNL1        0.0048
     11 C           2.8853   -0.8927   27.3383 C.2     1  UNL1        0.0598
     12 C           3.2240   -0.7542   28.7931 C.2     1  UNL1        0.2679
     13 O           4.6542   -0.6018   29.2188 O.2     1  UNL1       -0.2681
     14 N           2.1326   -0.7680   29.8219 N.am    1  UNL1       -0.1934
     15 O           2.4714   -0.6295   31.2765 O.3     1  UNL1       -0.2949
     16 H           1.1939   -0.8681   29.5425 H       1  UNL1        0.1825
     17 H           3.4321   -0.5411   31.3778 H       1  UNL1        0.2414
     18 C           1.4453   -0.1138   19.5235 C.3     1  UNL1        0.1084
     19 C           1.6258    1.3276   19.1499 C.3     1  UNL1        0.0356
     20 C           2.9356    0.9950   18.4990 C.3     1  UNL1        0.0033
     21 C           0.3159    1.6603   19.8008 C.3     1  UNL1        0.0033
     22 C           1.8062    2.7691   18.7763 C.3     1  UNL1        0.0740
     23 C           1.3865    5.0917   19.8626 C.3     1  UNL1        0.0897
     24 N           2.1216    3.7844   19.8345 N.3     1  UNL1       -0.2703
     25 C           3.1721    3.4924   20.8646 C.3     1  UNL1        0.0897
     26 C           3.5395   -2.5416   18.9152 C.3     1  UNL1        0.0639
     27 C           4.2421   -3.8652   18.8496 C.3     1  UNL1        0.0071
     28 C           2.9611   -4.5626   19.1998 C.3     1  UNL1        0.0004
     29 C           5.5231   -3.1678   18.4994 C.3     1  UNL1        0.0004
     30 C           4.9449   -5.1888   18.7840 C.3     1  UNL1        0.0004
@<TRIPOS>BOND
     1    23    24    1
     2    24    25    1
     3    24    22    1
     4    22    19    1
     5    19    20    1
     6    19    21    1
     7    19    18    1
     8    18     1    1
     9     1     2   ar
    10     2    26    1
    11    26    27    1
    12    27    28    1
    13    27    29    1
    14    27    30    1
    15     2     3   ar
    16     3     4   ar
    17     4     5   ar
    18     5     6   ar
    19     6    10    1
    20    10    11    2
    21    11    12    1
    22    12    13    2
    23    12    14   am
    24    14    15    1
    25     6     7   ar
    26     7     8   ar
    27     8     9   ar
    28     9     1   ar
    29     9     4   ar
    30    14    16    1
    31    15    17    1
@<TRIPOS>MOLECULE
*****
 30 31 0 0 0
SMALL
GASTEIGER

@<TRIPOS>ATOM
      1 N           4.5346   -2.9423   21.8080 N.ar    1  UNL1       -0.3149
      2 C           3.5783   -1.7870   21.7759 C.ar    1  UNL1        0.1203
      3 N           3.5981   -1.1315   23.1250 N.ar    1  UNL1       -0.2310
      4 C           4.5666   -1.8816   23.9907 C.ar    1  UNL1        0.0983
      5 C           4.9962   -1.6901   25.4150 C.ar    1  UNL1        0.0206
      6 C           6.0046   -2.6177   26.0254 C.ar    1  UNL1        0.0017
      7 C           6.5833   -3.7369   25.2114 C.ar    1  UNL1        0.0016
      8 C           6.1537   -3.9284   23.7871 C.ar    1  UNL1        0.0188
      9 C           5.1453   -3.0007   23.1767 C.ar    1  UNL1        0.0786
     10 C           6.4342   -2.4263   27.4498 C.2     1  UNL1        0.0048
     11 C           6.2142   -3.5196   28.4529 C.2     1  UNL1        0.0598
     12 C           6.6439   -3.3281   29.8773 C.2     1  UNL1        0.2679
     13 O           7.1309   -1.9869   30.3399 O.2     1  UNL1       -0.2681
     14 N           6.5865   -4.4778   30.8390 N.am    1  UNL1       -0.1934
     15 O           7.0161   -4.2863   32.2633 O.3     1  UNL1       -0.2949
     16 H           6.2668   -5.3580   30.5353 H       1  UNL1        0.1825
     17 H           7.3004   -3.3682   32.3946 H       1  UNL1        0.2414
     18 C           4.8285   -3.8753   20.6708 C.3     1  UNL1        0.1084
     19 C           5.2918   -3.3290   19.3530 C.3     1  UNL1        0.0356
     20 C           4.1628   -4.0356   18.6631 C.3     1  UNL1        0.0033
     21 C           6.4209   -2.6224   20.0429 C.3     1  UNL1        0.0033
     22 C           5.7552   -2.7827   18.0351 C.3     1  UNL1        0.0740
     23 C           3.9988   -1.1167   17.0918 C.3     1  UNL1        0.0897
     24 N           5.3740   -1.3914   17.6241 N.3     1  UNL1       -0.2703
     25 C           6.3682   -0.2747   17.7453 C.3     1  UNL1        0.0897
     26 C           2.7481   -1.3620   20.6012 C.3     1  UNL1        0.0639
     27 C           2.3374    0.0730   20.4530 C.3     1  UNL1        0.0071
     28 C           3.7791    0.4756   20.3561 C.3     1  UNL1        0.0004
     29 C           0.8957   -0.3296   20.5499 C.3     1  UNL1        0.0004
     30 C           1.9266    1.5081   20.3048 C.3     1  UNL1        0.0004
@<TRIPOS>BOND
     1    23    24    1
     2    24    25    1
     3    24    22    1
     4    22    19    1
     5    19    20    1
     6    19    21    1
     7    19    18    1
     8    18     1    1
     9     1     2   ar
    10     2    26    1
    11    26    27    1
    12    27    28    1
    13    27    29    1
    14    27    30    1
    15     2     3   ar
    16     3     4   ar
    17     4     5   ar
    18     5     6   ar
    19     6    10    1
    20    10    11    2
    21    11    12    1
    22    12    13    2
    23    12    14   am
    24    14    15    1
    25     6     7   ar
    26     7     8   ar
    27     8     9   ar
    28     9     1   ar
    29     9     4   ar
    30    14    16    1
    31    15    17    1
@<TRIPOS>MOLECULE
*****
 30 31 0 0 0
SMALL
GASTEIGER

@<TRIPOS>ATOM
      1 N          -9.1680  -18.5898   22.8557 N.ar    1  UNL1       -0.3149
      2 C          -8.6749  -17.6097   23.8786 C.ar    1  UNL1        0.1203
      3 N          -7.2301  -17.3273   23.5911 N.ar    1  UNL1       -0.2310
      4 C          -6.8302  -18.1328   22.3906 C.ar    1  UNL1        0.0983
      5 C          -5.5303  -18.2565   21.6525 C.ar    1  UNL1        0.0206
      6 C          -5.4280  -19.1606   20.4600 C.ar    1  UNL1        0.0017
      7 C          -6.6258  -19.9409   20.0055 C.ar    1  UNL1        0.0016
      8 C          -7.9257  -19.8172   20.7436 C.ar    1  UNL1        0.0188
      9 C          -8.0279  -18.9131   21.9361 C.ar    1  UNL1        0.0786
     10 C          -4.1280  -19.2844   19.7219 C.2     1  UNL1        0.0048
     11 C          -3.1703  -18.1304   19.6910 C.2     1  UNL1        0.0598
     12 C          -1.8703  -18.2543   18.9529 C.2     1  UNL1        0.2679
     13 O          -0.6885  -18.8958   19.6177 O.2     1  UNL1       -0.2681
     14 N          -1.7520  -17.7366   17.5500 N.am    1  UNL1       -0.1934
     15 O          -0.4521  -17.8604   16.8120 O.3     1  UNL1       -0.2949
     16 H          -2.5277  -17.3155   17.1137 H       1  UNL1        0.1825
     17 H           0.2025  -18.2951   17.3807 H       1  UNL1        0.2414
     18 C         -10.5573  -19.1485   22.7679 C.3     1  UNL1        0.1084
     19 C         -11.7256  -18.3300   23.2314 C.3     1  UNL1        0.0356
     20 C         -11.7471  -19.0921   24.5232 C.3     1  UNL1        0.0033
     21 C         -11.7041  -17.5679   21.9395 C.3     1  UNL1        0.0033
     22 C         -12.8940  -17.5114   23.6948 C.3     1  UNL1        0.0740
     23 C         -15.2399  -18.6054   23.4707 C.3     1  UNL1        0.0897
     24 N         -14.0792  -18.1836   24.3221 N.3     1  UNL1       -0.2703
     25 C         -14.1036  -18.4341   25.8008 C.3     1  UNL1        0.0897
     26 C          -9.4845  -17.0162   24.9932 C.3     1  UNL1        0.0639
     27 C          -8.8134  -16.1902   26.0502 C.3     1  UNL1        0.0071
     28 C          -8.7345  -15.0347   25.0970 C.3     1  UNL1        0.0004
     29 C          -8.8922  -17.3457   27.0033 C.3     1  UNL1        0.0004
     30 C          -8.1422  -15.3641   27.1072 C.3     1  UNL1        0.0004
@<TRIPOS>BOND
     1    23    24    1
     2    24    25    1
     3    24    22    1
     4    22    19    1
     5    19    20    1
     6    19    21    1
     7    19    18    1
     8    18     1    1
     9     1     2   ar
    10     2    26    1
    11    26    27    1
    12    27    28    1
    13    27    29    1
    14    27    30    1
    15     2     3   ar
    16     3     4   ar
    17     4     5   ar
    18     5     6   ar
    19     6    10    1
    20    10    11    2
    21    11    12    1
    22    12    13    2
    23    12    14   am
    24    14    15    1
    25     6     7   ar
    26     7     8   ar
    27     8     9   ar
    28     9     1   ar
    29     9     4   ar
    30    14    16    1
    31    15    17    1
@<TRIPOS>MOLECULE
*****
 30 31 0 0 0
SMALL
GASTEIGER

@<TRIPOS>ATOM
      1 N           4.5025   -0.9943   18.3332 N.ar    1  UNL1       -0.3149
      2 C           5.2677    0.1910   17.8237 C.ar    1  UNL1        0.1203
      3 N           4.4927    1.4273   18.1713 N.ar    1  UNL1       -0.2310
      4 C           3.2484    1.0061   18.8955 C.ar    1  UNL1        0.0983
      5 C           2.1107    1.7921   19.4768 C.ar    1  UNL1        0.0206
      6 C           0.9791    1.0814   20.1581 C.ar    1  UNL1        0.0017
      7 C           0.9852   -0.4153   20.2582 C.ar    1  UNL1        0.0016
      8 C           2.1229   -1.2012   19.6769 C.ar    1  UNL1        0.0188
      9 C           3.2545   -0.4905   18.9956 C.ar    1  UNL1        0.0786
     10 C          -0.1587    1.8673   20.7394 C.2     1  UNL1        0.0048
     11 C          -1.0244    2.7058   19.8465 C.2     1  UNL1        0.0598
     12 C          -2.1622    3.4918   20.4278 C.2     1  UNL1        0.2679
     13 O          -2.0067    4.9623   20.6793 O.2     1  UNL1       -0.2681
     14 N          -3.4554    2.8071   20.7577 N.am    1  UNL1       -0.1934
     15 O          -4.5931    3.5930   21.3389 O.3     1  UNL1       -0.2949
     16 H          -3.5575    1.8419   20.5926 H       1  UNL1        0.1825
     17 H          -4.3284    4.5211   21.4366 H       1  UNL1        0.2414
     18 C           4.9131   -2.4311   18.2031 C.3     1  UNL1        0.1084
     19 C           5.1123   -3.2684   19.4315 C.3     1  UNL1        0.0356
     20 C           6.3509   -2.4894   19.7618 C.3     1  UNL1        0.0033
     21 C           3.8737   -4.0474   19.1013 C.3     1  UNL1        0.0033
     22 C           5.3114   -4.1058   20.6600 C.3     1  UNL1        0.0740
     23 C           6.2159   -3.8598   23.0832 C.3     1  UNL1        0.0897
     24 N           5.2316   -3.4752   22.0187 N.3     1  UNL1       -0.2703
     25 C           4.1673   -2.4598   22.3128 C.3     1  UNL1        0.0897
     26 C           6.5780    0.1476   17.0948 C.3     1  UNL1        0.0639
     27 C           7.6082    1.2098   17.3399 C.3     1  UNL1        0.0071
     28 C           7.3359    1.7873   15.9826 C.3     1  UNL1        0.0004
     29 C           7.8806    0.6324   18.6973 C.3     1  UNL1        0.0004
     30 C           8.6385    2.2721   17.5852 C.3     1  UNL1        0.0004
@<TRIPOS>BOND
     1    23    24    1
     2    24    25    1
     3    24    22    1
     4    22    19    1
     5    19    20    1
     6    19    21    1
     7    19    18    1
     8    18     1    1
     9     1     2   ar
    10     2    26    1
    11    26    27    1
    12    27    28    1
    13    27    29    1
    14    27    30    1
    15     2     3   ar
    16     3     4   ar
    17     4     5   ar
    18     5     6   ar
    19     6    10    1
    20    10    11    2
    21    11    12    1
    22    12    13    2
    23    12    14   am
    24    14    15    1
    25     6     7   ar
    26     7     8   ar
    27     8     9   ar
    28     9     1   ar
    29     9     4   ar
    30    14    16    1
    31    15    17    1
