@<TRIPOS>MOLECULE
*****
 16 17 0 0 0
SMALL
GASTEIGER

@<TRIPOS>ATOM
      1 C         -10.3394  -18.7135   20.6221 C.ar    1  UNL1        0.1386
      2 C          -9.3687  -18.2798   21.6802 C.ar    1  UNL1        0.0384
      3 C          -7.9034  -18.5518   21.5106 C.ar    1  UNL1        0.0223
      4 C          -7.4087  -19.2575   20.2829 C.ar    1  UNL1        0.0848
      5 C          -8.3794  -19.6911   19.2248 C.ar    1  UNL1        0.0223
      6 C          -9.8448  -19.4191   19.3944 C.ar    1  UNL1        0.0384
      7 N          -5.9434  -19.5295   20.1133 N.ar    1  UNL1       -0.2079
      8 C          -5.2586  -20.8445   20.3410 C.ar    1  UNL1        0.2016
      9 N          -3.7975  -20.6620   20.0547 N.ar    1  UNL1       -0.2004
     10 C          -3.5793  -19.2342   19.6500 C.ar    1  UNL1        0.2214
     11 N          -4.9055  -18.5343   19.6862 N.ar    1  UNL1       -0.1409
     12 O         -11.8048  -18.4414   20.7917 O.3     1  UNL1       -0.4755
     13 C         -12.2691  -17.0887   21.2438 C.3     1  UNL1        0.2054
     14 C         -12.6859  -16.8764   22.6690 C.3     1  UNL1        0.0473
     15 C         -14.1418  -18.1418   24.4095 C.3     1  UNL1        0.0001
     16 C         -12.9010  -18.0555   23.5711 C.3     1  UNL1        0.0038
@<TRIPOS>BOND
     1    15    16    1
     2    16    14    1
     3    14    13    1
     4    13    12    1
     5    12     1    1
     6     1     2   ar
     7     2     3   ar
     8     3     4   ar
     9     4     7    1
    10     7     8   ar
    11     8     9   ar
    12     9    10   ar
    13    10    11   ar
    14     4     5   ar
    15     5     6   ar
    16     6     1   ar
    17    11     7   ar
@<TRIPOS>MOLECULE
*****
 16 17 0 0 0
SMALL
GASTEIGER

@<TRIPOS>ATOM
      1 C          -9.7152  -18.4670   23.7263 C.ar    1  UNL1        0.1386
      2 C          -8.8859  -17.2633   23.3897 C.ar    1  UNL1        0.0384
      3 C          -7.5889  -17.4278   22.6544 C.ar    1  UNL1        0.0223
      4 C          -7.1212  -18.7961   22.2556 C.ar    1  UNL1        0.0848
      5 C          -7.9505  -19.9998   22.5922 C.ar    1  UNL1        0.0223
      6 C          -9.2475  -19.8352   23.3275 C.ar    1  UNL1        0.0384
      7 N          -5.8242  -18.9606   21.5203 N.ar    1  UNL1       -0.2079
      8 C          -4.5045  -19.3275   22.1315 C.ar    1  UNL1        0.2016
      9 N          -3.4839  -19.3808   21.0336 N.ar    1  UNL1       -0.2004
     10 C          -4.1728  -19.0468   19.7437 C.ar    1  UNL1        0.2214
     11 N          -5.6192  -18.7871   20.0445 N.ar    1  UNL1       -0.1409
     12 O         -11.0122  -18.3024   24.4617 O.3     1  UNL1       -0.4755
     13 C         -12.3099  -18.3362   23.7102 C.3     1  UNL1        0.2054
     14 C         -12.6874  -17.1943   22.8138 C.3     1  UNL1        0.0473
     15 C         -11.5909  -18.3735   20.7749 C.3     1  UNL1        0.0001
     16 C         -12.4854  -17.3059   21.3316 C.3     1  UNL1        0.0038
@<TRIPOS>BOND
     1    15    16    1
     2    16    14    1
     3    14    13    1
     4    13    12    1
     5    12     1    1
     6     1     2   ar
     7     2     3   ar
     8     3     4   ar
     9     4     7    1
    10     7     8   ar
    11     8     9   ar
    12     9    10   ar
    13    10    11   ar
    14     4     5   ar
    15     5     6   ar
    16     6     1   ar
    17    11     7   ar
@<TRIPOS>MOLECULE
*****
 16 17 0 0 0
SMALL
GASTEIGER

@<TRIPOS>ATOM
      1 C          -4.3319  -19.6925   21.4487 C.ar    1  UNL1        0.1386
      2 C          -5.0544  -20.4518   20.3756 C.ar    1  UNL1        0.0384
      3 C          -6.5314  -20.2669   20.1908 C.ar    1  UNL1        0.0223
      4 C          -7.2860  -19.3228   21.0791 C.ar    1  UNL1        0.0848
      5 C          -6.5636  -18.5635   22.1522 C.ar    1  UNL1        0.0223
      6 C          -5.0865  -18.7484   22.3370 C.ar    1  UNL1        0.0384
      7 N          -8.7631  -19.1379   20.8943 N.ar    1  UNL1       -0.2079
      8 C          -9.8217  -19.4164   21.9199 C.ar    1  UNL1        0.2016
      9 N         -11.1537  -19.0927   21.3110 N.ar    1  UNL1       -0.2004
     10 C         -10.9184  -18.6140   19.9090 C.ar    1  UNL1        0.2214
     11 N          -9.4409  -18.6419   19.6515 N.ar    1  UNL1       -0.1409
     12 O          -2.8549  -19.8774   21.6335 O.3     1  UNL1       -0.4755
     13 C          -1.9773  -18.6895   21.8952 C.3     1  UNL1        0.2054
     14 C          -1.2071  -18.0637   20.7704 C.3     1  UNL1        0.0473
     15 C          -2.8293  -17.5070   18.8189 C.3     1  UNL1        0.0001
     16 C          -1.6517  -18.2676   19.3523 C.3     1  UNL1        0.0038
@<TRIPOS>BOND
     1    15    16    1
     2    16    14    1
     3    14    13    1
     4    13    12    1
     5    12     1    1
     6     1     2   ar
     7     2     3   ar
     8     3     4   ar
     9     4     7    1
    10     7     8   ar
    11     8     9   ar
    12     9    10   ar
    13    10    11   ar
    14     4     5   ar
    15     5     6   ar
    16     6     1   ar
    17    11     7   ar
@<TRIPOS>MOLECULE
*****
 16 17 0 0 0
SMALL
GASTEIGER

@<TRIPOS>ATOM
      1 C          -9.8115  -18.0578   21.1962 C.ar    1  UNL1        0.1386
      2 C          -9.3020  -19.0924   20.2371 C.ar    1  UNL1        0.0384
      3 C          -7.8541  -19.4836   20.2553 C.ar    1  UNL1        0.0223
      4 C          -6.9156  -18.8402   21.2327 C.ar    1  UNL1        0.0848
      5 C          -7.4251  -17.8056   22.1918 C.ar    1  UNL1        0.0223
      6 C          -8.8730  -17.4144   22.1735 C.ar    1  UNL1        0.0384
      7 N          -5.4676  -19.2315   21.2509 N.ar    1  UNL1       -0.2079
      8 C          -4.5389  -19.1200   22.4235 C.ar    1  UNL1        0.2016
      9 N          -3.1914  -19.6225   21.9971 N.ar    1  UNL1       -0.2004
     10 C          -3.2873  -20.0445   20.5609 C.ar    1  UNL1        0.2214
     11 N          -4.6941  -19.8029   20.0998 N.ar    1  UNL1       -0.1409
     12 O         -11.2595  -17.6666   21.1779 O.3     1  UNL1       -0.4755
     13 C         -11.9522  -17.2954   22.4555 C.3     1  UNL1        0.2054
     14 C         -12.3304  -18.3614   23.4408 C.3     1  UNL1        0.0473
     15 C         -10.4949  -20.0048   24.2654 C.3     1  UNL1        0.0001
     16 C         -11.3505  -18.7936   24.4910 C.3     1  UNL1        0.0038
@<TRIPOS>BOND
     1    15    16    1
     2    16    14    1
     3    14    13    1
     4    13    12    1
     5    12     1    1
     6     1     2   ar
     7     2     3   ar
     8     3     4   ar
     9     4     7    1
    10     7     8   ar
    11     8     9   ar
    12     9    10   ar
    13    10    11   ar
    14     4     5   ar
    15     5     6   ar
    16     6     1   ar
    17    11     7   ar
@<TRIPOS>MOLECULE
*****
 16 17 0 0 0
SMALL
GASTEIGER

@<TRIPOS>ATOM
      1 C         -10.0236  -19.4424   21.1172 C.ar    1  UNL1        0.1386
      2 C          -9.3274  -19.3808   19.7900 C.ar    1  UNL1        0.0384
      3 C          -7.8290  -19.4109   19.7270 C.ar    1  UNL1        0.0223
      4 C          -7.0269  -19.5024   20.9911 C.ar    1  UNL1        0.0848
      5 C          -7.7231  -19.5640   22.3183 C.ar    1  UNL1        0.0223
      6 C          -9.2215  -19.5340   22.3813 C.ar    1  UNL1        0.0384
      7 N          -5.5285  -19.5325   20.9281 N.ar    1  UNL1       -0.2079
      8 C          -4.6952  -20.5815   20.2535 C.ar    1  UNL1        0.2016
      9 N          -3.2521  -20.2161   20.4371 N.ar    1  UNL1       -0.2004
     10 C          -3.1934  -18.9412   21.2252 C.ar    1  UNL1        0.2214
     11 N          -4.6003  -18.5187   21.5286 N.ar    1  UNL1       -0.1409
     12 O         -11.5220  -19.4124   21.1802 O.3     1  UNL1       -0.4755
     13 C         -12.2484  -18.1008   21.1353 C.3     1  UNL1        0.2054
     14 C         -12.4261  -17.2985   22.3901 C.3     1  UNL1        0.0473
     15 C         -10.2917  -16.3902   23.5603 C.3     1  UNL1        0.0001
     16 C         -11.4939  -16.1628   22.6926 C.3     1  UNL1        0.0038
@<TRIPOS>BOND
     1    15    16    1
     2    16    14    1
     3    14    13    1
     4    13    12    1
     5    12     1    1
     6     1     2   ar
     7     2     3   ar
     8     3     4   ar
     9     4     7    1
    10     7     8   ar
    11     8     9   ar
    12     9    10   ar
    13    10    11   ar
    14     4     5   ar
    15     5     6   ar
    16     6     1   ar
    17    11     7   ar
@<TRIPOS>MOLECULE
*****
 16 17 0 0 0
SMALL
GASTEIGER

@<TRIPOS>ATOM
      1 C         -10.2879  -16.2101   21.6069 C.ar    1  UNL1        0.1386
      2 C         -10.7334  -16.5443   22.9996 C.ar    1  UNL1        0.0384
      3 C          -9.7907  -16.3638   24.1523 C.ar    1  UNL1        0.0223
      4 C          -8.4024  -15.8491   23.9122 C.ar    1  UNL1        0.0848
      5 C          -7.9569  -15.5149   22.5195 C.ar    1  UNL1        0.0223
      6 C          -8.8996  -15.6954   21.3668 C.ar    1  UNL1        0.0384
      7 N          -7.4597  -15.6686   25.0649 N.ar    1  UNL1       -0.2079
      8 C          -5.9893  -15.3887   24.9659 C.ar    1  UNL1        0.2016
      9 N          -5.4427  -15.2834   26.3588 N.ar    1  UNL1       -0.2004
     10 C          -6.5751  -15.4982   27.3186 C.ar    1  UNL1        0.2214
     11 N          -7.8217  -15.7363   26.5190 N.ar    1  UNL1       -0.1409
     12 O         -11.2306  -16.3906   20.4542 O.3     1  UNL1       -0.4755
     13 C         -11.3034  -17.7100   19.7443 C.3     1  UNL1        0.2054
     14 C         -10.4396  -18.8515   20.1925 C.3     1  UNL1        0.0473
     15 C         -10.6985  -20.0628   22.4764 C.3     1  UNL1        0.0001
     16 C         -11.0277  -19.9584   21.0167 C.3     1  UNL1        0.0038
@<TRIPOS>BOND
     1    15    16    1
     2    16    14    1
     3    14    13    1
     4    13    12    1
     5    12     1    1
     6     1     2   ar
     7     2     3   ar
     8     3     4   ar
     9     4     7    1
    10     7     8   ar
    11     8     9   ar
    12     9    10   ar
    13    10    11   ar
    14     4     5   ar
    15     5     6   ar
    16     6     1   ar
    17    11     7   ar
@<TRIPOS>MOLECULE
*****
 16 17 0 0 0
SMALL
GASTEIGER

@<TRIPOS>ATOM
      1 C          -6.8255  -18.2088   22.3774 C.ar    1  UNL1        0.1386
      2 C          -7.4765  -16.9362   22.8318 C.ar    1  UNL1        0.0384
      3 C          -8.9285  -16.9293   23.2080 C.ar    1  UNL1        0.0223
      4 C          -9.7296  -18.1950   23.1297 C.ar    1  UNL1        0.0848
      5 C          -9.0786  -19.4676   22.6753 C.ar    1  UNL1        0.0223
      6 C          -7.6266  -19.4745   22.2991 C.ar    1  UNL1        0.0384
      7 N         -11.1816  -18.1881   23.5059 N.ar    1  UNL1       -0.2079
      8 C         -12.2908  -17.5435   22.7286 C.ar    1  UNL1        0.2016
      9 N         -13.5741  -17.7816   23.4677 N.ar    1  UNL1       -0.2004
     10 C         -13.2581  -18.5733   24.7020 C.ar    1  UNL1        0.2214
     11 N         -11.7795  -18.8245   24.7256 N.ar    1  UNL1       -0.1409
     12 O          -5.3735  -18.2157   22.0012 O.3     1  UNL1       -0.4755
     13 C          -4.4959  -19.3583   22.4188 C.3     1  UNL1        0.2054
     14 C          -3.3582  -19.7897   21.5417 C.3     1  UNL1        0.0473
     15 C          -3.0899  -18.4503   19.3317 C.3     1  UNL1        0.0001
     16 C          -3.4878  -19.7057   20.0496 C.3     1  UNL1        0.0038
@<TRIPOS>BOND
     1    15    16    1
     2    16    14    1
     3    14    13    1
     4    13    12    1
     5    12     1    1
     6     1     2   ar
     7     2     3   ar
     8     3     4   ar
     9     4     7    1
    10     7     8   ar
    11     8     9   ar
    12     9    10   ar
    13    10    11   ar
    14     4     5   ar
    15     5     6   ar
    16     6     1   ar
    17    11     7   ar
@<TRIPOS>MOLECULE
*****
 16 17 0 0 0
SMALL
GASTEIGER

@<TRIPOS>ATOM
      1 C          -5.1992  -17.6794   23.1694 C.ar    1  UNL1        0.1386
      2 C          -5.8131  -16.4209   23.7070 C.ar    1  UNL1        0.0384
      3 C          -7.2393  -16.0854   23.3855 C.ar    1  UNL1        0.0223
      4 C          -8.0516  -17.0084   22.5263 C.ar    1  UNL1        0.0848
      5 C          -7.4377  -18.2670   21.9887 C.ar    1  UNL1        0.0223
      6 C          -6.0115  -18.6025   22.3103 C.ar    1  UNL1        0.0384
      7 N          -9.4778  -16.6729   22.2048 N.ar    1  UNL1       -0.2079
      8 C         -10.5997  -16.5528   23.1932 C.ar    1  UNL1        0.2016
      9 N         -11.8478  -16.2042   22.4377 N.ar    1  UNL1       -0.2004
     10 C         -11.4973  -16.1090   20.9823 C.ar    1  UNL1        0.2214
     11 N         -10.0326  -16.3986   20.8384 N.ar    1  UNL1       -0.1409
     12 O          -3.7730  -18.0149   23.4909 O.3     1  UNL1       -0.4755
     13 C          -2.7494  -18.0664   22.3957 C.3     1  UNL1        0.2054
     14 C          -2.4689  -19.3607   21.6915 C.3     1  UNL1        0.0473
     15 C          -3.9971  -20.5535   19.9617 C.3     1  UNL1        0.0001
     16 C          -2.9206  -19.5568   20.2746 C.3     1  UNL1        0.0038
@<TRIPOS>BOND
     1    15    16    1
     2    16    14    1
     3    14    13    1
     4    13    12    1
     5    12     1    1
     6     1     2   ar
     7     2     3   ar
     8     3     4   ar
     9     4     7    1
    10     7     8   ar
    11     8     9   ar
    12     9    10   ar
    13    10    11   ar
    14     4     5   ar
    15     5     6   ar
    16     6     1   ar
    17    11     7   ar
@<TRIPOS>MOLECULE
*****
 16 17 0 0 0
SMALL
GASTEIGER

@<TRIPOS>ATOM
      1 C          -7.6795  -19.5095   21.7294 C.ar    1  UNL1        0.1386
      2 C          -6.9573  -20.2049   20.6137 C.ar    1  UNL1        0.0384
      3 C          -5.5070  -19.9149   20.3634 C.ar    1  UNL1        0.0223
      4 C          -4.7789  -18.9296   21.2289 C.ar    1  UNL1        0.0848
      5 C          -5.5012  -18.2343   22.3446 C.ar    1  UNL1        0.0223
      6 C          -6.9514  -18.5242   22.5948 C.ar    1  UNL1        0.0384
      7 N          -3.3287  -18.6397   20.9786 N.ar    1  UNL1       -0.2079
      8 C          -2.2176  -19.6474   20.9651 C.ar    1  UNL1        0.2016
      9 N          -0.9371  -18.9216   20.6760 N.ar    1  UNL1       -0.2004
     10 C          -1.2567  -17.4654   20.5110 C.ar    1  UNL1        0.2214
     11 N          -2.7347  -17.2912   20.6980 N.ar    1  UNL1       -0.1409
     12 O          -9.1298  -19.7994   21.9796 O.3     1  UNL1       -0.4755
     13 C          -9.6597  -19.8176   23.3828 C.3     1  UNL1        0.2054
     14 C         -10.3340  -18.6017   23.9456 C.3     1  UNL1        0.0473
     15 C         -12.8089  -18.0196   23.4106 C.3     1  UNL1        0.0001
     16 C         -11.7883  -18.6516   24.3100 C.3     1  UNL1        0.0038
@<TRIPOS>BOND
     1    15    16    1
     2    16    14    1
     3    14    13    1
     4    13    12    1
     5    12     1    1
     6     1     2   ar
     7     2     3   ar
     8     3     4   ar
     9     4     7    1
    10     7     8   ar
    11     8     9   ar
    12     9    10   ar
    13    10    11   ar
    14     4     5   ar
    15     5     6   ar
    16     6     1   ar
    17    11     7   ar
