@<TRIPOS>MOLECULE
*****
 30 30 0 0 0
SMALL
GASTEIGER

@<TRIPOS>ATOM
      1 C         -10.6748  -19.1076   19.7172 C.2     1  UNL1       -0.0307
      2 C         -11.2586  -17.7301   19.6092 C.2     1  UNL1       -0.0307
      3 C          -9.9662  -19.5257   20.9714 C.3     1  UNL1        0.0258
      4 C          -8.5148  -19.1961   21.1583 C.3     1  UNL1        0.0064
      5 C          -7.7507  -19.7959   22.3013 C.3     1  UNL1        0.0216
      6 C          -6.3714  -20.3414   22.0772 C.3     1  UNL1        0.0898
      7 C          -4.0490  -19.4994   21.2726 C.2     1  UNL1        0.2995
      8 O          -4.1189  -20.4293   20.0978 O.2     1  UNL1       -0.2652
      9 N          -5.1753  -19.4554   22.2623 N.am    1  UNL1       -0.2971
     10 H          -5.1294  -18.8451   23.0335 H       1  UNL1        0.1499
     11 C          -1.8095  -16.2369   21.5734 C.3     1  UNL1        0.1111
     12 N          -3.0056  -17.1228   21.3883 N.am    1  UNL1       -0.2954
     13 C          -2.8528  -18.6134   21.4578 C.2     1  UNL1        0.2996
     14 O          -1.5039  -19.2180   21.7126 O.2     1  UNL1       -0.2652
     15 H          -3.8909  -16.7260   21.2211 H       1  UNL1        0.1499
     16 C         -11.1338  -16.7707   20.7554 C.3     1  UNL1        0.0257
     17 C         -12.2989  -16.5414   21.6719 C.3     1  UNL1        0.0047
     18 C         -13.0014  -17.7094   22.2984 C.3     1  UNL1        0.0003
     19 C         -13.1009  -17.8117   23.7916 C.3     1  UNL1        0.0000
     20 C         -12.2265  -18.7758   24.5372 C.3     1  UNL1        0.0000
     21 C         -10.7505  -18.8091   24.2720 C.3     1  UNL1        0.0000
     22 C          -9.8510  -17.7912   24.9081 C.3     1  UNL1        0.0005
     23 C          -9.6230  -16.4687   24.2380 C.3     1  UNL1        0.0080
     24 C          -8.5750  -16.3384   23.1728 C.3     1  UNL1        0.0671
     25 C          -7.1798  -15.9276   23.5396 C.ar    1  UNL1        0.1574
     26 N          -5.9145  -16.5622   23.0432 N.ar    1  UNL1       -0.1130
     27 N          -4.7576  -15.8368   23.6640 N.ar    1  UNL1       -0.0232
     28 N          -5.3078  -14.7539   24.5441 N.ar    1  UNL1       -0.0466
     29 N          -6.8048  -14.8101   24.4672 N.ar    1  UNL1       -0.2422
     30 H          -7.4312  -14.2174   24.9422 H       1  UNL1        0.1920
@<TRIPOS>BOND
     1    11    12    1
     2    12    13   am
     3    13    14    2
     4    13     7    1
     5     7     8    2
     6     7     9   am
     7     9     6    1
     8     6     5    1
     9     5     4    1
    10     4     3    1
    11     3     1    1
    12     1     2    2
    13     2    16    1
    14    16    17    1
    15    17    18    1
    16    18    19    1
    17    19    20    1
    18    20    21    1
    19    21    22    1
    20    22    23    1
    21    23    24    1
    22    24    25    1
    23    25    26   ar
    24    26    27   ar
    25    27    28   ar
    26    28    29   ar
    27    29    25   ar
    28    12    15    1
    29     9    10    1
    30    29    30    1
@<TRIPOS>MOLECULE
*****
 30 30 0 0 0
SMALL
GASTEIGER

@<TRIPOS>ATOM
      1 C          -9.4756  -20.4931   23.9669 C.2     1  UNL1       -0.0307
      2 C         -10.6977  -19.9190   24.6204 C.2     1  UNL1       -0.0307
      3 C          -8.6947  -19.6719   22.9842 C.3     1  UNL1        0.0258
      4 C          -8.9889  -19.7779   21.5171 C.3     1  UNL1        0.0064
      5 C          -8.0992  -19.0931   20.5224 C.3     1  UNL1        0.0216
      6 C          -6.7490  -19.6646   20.2056 C.3     1  UNL1        0.0898
      7 C          -4.2077  -19.3134   19.7956 C.2     1  UNL1        0.2995
      8 O          -3.9850  -20.7924   19.9082 O.2     1  UNL1       -0.2652
      9 N          -5.5897  -18.7495   19.9443 N.am    1  UNL1       -0.2971
     10 H          -5.7358  -17.7787   19.8704 H       1  UNL1        0.1499
     11 C          -0.5229  -17.8396   19.7796 C.3     1  UNL1        0.1111
     12 N          -1.6822  -18.7547   20.0409 N.am    1  UNL1       -0.2954
     13 C          -3.0483  -18.3981   19.5343 C.2     1  UNL1        0.2996
     14 O          -3.2550  -17.1263   18.7663 O.2     1  UNL1       -0.2652
     15 H          -1.5466  -19.5895   20.5449 H       1  UNL1        0.1499
     16 C         -11.1388  -18.5237   24.2911 C.3     1  UNL1        0.0257
     17 C         -12.5726  -18.2529   23.9431 C.3     1  UNL1        0.0047
     18 C         -12.9446  -17.8687   22.5417 C.3     1  UNL1        0.0003
     19 C         -11.9614  -18.0611   21.4252 C.3     1  UNL1        0.0000
     20 C         -11.5156  -16.8853   20.6075 C.3     1  UNL1        0.0000
     21 C         -10.7017  -15.7963   21.2413 C.3     1  UNL1        0.0000
     22 C          -9.3459  -16.1043   21.8044 C.3     1  UNL1        0.0005
     23 C          -9.1503  -16.1800   23.2897 C.3     1  UNL1        0.0080
     24 C          -7.9641  -15.5169   23.9247 C.3     1  UNL1        0.0671
     25 C          -6.5759  -15.9289   23.5334 C.ar    1  UNL1        0.1574
     26 N          -5.3462  -15.0740   23.6162 N.ar    1  UNL1       -0.1130
     27 N          -4.1839  -15.8848   23.1247 N.ar    1  UNL1       -0.0232
     28 N          -4.6953  -17.2410   22.7381 N.ar    1  UNL1       -0.0466
     29 N          -6.1736  -17.2682   22.9907 N.ar    1  UNL1       -0.2422
     30 H          -6.7744  -18.0311   22.8288 H       1  UNL1        0.1920
@<TRIPOS>BOND
     1    11    12    1
     2    12    13   am
     3    13    14    2
     4    13     7    1
     5     7     8    2
     6     7     9   am
     7     9     6    1
     8     6     5    1
     9     5     4    1
    10     4     3    1
    11     3     1    1
    12     1     2    2
    13     2    16    1
    14    16    17    1
    15    17    18    1
    16    18    19    1
    17    19    20    1
    18    20    21    1
    19    21    22    1
    20    22    23    1
    21    23    24    1
    22    24    25    1
    23    25    26   ar
    24    26    27   ar
    25    27    28   ar
    26    28    29   ar
    27    29    25   ar
    28    12    15    1
    29     9    10    1
    30    29    30    1
@<TRIPOS>MOLECULE
*****
 30 30 0 0 0
SMALL
GASTEIGER

@<TRIPOS>ATOM
      1 C          -5.2051  -20.1082   21.1923 C.2     1  UNL1       -0.0307
      2 C          -6.6836  -19.9450   21.3854 C.2     1  UNL1       -0.0307
      3 C          -4.5379  -19.5254   19.9819 C.3     1  UNL1        0.0258
      4 C          -3.2898  -18.7074   20.1342 C.3     1  UNL1        0.0064
      5 C          -2.2335  -19.1262   21.1134 C.3     1  UNL1        0.0216
      6 C          -2.1189  -18.4294   22.4368 C.3     1  UNL1        0.0898
      7 C          -3.9155  -16.6567   23.0531 C.2     1  UNL1        0.2995
      8 O          -3.2362  -15.6587   22.1629 O.2     1  UNL1       -0.2652
      9 N          -3.3568  -18.0420   23.1901 N.am    1  UNL1       -0.2971
     10 H          -3.8027  -18.6970   23.7744 H       1  UNL1        0.1499
     11 C          -7.7342  -15.9855   23.8995 C.3     1  UNL1        0.1111
     12 N          -6.4963  -16.3728   23.1462 N.am    1  UNL1       -0.2954
     13 C          -5.1534  -16.2693   23.8065 C.2     1  UNL1        0.2996
     14 O          -5.0484  -15.7786   25.2200 O.2     1  UNL1       -0.2652
     15 H          -6.5652  -16.6948   22.2185 H       1  UNL1        0.1499
     16 C          -7.4950  -19.1990   20.3680 C.3     1  UNL1        0.0257
     17 C          -8.1517  -19.9410   19.2418 C.3     1  UNL1        0.0047
     18 C          -9.6239  -19.7861   18.9993 C.3     1  UNL1        0.0003
     19 C         -10.4989  -19.1823   20.0575 C.3     1  UNL1        0.0000
     20 C         -11.0638  -20.0458   21.1462 C.3     1  UNL1        0.0000
     21 C         -10.5246  -19.9415   22.5420 C.3     1  UNL1        0.0000
     22 C         -10.9138  -18.7830   23.4118 C.3     1  UNL1        0.0005
     23 C         -12.1264  -17.9667   23.0753 C.3     1  UNL1        0.0080
     24 C         -11.9821  -16.5111   22.7431 C.3     1  UNL1        0.0671
     25 C         -11.7518  -16.0850   21.3235 C.ar    1  UNL1        0.1574
     26 N         -10.4571  -15.5894   20.7506 N.ar    1  UNL1       -0.1130
     27 N         -10.6809  -15.2778   19.3005 N.ar    1  UNL1       -0.0232
     28 N         -12.1139  -15.5809   18.9771 N.ar    1  UNL1       -0.0466
     29 N         -12.7757  -16.0798   20.2274 N.ar    1  UNL1       -0.2422
     30 H         -13.7170  -16.3554   20.3134 H       1  UNL1        0.1920
@<TRIPOS>BOND
     1    11    12    1
     2    12    13   am
     3    13    14    2
     4    13     7    1
     5     7     8    2
     6     7     9   am
     7     9     6    1
     8     6     5    1
     9     5     4    1
    10     4     3    1
    11     3     1    1
    12     1     2    2
    13     2    16    1
    14    16    17    1
    15    17    18    1
    16    18    19    1
    17    19    20    1
    18    20    21    1
    19    21    22    1
    20    22    23    1
    21    23    24    1
    22    24    25    1
    23    25    26   ar
    24    26    27   ar
    25    27    28   ar
    26    28    29   ar
    27    29    25   ar
    28    12    15    1
    29     9    10    1
    30    29    30    1
@<TRIPOS>MOLECULE
*****
 30 30 0 0 0
SMALL
GASTEIGER

@<TRIPOS>ATOM
      1 C          -9.1566  -17.4897   23.8908 C.2     1  UNL1       -0.0307
      2 C          -8.5340  -16.1645   24.2167 C.2     1  UNL1       -0.0307
      3 C         -10.0138  -18.1856   24.9062 C.3     1  UNL1        0.0258
      4 C         -11.3491  -18.7400   24.5068 C.3     1  UNL1        0.0064
      5 C         -12.2034  -18.0009   23.5199 C.3     1  UNL1        0.0216
      6 C         -12.1925  -18.3977   22.0734 C.3     1  UNL1        0.0898
      7 C         -10.1417  -18.4508   20.4792 C.2     1  UNL1        0.2995
      8 O         -10.4582  -17.0566   20.0255 O.2     1  UNL1       -0.2652
      9 N         -11.0088  -19.1214   21.5031 N.am    1  UNL1       -0.2971
     10 H         -10.8011  -20.0365   21.8009 H       1  UNL1        0.1499
     11 C          -6.3982  -19.6163   19.8645 C.3     1  UNL1        0.1111
     12 N          -7.5818  -18.8926   20.4348 N.am    1  UNL1       -0.2954
     13 C          -8.9581  -19.1746   19.9089 C.2     1  UNL1        0.2996
     14 O          -9.1506  -20.1803   18.8128 O.2     1  UNL1       -0.2652
     15 H          -7.4555  -18.2326   21.1542 H       1  UNL1        0.1499
     16 C          -8.7686  -15.5351   25.5578 C.3     1  UNL1        0.0257
     17 C          -8.0323  -16.0410   26.7628 C.3     1  UNL1        0.0047
     18 C          -6.6937  -15.4659   27.1200 C.3     1  UNL1        0.0003
     19 C          -5.7083  -15.1322   26.0394 C.3     1  UNL1        0.0000
     20 C          -4.9200  -16.2246   25.3798 C.3     1  UNL1        0.0000
     21 C          -4.7938  -16.2611   23.8855 C.3     1  UNL1        0.0000
     22 C          -3.8125  -17.1930   23.2383 C.3     1  UNL1        0.0005
     23 C          -4.2545  -18.5547   22.7907 C.3     1  UNL1        0.0080
     24 C          -3.3394  -19.4049   21.9602 C.3     1  UNL1        0.0671
     25 C          -2.5932  -18.7997   20.8082 C.ar    1  UNL1        0.1574
     26 N          -1.1300  -18.9636   20.5218 N.ar    1  UNL1       -0.1130
     27 N          -0.8118  -18.1895   19.2769 N.ar    1  UNL1       -0.0232
     28 N          -2.0783  -17.5472   18.7940 N.ar    1  UNL1       -0.0466
     29 N          -3.1793  -17.9243   19.7404 N.ar    1  UNL1       -0.2422
     30 H          -4.1213  -17.6461   19.6726 H       1  UNL1        0.1920
@<TRIPOS>BOND
     1    11    12    1
     2    12    13   am
     3    13    14    2
     4    13     7    1
     5     7     8    2
     6     7     9   am
     7     9     6    1
     8     6     5    1
     9     5     4    1
    10     4     3    1
    11     3     1    1
    12     1     2    2
    13     2    16    1
    14    16    17    1
    15    17    18    1
    16    18    19    1
    17    19    20    1
    18    20    21    1
    19    21    22    1
    20    22    23    1
    21    23    24    1
    22    24    25    1
    23    25    26   ar
    24    26    27   ar
    25    27    28   ar
    26    28    29   ar
    27    29    25   ar
    28    12    15    1
    29     9    10    1
    30    29    30    1
@<TRIPOS>MOLECULE
*****
 30 30 0 0 0
SMALL
GASTEIGER

@<TRIPOS>ATOM
      1 C          -9.1516  -20.6083   23.9798 C.2     1  UNL1       -0.0307
      2 C         -10.2999  -20.0112   24.7381 C.2     1  UNL1       -0.0307
      3 C          -8.7442  -20.0295   22.6573 C.3     1  UNL1        0.0258
      4 C          -7.3028  -20.0482   22.2424 C.3     1  UNL1        0.0064
      5 C          -6.4925  -18.7867   22.2892 C.3     1  UNL1        0.0216
      6 C          -4.9952  -18.8587   22.3411 C.3     1  UNL1        0.0898
      7 C          -2.7066  -18.4927   21.1670 C.2     1  UNL1        0.2995
      8 O          -2.0242  -18.4746   22.5027 O.2     1  UNL1       -0.2652
      9 N          -4.1920  -18.6847   21.0862 N.am    1  UNL1       -0.2971
     10 H          -4.6399  -18.6965   20.2096 H       1  UNL1        0.1499
     11 C          -1.7062  -17.4599   17.4680 C.3     1  UNL1        0.1111
     12 N          -2.5092  -17.6339   18.7229 N.am    1  UNL1       -0.2954
     13 C          -1.9035  -18.3187   19.9121 C.2     1  UNL1        0.2996
     14 O          -0.4947  -18.8294   19.8464 O.2     1  UNL1       -0.2652
     15 H          -3.4339  -17.2987   18.7661 H       1  UNL1        0.1499
     16 C         -11.0407  -18.8353   24.1738 C.3     1  UNL1        0.0257
     17 C         -12.5059  -18.6695   24.4493 C.3     1  UNL1        0.0047
     18 C         -13.3486  -17.8231   23.5418 C.3     1  UNL1        0.0003
     19 C         -13.2580  -17.9981   22.0548 C.3     1  UNL1        0.0000
     20 C         -12.4533  -17.0347   21.2339 C.3     1  UNL1        0.0000
     21 C         -11.6228  -15.9845   21.9102 C.3     1  UNL1        0.0000
     22 C         -10.1551  -15.8848   21.6166 C.3     1  UNL1        0.0005
     23 C          -9.1600  -16.5149   22.5453 C.3     1  UNL1        0.0080
     24 C          -8.8781  -15.8893   23.8791 C.3     1  UNL1        0.0671
     25 C          -7.4779  -15.4900   24.2394 C.ar    1  UNL1        0.1574
     26 N          -6.3203  -15.3821   23.2916 N.ar    1  UNL1       -0.1130
     27 N          -5.1163  -14.9539   24.0771 N.ar    1  UNL1       -0.0232
     28 N          -5.5297  -14.7972   25.5105 N.ar    1  UNL1       -0.0466
     29 N          -6.9892  -15.1285   25.6107 N.ar    1  UNL1       -0.2422
     30 H          -7.5313  -15.1117   26.4324 H       1  UNL1        0.1920
@<TRIPOS>BOND
     1    11    12    1
     2    12    13   am
     3    13    14    2
     4    13     7    1
     5     7     8    2
     6     7     9   am
     7     9     6    1
     8     6     5    1
     9     5     4    1
    10     4     3    1
    11     3     1    1
    12     1     2    2
    13     2    16    1
    14    16    17    1
    15    17    18    1
    16    18    19    1
    17    19    20    1
    18    20    21    1
    19    21    22    1
    20    22    23    1
    21    23    24    1
    22    24    25    1
    23    25    26   ar
    24    26    27   ar
    25    27    28   ar
    26    28    29   ar
    27    29    25   ar
    28    12    15    1
    29     9    10    1
    30    29    30    1
@<TRIPOS>MOLECULE
*****
 30 30 0 0 0
SMALL
GASTEIGER

@<TRIPOS>ATOM
      1 C          -7.8844  -17.7886   22.6807 C.2     1  UNL1       -0.0307
      2 C          -8.3947  -16.5793   23.4066 C.2     1  UNL1       -0.0307
      3 C          -8.3316  -19.1582   23.0981 C.3     1  UNL1        0.0258
      4 C          -9.4044  -19.8652   22.3239 C.3     1  UNL1        0.0064
      5 C         -10.8449  -19.6835   22.7009 C.3     1  UNL1        0.0216
      6 C         -11.7216  -18.7714   21.8951 C.3     1  UNL1        0.0898
      7 C         -11.3334  -16.3057   21.1742 C.2     1  UNL1        0.2995
      8 O         -12.1753  -15.8370   22.3237 O.2     1  UNL1       -0.2652
      9 N         -11.1065  -17.7729   20.9599 N.am    1  UNL1       -0.2971
     10 H         -10.5539  -18.0805   20.2054 H       1  UNL1        0.1499
     11 C          -8.8749  -13.5526   19.7160 C.3     1  UNL1        0.1111
     12 N          -9.4900  -14.5511   20.6512 N.am    1  UNL1       -0.2954
     13 C         -10.7182  -15.3072   20.2390 C.2     1  UNL1        0.2996
     14 O         -11.3312  -15.0648   18.8916 O.2     1  UNL1       -0.2652
     15 H          -9.0877  -14.7102   21.5355 H       1  UNL1        0.1499
     16 C          -9.3524  -16.7394   24.5499 C.3     1  UNL1        0.0257
     17 C          -8.8406  -16.7600   25.9597 C.3     1  UNL1        0.0047
     18 C          -8.2662  -15.5146   26.5673 C.3     1  UNL1        0.0003
     19 C          -6.8916  -15.5379   27.1673 C.3     1  UNL1        0.0000
     20 C          -5.7100  -15.9081   26.3208 C.3     1  UNL1        0.0000
     21 C          -5.4477  -15.1763   25.0380 C.3     1  UNL1        0.0000
     22 C          -4.9313  -15.9203   23.8422 C.3     1  UNL1        0.0005
     23 C          -4.0106  -17.0900   24.0267 C.3     1  UNL1        0.0080
     24 C          -3.9527  -18.1701   22.9875 C.3     1  UNL1        0.0671
     25 C          -2.8549  -18.1694   21.9653 C.ar    1  UNL1        0.1574
     26 N          -2.0284  -19.3531   21.5583 N.ar    1  UNL1       -0.1130
     27 N          -1.0536  -18.9001   20.5121 N.ar    1  UNL1       -0.0232
     28 N          -1.2776  -17.4364   20.2725 N.ar    1  UNL1       -0.0466
     29 N          -2.3909  -16.9848   21.1706 N.ar    1  UNL1       -0.2422
     30 H          -2.7534  -16.0713   21.2284 H       1  UNL1        0.1920
@<TRIPOS>BOND
     1    11    12    1
     2    12    13   am
     3    13    14    2
     4    13     7    1
     5     7     8    2
     6     7     9   am
     7     9     6    1
     8     6     5    1
     9     5     4    1
    10     4     3    1
    11     3     1    1
    12     1     2    2
    13     2    16    1
    14    16    17    1
    15    17    18    1
    16    18    19    1
    17    19    20    1
    18    20    21    1
    19    21    22    1
    20    22    23    1
    21    23    24    1
    22    24    25    1
    23    25    26   ar
    24    26    27   ar
    25    27    28   ar
    26    28    29   ar
    27    29    25   ar
    28    12    15    1
    29     9    10    1
    30    29    30    1
@<TRIPOS>MOLECULE
*****
 30 30 0 0 0
SMALL
GASTEIGER

@<TRIPOS>ATOM
      1 C          -5.3838  -20.1761   21.6550 C.2     1  UNL1       -0.0307
      2 C          -6.8508  -19.9228   21.8389 C.2     1  UNL1       -0.0307
      3 C          -4.6926  -19.7090   20.4084 C.3     1  UNL1        0.0258
      4 C          -3.3524  -19.0415   20.4991 C.3     1  UNL1        0.0064
      5 C          -2.4449  -19.3354   21.6568 C.3     1  UNL1        0.0216
      6 C          -2.3022  -18.3397   22.7695 C.3     1  UNL1        0.0898
      7 C          -3.9875  -16.3956   23.1303 C.2     1  UNL1        0.2995
      8 O          -3.2304  -15.5563   22.1442 O.2     1  UNL1       -0.2652
      9 N          -3.5233  -17.7873   23.4429 N.am    1  UNL1       -0.2971
     10 H          -4.0202  -18.3382   24.0901 H       1  UNL1        0.1499
     11 C          -7.7923  -15.6005   23.9312 C.3     1  UNL1        0.1111
     12 N          -6.5711  -16.1528   23.2577 N.am    1  UNL1       -0.2954
     13 C          -5.2087  -15.8432   23.8038 C.2     1  UNL1        0.2996
     14 O          -5.0676  -14.9813   25.0232 O.2     1  UNL1       -0.2652
     15 H          -6.6637  -16.7186   22.4574 H       1  UNL1        0.1499
     16 C          -7.6266  -19.2025   20.7763 C.3     1  UNL1        0.0257
     17 C          -8.1444  -19.9543   19.5860 C.3     1  UNL1        0.0047
     18 C          -9.4473  -19.5578   18.9573 C.3     1  UNL1        0.0003
     19 C         -10.5443  -18.9831   19.8036 C.3     1  UNL1        0.0000
     20 C         -10.4503  -17.5689   20.2944 C.3     1  UNL1        0.0000
     21 C         -11.6270  -16.6484   20.1595 C.3     1  UNL1        0.0000
     22 C         -12.7186  -16.6710   21.1881 C.3     1  UNL1        0.0005
     23 C         -12.3783  -16.8378   22.6394 C.3     1  UNL1        0.0080
     24 C         -12.6419  -18.1450   23.3261 C.3     1  UNL1        0.0671
     25 C         -11.4977  -18.9596   23.8528 C.ar    1  UNL1        0.1574
     26 N         -10.7163  -19.9830   23.0834 N.ar    1  UNL1       -0.1130
     27 N          -9.6697  -20.5498   23.9964 N.ar    1  UNL1       -0.0232
     28 N          -9.8044  -19.8766   25.3301 N.ar    1  UNL1       -0.0466
     29 N         -10.9342  -18.8939   25.2413 N.ar    1  UNL1       -0.2422
     30 H         -11.2503  -18.3085   25.9670 H       1  UNL1        0.1920
@<TRIPOS>BOND
     1    11    12    1
     2    12    13   am
     3    13    14    2
     4    13     7    1
     5     7     8    2
     6     7     9   am
     7     9     6    1
     8     6     5    1
     9     5     4    1
    10     4     3    1
    11     3     1    1
    12     1     2    2
    13     2    16    1
    14    16    17    1
    15    17    18    1
    16    18    19    1
    17    19    20    1
    18    20    21    1
    19    21    22    1
    20    22    23    1
    21    23    24    1
    22    24    25    1
    23    25    26   ar
    24    26    27   ar
    25    27    28   ar
    26    28    29   ar
    27    29    25   ar
    28    12    15    1
    29     9    10    1
    30    29    30    1
@<TRIPOS>MOLECULE
*****
 30 30 0 0 0
SMALL
GASTEIGER

@<TRIPOS>ATOM
      1 C          -3.7103  -19.8457   20.3568 C.2     1  UNL1       -0.0307
      2 C          -5.0213  -19.9748   21.0741 C.2     1  UNL1       -0.0307
      3 C          -3.6082  -18.9904   19.1288 C.3     1  UNL1        0.0258
      4 C          -2.9135  -17.6626   19.1953 C.3     1  UNL1        0.0064
      5 C          -1.6557  -17.5137   19.9990 C.3     1  UNL1        0.0216
      6 C          -1.7332  -17.3224   21.4847 C.3     1  UNL1        0.0898
      7 C          -3.6499  -16.8263   23.1670 C.2     1  UNL1        0.2995
      8 O          -3.5594  -18.2313   23.6845 O.2     1  UNL1       -0.2652
      9 N          -2.7368  -16.3719   22.0672 N.am    1  UNL1       -0.2971
     10 H          -2.7962  -15.4497   21.7275 H       1  UNL1        0.1499
     11 C          -6.2532  -15.1977   25.6811 C.3     1  UNL1        0.1111
     12 N          -5.2497  -16.1483   25.0986 N.am    1  UNL1       -0.2954
     13 C          -4.6535  -15.8757   23.7495 C.2     1  UNL1        0.2996
     14 O          -5.0608  -14.6525   22.9828 O.2     1  UNL1       -0.2652
     15 H          -4.9823  -16.9511   25.6019 H       1  UNL1        0.1499
     16 C          -6.2302  -19.2484   20.5635 C.3     1  UNL1        0.0257
     17 C          -7.1274  -19.9020   19.5547 C.3     1  UNL1        0.0047
     18 C          -8.5947  -19.5903   19.5424 C.3     1  UNL1        0.0003
     19 C          -9.2766  -19.1414   20.8008 C.3     1  UNL1        0.0000
     20 C         -10.6941  -19.5497   21.0724 C.3     1  UNL1        0.0000
     21 C         -11.1410  -19.8179   22.4789 C.3     1  UNL1        0.0000
     22 C         -11.8435  -18.7470   23.2597 C.3     1  UNL1        0.0005
     23 C         -12.5906  -17.6627   22.5412 C.3     1  UNL1        0.0080
     24 C         -12.0268  -16.2739   22.4851 C.3     1  UNL1        0.0671
     25 C         -10.5492  -16.0700   22.3272 C.ar    1  UNL1        0.1574
     26 N          -9.4994  -16.4031   23.3455 N.ar    1  UNL1       -0.1130
     27 N          -8.1632  -16.0362   22.7709 N.ar    1  UNL1       -0.0232
     28 N          -8.3872  -15.4765   21.3974 N.ar    1  UNL1       -0.0466
     29 N          -9.8618  -15.4974   21.1232 N.ar    1  UNL1       -0.2422
     30 H         -10.3014  -15.1893   20.2979 H       1  UNL1        0.1920
@<TRIPOS>BOND
     1    11    12    1
     2    12    13   am
     3    13    14    2
     4    13     7    1
     5     7     8    2
     6     7     9   am
     7     9     6    1
     8     6     5    1
     9     5     4    1
    10     4     3    1
    11     3     1    1
    12     1     2    2
    13     2    16    1
    14    16    17    1
    15    17    18    1
    16    18    19    1
    17    19    20    1
    18    20    21    1
    19    21    22    1
    20    22    23    1
    21    23    24    1
    22    24    25    1
    23    25    26   ar
    24    26    27   ar
    25    27    28   ar
    26    28    29   ar
    27    29    25   ar
    28    12    15    1
    29     9    10    1
    30    29    30    1
@<TRIPOS>MOLECULE
*****
 30 30 0 0 0
SMALL
GASTEIGER

@<TRIPOS>ATOM
      1 C          -2.9059  -19.8631   19.8433 C.2     1  UNL1       -0.0307
      2 C          -3.9556  -20.1964   20.8617 C.2     1  UNL1       -0.0307
      3 C          -3.1716  -18.8091   18.8097 C.3     1  UNL1        0.0258
      4 C          -2.5740  -17.4418   18.9620 C.3     1  UNL1        0.0064
      5 C          -1.3761  -17.2406   19.8422 C.3     1  UNL1        0.0216
      6 C          -1.5512  -17.0898   21.3242 C.3     1  UNL1        0.0898
      7 C          -3.4904  -16.6459   22.9953 C.2     1  UNL1        0.2995
      8 O          -3.2951  -18.0113   23.5846 O.2     1  UNL1       -0.2652
      9 N          -2.6184  -16.1851   21.8651 N.am    1  UNL1       -0.2971
     10 H          -2.7466  -15.2889   21.4783 H       1  UNL1        0.1499
     11 C          -6.3188  -15.1797   25.3618 C.3     1  UNL1        0.1111
     12 N          -5.2516  -16.0844   24.8209 N.am    1  UNL1       -0.2954
     13 C          -4.5576  -15.7411   23.5362 C.2     1  UNL1        0.2996
     14 O          -4.9309  -14.4932   22.7923 O.2     1  UNL1       -0.2652
     15 H          -5.0066  -16.9034   25.3091 H       1  UNL1        0.1499
     16 C          -5.2710  -19.4756   20.8465 C.3     1  UNL1        0.0257
     17 C          -6.5189  -20.2009   20.4384 C.3     1  UNL1        0.0047
     18 C          -7.8632  -19.6442   20.8032 C.3     1  UNL1        0.0003
     19 C          -8.1130  -19.1368   22.1925 C.3     1  UNL1        0.0000
     20 C          -8.4654  -17.6955   22.4125 C.3     1  UNL1        0.0000
     21 C          -8.7409  -17.1940   23.7991 C.3     1  UNL1        0.0000
     22 C         -10.1418  -17.2031   24.3354 C.3     1  UNL1        0.0005
     23 C         -11.0053  -18.4165   24.1569 C.3     1  UNL1        0.0080
     24 C         -12.2103  -18.3550   23.2656 C.3     1  UNL1        0.0671
     25 C         -12.1011  -17.7499   21.8975 C.ar    1  UNL1        0.1574
     26 N         -12.5179  -16.3616   21.5115 N.ar    1  UNL1       -0.1130
     27 N         -12.2303  -16.1805   20.0505 N.ar    1  UNL1       -0.0232
     28 N         -11.6357  -17.4569   19.5335 N.ar    1  UNL1       -0.0466
     29 N         -11.5559  -18.4268   20.6749 N.ar    1  UNL1       -0.2422
     30 H         -11.2069  -19.3463   20.6297 H       1  UNL1        0.1920
@<TRIPOS>BOND
     1    11    12    1
     2    12    13   am
     3    13    14    2
     4    13     7    1
     5     7     8    2
     6     7     9   am
     7     9     6    1
     8     6     5    1
     9     5     4    1
    10     4     3    1
    11     3     1    1
    12     1     2    2
    13     2    16    1
    14    16    17    1
    15    17    18    1
    16    18    19    1
    17    19    20    1
    18    20    21    1
    19    21    22    1
    20    22    23    1
    21    23    24    1
    22    24    25    1
    23    25    26   ar
    24    26    27   ar
    25    27    28   ar
    26    28    29   ar
    27    29    25   ar
    28    12    15    1
    29     9    10    1
    30    29    30    1
