@<TRIPOS>MOLECULE
*****
 25 28 0 0 0
SMALL
GASTEIGER

@<TRIPOS>ATOM
      1 C          -9.1563  -17.0342   22.2821 C.3     1  UNL1        0.0286
      2 C         -10.2213  -16.2002   21.6336 C.3     1  UNL1        0.0216
      3 C         -10.9282  -16.7048   20.4107 C.3     1  UNL1        0.0689
      4 N         -10.5702  -18.0433   19.8361 N.3     1  UNL1       -0.2973
      5 C          -9.5053  -18.8773   20.4845 C.3     1  UNL1        0.0726
      6 C          -8.7983  -18.3728   21.7074 C.3     1  UNL1        0.0635
      7 H         -10.2720  -17.8807   18.8743 H       1  UNL1        0.1232
      8 F          -6.3284  -15.0162   27.1738 F       1  UNL1       -0.2042
      9 C          -7.0354  -15.5207   25.9510 C.ar    1  UNL1        0.1401
     10 C          -8.3437  -16.2421   26.0849 C.ar    1  UNL1        0.0293
     11 C          -9.0507  -16.7466   24.8620 C.ar    1  UNL1       -0.0020
     12 C          -8.4493  -16.5297   23.5050 C.ar    1  UNL1       -0.0222
     13 C          -7.1410  -15.8083   23.3710 C.ar    1  UNL1       -0.0020
     14 C          -6.4340  -15.3038   24.5939 C.ar    1  UNL1        0.0293
     15 C          -7.7334  -19.2068   22.3558 C.3     1  UNL1        0.2070
     16 O          -6.6783  -19.8621   21.5148 O.3     1  UNL1       -0.4753
     17 C          -5.3090  -19.2565   21.4231 C.ar    1  UNL1        0.1418
     18 C          -4.6995  -18.5951   22.6234 C.ar    1  UNL1        0.0402
     19 C          -3.3303  -17.9894   22.5317 C.ar    1  UNL1        0.0433
     20 C          -2.5706  -18.0452   21.2395 C.ar    1  UNL1        0.1766
     21 C          -3.1801  -18.7067   20.0391 C.ar    1  UNL1        0.1794
     22 C          -4.5493  -19.3123   20.1308 C.ar    1  UNL1        0.0770
     23 O          -2.1994  -18.6092   18.9082 O.3     1  UNL1       -0.4345
     24 C          -0.9839  -17.8875   19.4098 C.3     1  UNL1        0.4294
     25 O          -1.2132  -17.5389   20.8506 O.3     1  UNL1       -0.4346
@<TRIPOS>BOND
     1     8     9    1
     2     9    10   ar
     3    10    11   ar
     4    11    12   ar
     5     1    12    1
     6     1     2    1
     7     2     3    1
     8     3     4    1
     9     4     5    1
    10     5     6    1
    11     6    15    1
    12    15    16    1
    13    16    17    1
    14    17    18   ar
    15    18    19   ar
    16    19    20   ar
    17    20    21   ar
    18    21    22   ar
    19    21    23    1
    20    23    24    1
    21    24    25    1
    22    12    13   ar
    23    13    14   ar
    24    14     9   ar
    25     6     1    1
    26    22    17   ar
    27    25    20    1
    28     4     7    1
@<TRIPOS>MOLECULE
*****
 25 28 0 0 0
SMALL
GASTEIGER

@<TRIPOS>ATOM
      1 C          -9.8867  -17.0390   23.0146 C.3     1  UNL1        0.0286
      2 C         -11.1210  -16.2278   22.7527 C.3     1  UNL1        0.0216
      3 C         -12.2421  -16.8081   21.9425 C.3     1  UNL1        0.0689
      4 N         -12.1288  -18.1997   21.3941 N.3     1  UNL1       -0.2973
      5 C         -10.8945  -19.0109   21.6560 C.3     1  UNL1        0.0726
      6 C          -9.7735  -18.4305   22.4663 C.3     1  UNL1        0.0635
      7 H         -12.2230  -18.1256   20.3812 H       1  UNL1        0.1232
      8 F          -5.4026  -14.7176   26.2555 F       1  UNL1       -0.2042
      9 C          -6.5237  -15.2979   25.4454 C.ar    1  UNL1        0.1401
     10 C          -7.7258  -15.8743   26.1329 C.ar    1  UNL1        0.0293
     11 C          -8.8468  -16.4546   25.3227 C.ar    1  UNL1       -0.0020
     12 C          -8.7657  -16.4586   23.8249 C.ar    1  UNL1       -0.0222
     13 C          -7.5636  -15.8823   23.1372 C.ar    1  UNL1       -0.0020
     14 C          -6.4426  -15.3019   23.9475 C.ar    1  UNL1        0.0293
     15 C          -8.5393  -19.2418   22.7281 C.3     1  UNL1        0.2070
     16 O          -7.8975  -20.0122   21.6125 O.3     1  UNL1       -0.4753
     17 C          -6.4140  -19.9349   21.4041 C.ar    1  UNL1        0.1418
     18 C          -5.7622  -20.7649   20.3383 C.ar    1  UNL1        0.0402
     19 C          -4.2787  -20.6876   20.1298 C.ar    1  UNL1        0.0433
     20 C          -3.4472  -19.7803   20.9873 C.ar    1  UNL1        0.1766
     21 C          -4.0990  -18.9502   22.0532 C.ar    1  UNL1        0.1794
     22 C          -5.5824  -19.0275   22.2616 C.ar    1  UNL1        0.0770
     23 O          -3.0294  -18.1531   22.7390 O.3     1  UNL1       -0.4345
     24 C          -1.7164  -18.4905   22.0969 C.3     1  UNL1        0.4294
     25 O          -1.9746  -19.4961   21.0143 O.3     1  UNL1       -0.4346
@<TRIPOS>BOND
     1     8     9    1
     2     9    10   ar
     3    10    11   ar
     4    11    12   ar
     5     1    12    1
     6     1     2    1
     7     2     3    1
     8     3     4    1
     9     4     5    1
    10     5     6    1
    11     6    15    1
    12    15    16    1
    13    16    17    1
    14    17    18   ar
    15    18    19   ar
    16    19    20   ar
    17    20    21   ar
    18    21    22   ar
    19    21    23    1
    20    23    24    1
    21    24    25    1
    22    12    13   ar
    23    13    14   ar
    24    14     9   ar
    25     6     1    1
    26    22    17   ar
    27    25    20    1
    28     4     7    1
@<TRIPOS>MOLECULE
*****
 25 28 0 0 0
SMALL
GASTEIGER

@<TRIPOS>ATOM
      1 C          -4.8484  -19.1630   21.5973 C.3     1  UNL1        0.0286
      2 C          -3.8797  -19.9149   20.7333 C.3     1  UNL1        0.0216
      3 C          -2.4036  -19.7280   20.9234 C.3     1  UNL1        0.0689
      4 N          -1.8961  -18.7892   21.9775 N.3     1  UNL1       -0.2973
      5 C          -2.8647  -18.0373   22.8414 C.3     1  UNL1        0.0726
      6 C          -4.3408  -18.2242   22.6514 C.3     1  UNL1        0.0635
      7 H          -1.3245  -18.0920   21.5004 H       1  UNL1        0.1232
      8 F         -10.7528  -19.9107   20.8372 F       1  UNL1       -0.2042
      9 C          -9.2767  -19.7237   21.0271 C.ar    1  UNL1        0.1401
     10 C          -8.4237  -19.2735   19.8784 C.ar    1  UNL1        0.0293
     11 C          -6.9476  -19.0866   20.0684 C.ar    1  UNL1       -0.0020
     12 C          -6.3245  -19.3499   21.4073 C.ar    1  UNL1       -0.0222
     13 C          -7.1775  -19.8002   22.5561 C.ar    1  UNL1       -0.0020
     14 C          -8.6536  -19.9871   22.3660 C.ar    1  UNL1        0.0293
     15 C          -5.3094  -17.4723   23.5154 C.3     1  UNL1        0.2070
     16 O          -6.1264  -16.3579   22.9318 O.3     1  UNL1       -0.4753
     17 C          -7.6244  -16.4270   22.9691 C.ar    1  UNL1        0.1418
     18 C          -8.3275  -16.7741   24.2477 C.ar    1  UNL1        0.0402
     19 C          -9.8255  -16.8432   24.2851 C.ar    1  UNL1        0.0433
     20 C         -10.6202  -16.5653   23.0437 C.ar    1  UNL1        0.1766
     21 C          -9.9171  -16.2182   21.7650 C.ar    1  UNL1        0.1794
     22 C          -8.4191  -16.1491   21.7276 C.ar    1  UNL1        0.0770
     23 O         -10.9587  -15.9963   20.7086 O.3     1  UNL1       -0.4345
     24 C         -12.3056  -16.2062   21.3345 C.3     1  UNL1        0.4294
     25 O         -12.0964  -16.5579   22.7777 O.3     1  UNL1       -0.4346
@<TRIPOS>BOND
     1     8     9    1
     2     9    10   ar
     3    10    11   ar
     4    11    12   ar
     5     1    12    1
     6     1     2    1
     7     2     3    1
     8     3     4    1
     9     4     5    1
    10     5     6    1
    11     6    15    1
    12    15    16    1
    13    16    17    1
    14    17    18   ar
    15    18    19   ar
    16    19    20   ar
    17    20    21   ar
    18    21    22   ar
    19    21    23    1
    20    23    24    1
    21    24    25    1
    22    12    13   ar
    23    13    14   ar
    24    14     9   ar
    25     6     1    1
    26    22    17   ar
    27    25    20    1
    28     4     7    1
@<TRIPOS>MOLECULE
*****
 25 28 0 0 0
SMALL
GASTEIGER

@<TRIPOS>ATOM
      1 C          -5.1345  -16.4877   24.0106 C.3     1  UNL1        0.0286
      2 C          -4.6442  -15.7879   25.2435 C.3     1  UNL1        0.0216
      3 C          -5.6148  -15.0735   26.1366 C.3     1  UNL1        0.0689
      4 N          -7.0757  -15.0589   25.7967 N.3     1  UNL1       -0.2973
      5 C          -7.5660  -15.7587   24.5639 C.3     1  UNL1        0.0726
      6 C          -6.5954  -16.4730   23.6708 C.3     1  UNL1        0.0635
      7 H          -7.3475  -14.0798   25.7073 H       1  UNL1        0.1232
      8 F          -1.2522  -19.3453   20.4383 F       1  UNL1       -0.2042
      9 C          -2.2227  -18.6309   21.3313 C.ar    1  UNL1        0.1401
     10 C          -2.0921  -17.1527   21.5506 C.ar    1  UNL1        0.0293
     11 C          -3.0627  -16.4384   22.4437 C.ar    1  UNL1       -0.0020
     12 C          -4.1639  -17.2021   23.1175 C.ar    1  UNL1       -0.0222
     13 C          -4.2946  -18.6802   22.8982 C.ar    1  UNL1       -0.0020
     14 C          -3.3240  -19.3946   22.0052 C.ar    1  UNL1        0.0293
     15 C          -7.0858  -17.1728   22.4380 C.3     1  UNL1        0.2070
     16 O          -8.1907  -16.5694   21.6225 O.3     1  UNL1       -0.4753
     17 C          -9.6200  -16.7694   22.0315 C.ar    1  UNL1        0.1418
     18 C         -10.7177  -16.0647   21.2910 C.ar    1  UNL1        0.0402
     19 C         -12.1469  -16.2646   21.7000 C.ar    1  UNL1        0.0433
     20 C         -12.4785  -17.1694   22.8495 C.ar    1  UNL1        0.1766
     21 C         -11.3808  -17.8742   23.5901 C.ar    1  UNL1        0.1794
     22 C          -9.9516  -17.6743   23.1811 C.ar    1  UNL1        0.0770
     23 O         -12.0084  -18.6987   24.6747 O.3     1  UNL1       -0.4345
     24 C         -13.4939  -18.5034   24.6045 C.3     1  UNL1        0.4294
     25 O         -13.7845  -17.5583   23.4765 O.3     1  UNL1       -0.4346
@<TRIPOS>BOND
     1     8     9    1
     2     9    10   ar
     3    10    11   ar
     4    11    12   ar
     5     1    12    1
     6     1     2    1
     7     2     3    1
     8     3     4    1
     9     4     5    1
    10     5     6    1
    11     6    15    1
    12    15    16    1
    13    16    17    1
    14    17    18   ar
    15    18    19   ar
    16    19    20   ar
    17    20    21   ar
    18    21    22   ar
    19    21    23    1
    20    23    24    1
    21    24    25    1
    22    12    13   ar
    23    13    14   ar
    24    14     9   ar
    25     6     1    1
    26    22    17   ar
    27    25    20    1
    28     4     7    1
@<TRIPOS>MOLECULE
*****
 25 28 0 0 0
SMALL
GASTEIGER

@<TRIPOS>ATOM
      1 C          -9.1038  -19.4220   22.8975 C.3     1  UNL1        0.0286
      2 C          -9.1365  -20.4788   23.9615 C.3     1  UNL1        0.0216
      3 C         -10.3046  -20.5639   24.8986 C.3     1  UNL1        0.0689
      4 N         -11.4403  -19.5921   24.7716 N.3     1  UNL1       -0.2973
      5 C         -11.4077  -18.5354   23.7076 C.3     1  UNL1        0.0726
      6 C         -10.2395  -18.4503   22.7705 C.3     1  UNL1        0.0635
      7 H         -11.5143  -19.1073   25.6660 H       1  UNL1        0.1232
      8 F          -4.4313  -19.0816   19.1492 F       1  UNL1       -0.2042
      9 C          -5.5993  -19.1667   20.0862 C.ar    1  UNL1        0.1401
     10 C          -5.3871  -19.0244   21.5643 C.ar    1  UNL1        0.0293
     11 C          -6.5553  -19.1095   22.5014 C.ar    1  UNL1       -0.0020
     12 C          -7.9357  -19.3369   21.9604 C.ar    1  UNL1       -0.0222
     13 C          -8.1480  -19.4792   20.4823 C.ar    1  UNL1       -0.0020
     14 C          -6.9799  -19.3941   19.5452 C.ar    1  UNL1        0.0293
     15 C         -10.2070  -17.3935   21.7066 C.3     1  UNL1        0.2070
     16 O          -9.7407  -16.0074   22.0402 O.3     1  UNL1       -0.4753
     17 C          -8.7106  -15.7999   23.1108 C.ar    1  UNL1        0.1418
     18 C          -7.2678  -15.6257   22.7397 C.ar    1  UNL1        0.0402
     19 C          -6.2378  -15.4182   23.8102 C.ar    1  UNL1        0.0433
     20 C          -6.6506  -15.3851   25.2518 C.ar    1  UNL1        0.1766
     21 C          -8.0935  -15.5593   25.6230 C.ar    1  UNL1        0.1794
     22 C          -9.1235  -15.7667   24.5525 C.ar    1  UNL1        0.0770
     23 O          -8.2005  -15.4810   27.1171 O.3     1  UNL1       -0.4345
     24 C          -6.8238  -15.2584   27.6694 C.3     1  UNL1        0.4294
     25 O          -5.8659  -15.1991   26.5166 O.3     1  UNL1       -0.4346
@<TRIPOS>BOND
     1     8     9    1
     2     9    10   ar
     3    10    11   ar
     4    11    12   ar
     5     1    12    1
     6     1     2    1
     7     2     3    1
     8     3     4    1
     9     4     5    1
    10     5     6    1
    11     6    15    1
    12    15    16    1
    13    16    17    1
    14    17    18   ar
    15    18    19   ar
    16    19    20   ar
    17    20    21   ar
    18    21    22   ar
    19    21    23    1
    20    23    24    1
    21    24    25    1
    22    12    13   ar
    23    13    14   ar
    24    14     9   ar
    25     6     1    1
    26    22    17   ar
    27    25    20    1
    28     4     7    1
@<TRIPOS>MOLECULE
*****
 25 28 0 0 0
SMALL
GASTEIGER

@<TRIPOS>ATOM
      1 C         -10.7493   -5.6179   18.2474 C.3     1  UNL1        0.0286
      2 C          -9.6500   -6.1632   19.1103 C.3     1  UNL1        0.0216
      3 C          -9.2384   -7.5999   18.9820 C.3     1  UNL1        0.0689
      4 N          -9.9260   -8.4914   17.9907 N.3     1  UNL1       -0.2973
      5 C         -11.0252   -7.9461   17.1279 C.3     1  UNL1        0.0726
      6 C         -11.4368   -6.5095   17.2563 C.3     1  UNL1        0.0635
      7 H         -10.3241   -9.2675   18.5194 H       1  UNL1        0.1232
      8 F         -12.3959    0.1287   18.7608 F       1  UNL1       -0.2042
      9 C         -11.9843   -1.3079   18.6324 C.ar    1  UNL1        0.1401
     10 C         -10.8873   -1.6920   17.6841 C.ar    1  UNL1        0.0293
     11 C         -10.4757   -3.1286   17.5558 C.ar    1  UNL1       -0.0020
     12 C         -11.1609   -4.1813   18.3758 C.ar    1  UNL1       -0.0222
     13 C         -12.2579   -3.7973   19.3241 C.ar    1  UNL1       -0.0020
     14 C         -12.6696   -2.3606   19.4524 C.ar    1  UNL1        0.0293
     15 C         -12.5360   -5.9643   16.3934 C.3     1  UNL1        0.2070
     16 O         -13.7395   -6.8069   16.0904 O.3     1  UNL1       -0.4753
     17 C         -14.7629   -7.0639   17.1566 C.ar    1  UNL1        0.1418
     18 C         -14.9167   -6.1008   18.2962 C.ar    1  UNL1        0.0402
     19 C         -15.9400   -6.3578   19.3624 C.ar    1  UNL1        0.0433
     20 C         -16.8096   -7.5778   19.2889 C.ar    1  UNL1        0.1766
     21 C         -16.6558   -8.5409   18.1493 C.ar    1  UNL1        0.1794
     22 C         -15.6324   -8.2840   17.0831 C.ar    1  UNL1        0.0770
     23 O         -17.6476   -9.6495   18.3421 O.3     1  UNL1       -0.4345
     24 C         -18.4144   -9.3716   19.6010 C.3     1  UNL1        0.4294
     25 O         -17.8965   -8.0912   20.1862 O.3     1  UNL1       -0.4346
@<TRIPOS>BOND
     1     8     9    1
     2     9    10   ar
     3    10    11   ar
     4    11    12   ar
     5     1    12    1
     6     1     2    1
     7     2     3    1
     8     3     4    1
     9     4     5    1
    10     5     6    1
    11     6    15    1
    12    15    16    1
    13    16    17    1
    14    17    18   ar
    15    18    19   ar
    16    19    20   ar
    17    20    21   ar
    18    21    22   ar
    19    21    23    1
    20    23    24    1
    21    24    25    1
    22    12    13   ar
    23    13    14   ar
    24    14     9   ar
    25     6     1    1
    26    22    17   ar
    27    25    20    1
    28     4     7    1
@<TRIPOS>MOLECULE
*****
 25 28 0 0 0
SMALL
GASTEIGER

@<TRIPOS>ATOM
      1 C          -8.1030  -16.7545   23.0547 C.3     1  UNL1        0.0286
      2 C          -7.8057  -15.4681   23.7668 C.3     1  UNL1        0.0216
      3 C          -6.3924  -15.1216   24.1308 C.3     1  UNL1        0.0689
      4 N          -5.2763  -16.0615   23.7828 N.3     1  UNL1       -0.2973
      5 C          -5.5736  -17.3478   23.0708 C.3     1  UNL1        0.0726
      6 C          -6.9869  -17.6944   22.7068 C.3     1  UNL1        0.0635
      7 H          -4.8161  -16.3093   24.6587 H       1  UNL1        0.1232
      8 F         -13.7561  -18.1407   21.5987 F       1  UNL1       -0.2042
      9 C         -12.3428  -17.7941   21.9626 C.ar    1  UNL1        0.1401
     10 C         -11.4735  -17.0634   20.9826 C.ar    1  UNL1        0.0293
     11 C         -10.0603  -16.7169   21.3467 C.ar    1  UNL1       -0.0020
     12 C          -9.5163  -17.1011   22.6907 C.ar    1  UNL1       -0.0222
     13 C         -10.3855  -17.8318   23.6708 C.ar    1  UNL1       -0.0020
     14 C         -11.7988  -18.1783   23.3068 C.ar    1  UNL1        0.0293
     15 C          -7.2841  -18.9807   21.9948 C.3     1  UNL1        0.2070
     16 O          -6.5465  -19.3289   20.7359 O.3     1  UNL1       -0.4753
     17 C          -5.0493  -19.2455   20.6963 C.ar    1  UNL1        0.1418
     18 C          -4.2323  -19.9204   21.7578 C.ar    1  UNL1        0.0402
     19 C          -2.7351  -19.8371   21.7183 C.ar    1  UNL1        0.0433
     20 C          -2.0550  -19.0788   20.6172 C.ar    1  UNL1        0.1766
     21 C          -2.8720  -18.4038   19.5556 C.ar    1  UNL1        0.1794
     22 C          -4.3692  -18.4872   19.5952 C.ar    1  UNL1        0.0770
     23 O          -1.9290  -17.7331   18.6013 O.3     1  UNL1       -0.4345
     24 C          -0.5291  -17.9935   19.0730 C.3     1  UNL1        0.4294
     25 O          -0.6070  -18.8252   20.3189 O.3     1  UNL1       -0.4346
@<TRIPOS>BOND
     1     8     9    1
     2     9    10   ar
     3    10    11   ar
     4    11    12   ar
     5     1    12    1
     6     1     2    1
     7     2     3    1
     8     3     4    1
     9     4     5    1
    10     5     6    1
    11     6    15    1
    12    15    16    1
    13    16    17    1
    14    17    18   ar
    15    18    19   ar
    16    19    20   ar
    17    20    21   ar
    18    21    22   ar
    19    21    23    1
    20    23    24    1
    21    24    25    1
    22    12    13   ar
    23    13    14   ar
    24    14     9   ar
    25     6     1    1
    26    22    17   ar
    27    25    20    1
    28     4     7    1
@<TRIPOS>MOLECULE
*****
 25 28 0 0 0
SMALL
GASTEIGER

@<TRIPOS>ATOM
      1 C         -11.0903   -2.9019   17.8324 C.3     1  UNL1        0.0286
      2 C         -10.4338   -2.0480   16.7883 C.3     1  UNL1        0.0216
      3 C         -10.7859   -0.5941   16.6784 C.3     1  UNL1        0.0689
      4 N         -11.7945    0.0060   17.6126 N.3     1  UNL1       -0.2973
      5 C         -12.4509   -0.8477   18.6567 C.3     1  UNL1        0.0726
      6 C         -12.0988   -2.3017   18.7666 C.3     1  UNL1        0.0635
      7 H         -12.5414    0.3889   17.0330 H       1  UNL1        0.1232
      8 F          -9.6820   -8.7176   18.2722 F       1  UNL1       -0.2042
      9 C         -10.0340   -7.2637   18.1623 C.ar    1  UNL1        0.1401
     10 C          -9.4807   -6.2811   19.1515 C.ar    1  UNL1        0.0293
     11 C          -9.8328   -4.8272   19.0415 C.ar    1  UNL1       -0.0020
     12 C         -10.7382   -4.3558   17.9424 C.ar    1  UNL1       -0.0222
     13 C         -11.2915   -5.3383   16.9532 C.ar    1  UNL1       -0.0020
     14 C         -10.9394   -6.7923   17.0631 C.ar    1  UNL1        0.0293
     15 C         -12.7552   -3.1554   19.8107 C.3     1  UNL1        0.2070
     16 O         -14.2462   -3.3193   19.8168 O.3     1  UNL1       -0.4753
     17 C         -14.8541   -4.6642   19.5490 C.ar    1  UNL1        0.1418
     18 C         -16.3315   -4.8654   19.7116 C.ar    1  UNL1        0.0402
     19 C         -16.9394   -6.2103   19.4438 C.ar    1  UNL1        0.0433
     20 C         -16.0697   -7.3541   19.0132 C.ar    1  UNL1        0.1766
     21 C         -14.5921   -7.1529   18.8506 C.ar    1  UNL1        0.1794
     22 C         -13.9843   -5.8080   19.1184 C.ar    1  UNL1        0.0770
     23 O         -13.9917   -8.4573   18.4168 O.3     1  UNL1       -0.4345
     24 C         -15.0982   -9.4646   18.3114 C.3     1  UNL1        0.4294
     25 O         -16.3824   -8.7827   18.6800 O.3     1  UNL1       -0.4346
@<TRIPOS>BOND
     1     8     9    1
     2     9    10   ar
     3    10    11   ar
     4    11    12   ar
     5     1    12    1
     6     1     2    1
     7     2     3    1
     8     3     4    1
     9     4     5    1
    10     5     6    1
    11     6    15    1
    12    15    16    1
    13    16    17    1
    14    17    18   ar
    15    18    19   ar
    16    19    20   ar
    17    20    21   ar
    18    21    22   ar
    19    21    23    1
    20    23    24    1
    21    24    25    1
    22    12    13   ar
    23    13    14   ar
    24    14     9   ar
    25     6     1    1
    26    22    17   ar
    27    25    20    1
    28     4     7    1
@<TRIPOS>MOLECULE
*****
 25 28 0 0 0
SMALL
GASTEIGER

@<TRIPOS>ATOM
      1 C          -7.2677  -17.4563   23.1447 C.3     1  UNL1        0.0286
      2 C          -6.9403  -16.0030   23.3210 C.3     1  UNL1        0.0216
      3 C          -7.7764  -15.1506   24.2290 C.3     1  UNL1        0.0689
      4 N          -8.9399  -15.7515   24.9607 N.3     1  UNL1       -0.2973
      5 C          -9.2672  -17.2046   24.7844 C.3     1  UNL1        0.0726
      6 C          -8.4312  -18.0570   23.8765 C.3     1  UNL1        0.0635
      7 H          -9.7678  -15.2268   24.6786 H       1  UNL1        0.1232
      8 F          -3.9236  -20.8660   19.5129 F       1  UNL1       -0.2042
      9 C          -4.7596  -20.0136   20.4209 C.ar    1  UNL1        0.1401
     10 C          -4.1832  -19.4971   21.7059 C.ar    1  UNL1        0.0293
     11 C          -5.0192  -18.6447   22.6138 C.ar    1  UNL1       -0.0020
     12 C          -6.4316  -18.3087   22.2368 C.ar    1  UNL1       -0.0222
     13 C          -7.0081  -18.8251   20.9518 C.ar    1  UNL1       -0.0020
     14 C          -6.1721  -19.6775   20.0439 C.ar    1  UNL1        0.0293
     15 C          -8.7586  -19.5102   23.7003 C.3     1  UNL1        0.2070
     16 O         -10.0160  -19.9149   22.9895 O.3     1  UNL1       -0.4753
     17 C         -10.8361  -18.8847   22.2709 C.ar    1  UNL1        0.1418
     18 C         -12.2262  -18.5722   22.7396 C.ar    1  UNL1        0.0402
     19 C         -13.0462  -17.5421   22.0210 C.ar    1  UNL1        0.0433
     20 C         -12.4760  -16.8245   20.8336 C.ar    1  UNL1        0.1766
     21 C         -11.0858  -17.1369   20.3649 C.ar    1  UNL1        0.1794
     22 C         -10.2658  -18.1670   21.0835 C.ar    1  UNL1        0.0770
     23 O         -10.7934  -16.2738   19.1734 O.3     1  UNL1       -0.4345
     24 C         -12.0028  -15.4279   18.9059 C.3     1  UNL1        0.4294
     25 O         -13.0428  -15.7682   19.9319 O.3     1  UNL1       -0.4346
@<TRIPOS>BOND
     1     8     9    1
     2     9    10   ar
     3    10    11   ar
     4    11    12   ar
     5     1    12    1
     6     1     2    1
     7     2     3    1
     8     3     4    1
     9     4     5    1
    10     5     6    1
    11     6    15    1
    12    15    16    1
    13    16    17    1
    14    17    18   ar
    15    18    19   ar
    16    19    20   ar
    17    20    21   ar
    18    21    22   ar
    19    21    23    1
    20    23    24    1
    21    24    25    1
    22    12    13   ar
    23    13    14   ar
    24    14     9   ar
    25     6     1    1
    26    22    17   ar
    27    25    20    1
    28     4     7    1
