@<TRIPOS>MOLECULE
*****
 23 25 0 0 0
SMALL
GASTEIGER

@<TRIPOS>ATOM
      1 C          -5.5706  -16.4851   23.8759 C.3     1  UNL1        0.0064
      2 C          -4.6337  -17.4299   23.1835 C.3     1  UNL1        0.0261
      3 C          -5.1741  -18.4717   22.2492 C.ar    1  UNL1       -0.0258
      4 C          -4.2373  -19.4165   21.5567 C.ar    1  UNL1       -0.0046
      5 C          -4.7776  -20.4582   20.6225 C.ar    1  UNL1       -0.0003
      6 C          -6.2548  -20.5551   20.3807 C.ar    1  UNL1       -0.0003
      7 C          -7.1917  -19.6103   21.0732 C.ar    1  UNL1       -0.0043
      8 C          -6.6513  -18.5686   22.0074 C.ar    1  UNL1       -0.0224
      9 C          -7.5882  -17.6237   22.7000 C.3     1  UNL1        0.0443
     10 C          -7.0478  -16.5820   23.6342 C.3     1  UNL1        0.0091
     11 C          -9.0654  -17.7205   22.4583 C.ar    1  UNL1       -0.0175
     12 C          -9.8982  -18.6661   23.2723 C.ar    1  UNL1       -0.0030
     13 C         -11.3754  -18.7630   23.0305 C.ar    1  UNL1        0.0119
     14 C         -12.0198  -17.9143   21.9748 C.ar    1  UNL1        0.0682
     15 CL        -13.4971  -18.0112   21.7331 Cl      1  UNL1       -0.0814
     16 C         -11.1871  -16.9688   21.1609 C.ar    1  UNL1        0.0679
     17 CL        -11.8316  -16.1202   20.1051 Cl      1  UNL1       -0.0814
     18 C          -9.7099  -16.8719   21.4026 C.ar    1  UNL1        0.0083
     19 C          -5.0302  -15.4433   24.8102 C.3     1  UNL1        0.0172
     20 N          -6.6265  -14.7721   26.7469 N.3     1  UNL1       -0.3211
     21 C          -5.3945  -15.4789   26.2648 C.3     1  UNL1        0.0651
     22 H          -6.7195  -14.8999   27.7546 H       1  UNL1        0.1189
     23 H          -7.4458  -15.1587   26.2782 H       1  UNL1        0.1189
@<TRIPOS>BOND
     1    20    21    1
     2    21    19    1
     3     1    19    1
     4     1     2    1
     5     2     3    1
     6     3     4   ar
     7     4     5   ar
     8     5     6   ar
     9     6     7   ar
    10     7     8   ar
    11     8     9    1
    12     9    11    1
    13    11    12   ar
    14    12    13   ar
    15    13    14   ar
    16    14    15    1
    17    14    16   ar
    18    16    17    1
    19    16    18   ar
    20     9    10    1
    21    10     1    1
    22     8     3   ar
    23    18    11   ar
    24    20    22    1
    25    20    23    1
@<TRIPOS>MOLECULE
*****
 23 25 0 0 0
SMALL
GASTEIGER

@<TRIPOS>ATOM
      1 C          -7.9310  -19.0732   20.7270 C.3     1  UNL1        0.0064
      2 C          -9.2925  -18.8227   20.1497 C.3     1  UNL1        0.0261
      3 C         -10.2594  -17.9295   20.8690 C.ar    1  UNL1       -0.0258
      4 C         -11.6210  -17.6790   20.2917 C.ar    1  UNL1       -0.0046
      5 C         -12.5878  -16.7858   21.0110 C.ar    1  UNL1       -0.0003
      6 C         -12.1931  -16.1431   22.3075 C.ar    1  UNL1       -0.0003
      7 C         -10.8315  -16.3936   22.8849 C.ar    1  UNL1       -0.0043
      8 C          -9.8647  -17.2868   22.1656 C.ar    1  UNL1       -0.0224
      9 C          -8.5030  -17.5374   22.7429 C.3     1  UNL1        0.0443
     10 C          -7.5362  -18.4306   22.0236 C.3     1  UNL1        0.0091
     11 C          -8.1083  -16.8947   24.0395 C.ar    1  UNL1       -0.0175
     12 C          -8.9934  -17.0289   25.2431 C.ar    1  UNL1       -0.0030
     13 C          -8.5987  -16.3863   26.5397 C.ar    1  UNL1        0.0119
     14 C          -7.3188  -15.6094   26.6326 C.ar    1  UNL1        0.0682
     15 CL         -6.9241  -14.9667   27.9292 Cl      1  UNL1       -0.0814
     16 C          -6.4338  -15.4752   25.4291 C.ar    1  UNL1        0.0679
     17 CL         -5.1539  -14.6984   25.5220 Cl      1  UNL1       -0.0814
     18 C          -6.8285  -16.1179   24.1325 C.ar    1  UNL1        0.0083
     19 C          -6.9641  -19.9665   20.0077 C.3     1  UNL1        0.0172
     20 N          -4.8137  -18.5963   19.5093 N.3     1  UNL1       -0.3211
     21 C          -5.4875  -19.7606   20.1729 C.3     1  UNL1        0.0651
     22 H          -3.8173  -18.6110   19.7268 H       1  UNL1        0.1189
     23 H          -5.2235  -17.7268   19.8505 H       1  UNL1        0.1189
@<TRIPOS>BOND
     1    20    21    1
     2    21    19    1
     3     1    19    1
     4     1     2    1
     5     2     3    1
     6     3     4   ar
     7     4     5   ar
     8     5     6   ar
     9     6     7   ar
    10     7     8   ar
    11     8     9    1
    12     9    11    1
    13    11    12   ar
    14    12    13   ar
    15    13    14   ar
    16    14    15    1
    17    14    16   ar
    18    16    17    1
    19    16    18   ar
    20     9    10    1
    21    10     1    1
    22     8     3   ar
    23    18    11   ar
    24    20    22    1
    25    20    23    1
@<TRIPOS>MOLECULE
*****
 23 25 0 0 0
SMALL
GASTEIGER

@<TRIPOS>ATOM
      1 C          -8.6849  -16.1658   24.5669 C.3     1  UNL1        0.0064
      2 C         -10.0808  -16.1121   24.0207 C.3     1  UNL1        0.0261
      3 C         -10.4304  -16.8778   22.7790 C.ar    1  UNL1       -0.0258
      4 C         -11.8263  -16.8241   22.2328 C.ar    1  UNL1       -0.0046
      5 C         -12.1758  -17.5897   20.9912 C.ar    1  UNL1       -0.0003
      6 C         -11.1293  -18.4090   20.2958 C.ar    1  UNL1       -0.0003
      7 C          -9.7333  -18.4627   20.8420 C.ar    1  UNL1       -0.0043
      8 C          -9.3839  -17.6971   22.0836 C.ar    1  UNL1       -0.0224
      9 C          -7.9879  -17.7508   22.6299 C.3     1  UNL1        0.0443
     10 C          -7.6384  -16.9852   23.8715 C.3     1  UNL1        0.0091
     11 C          -6.9414  -18.5701   21.9345 C.ar    1  UNL1       -0.0175
     12 C          -7.3381  -19.5353   20.8569 C.ar    1  UNL1       -0.0030
     13 C          -6.2916  -20.3546   20.1615 C.ar    1  UNL1        0.0119
     14 C          -4.8484  -20.2087   20.5437 C.ar    1  UNL1        0.0682
     15 CL         -3.8019  -21.0281   19.8483 Cl      1  UNL1       -0.0814
     16 C          -4.4518  -19.2436   21.6212 C.ar    1  UNL1        0.0679
     17 CL         -3.0086  -19.0977   22.0033 Cl      1  UNL1       -0.0814
     18 C          -5.4982  -18.4242   22.3166 C.ar    1  UNL1        0.0083
     19 C          -8.3353  -15.4002   25.8086 C.3     1  UNL1        0.0172
     20 N          -5.8743  -14.5857   25.9809 N.3     1  UNL1       -0.3211
     21 C          -6.9647  -15.5242   26.4053 C.3     1  UNL1        0.0651
     22 H          -5.0161  -14.8121   26.4835 H       1  UNL1        0.1189
     23 H          -6.1496  -13.6267   26.1929 H       1  UNL1        0.1189
@<TRIPOS>BOND
     1    20    21    1
     2    21    19    1
     3     1    19    1
     4     1     2    1
     5     2     3    1
     6     3     4   ar
     7     4     5   ar
     8     5     6   ar
     9     6     7   ar
    10     7     8   ar
    11     8     9    1
    12     9    11    1
    13    11    12   ar
    14    12    13   ar
    15    13    14   ar
    16    14    15    1
    17    14    16   ar
    18    16    17    1
    19    16    18   ar
    20     9    10    1
    21    10     1    1
    22     8     3   ar
    23    18    11   ar
    24    20    22    1
    25    20    23    1
@<TRIPOS>MOLECULE
*****
 23 25 0 0 0
SMALL
GASTEIGER

@<TRIPOS>ATOM
      1 C          -8.9738  -17.0074   23.5031 C.3     1  UNL1        0.0064
      2 C         -10.0884  -17.4231   22.5895 C.3     1  UNL1        0.0261
      3 C          -9.7964  -18.2744   21.3894 C.ar    1  UNL1       -0.0258
      4 C         -10.9110  -18.6902   20.4757 C.ar    1  UNL1       -0.0046
      5 C         -10.6191  -19.5414   19.2757 C.ar    1  UNL1       -0.0003
      6 C          -9.2126  -19.9769   18.9893 C.ar    1  UNL1       -0.0003
      7 C          -8.0980  -19.5611   19.9029 C.ar    1  UNL1       -0.0043
      8 C          -8.3899  -18.7099   21.1030 C.ar    1  UNL1       -0.0224
      9 C          -7.2753  -18.2941   22.0167 C.3     1  UNL1        0.0443
     10 C          -7.5672  -17.4429   23.2167 C.3     1  UNL1        0.0091
     11 C          -5.8688  -18.7296   21.7303 C.ar    1  UNL1       -0.0175
     12 C          -5.6005  -19.7378   20.6524 C.ar    1  UNL1       -0.0030
     13 C          -4.1940  -20.1732   20.3660 C.ar    1  UNL1        0.0119
     14 C          -3.0557  -19.6005   21.1575 C.ar    1  UNL1        0.0682
     15 CL         -1.6492  -20.0360   20.8711 Cl      1  UNL1       -0.0814
     16 C          -3.3239  -18.5924   22.2353 C.ar    1  UNL1        0.0679
     17 CL         -2.1856  -18.0197   23.0268 Cl      1  UNL1       -0.0814
     18 C          -4.7305  -18.1569   22.5217 C.ar    1  UNL1        0.0083
     19 C          -9.2657  -16.1561   24.7032 C.3     1  UNL1        0.0172
     20 N          -7.5950  -14.2107   24.2865 N.3     1  UNL1       -0.3211
     21 C          -8.2279  -15.2026   25.2168 C.3     1  UNL1        0.0651
     22 H          -6.9175  -13.6471   24.8002 H       1  UNL1        0.1189
     23 H          -8.3154  -13.6036   23.8955 H       1  UNL1        0.1189
@<TRIPOS>BOND
     1    20    21    1
     2    21    19    1
     3     1    19    1
     4     1     2    1
     5     2     3    1
     6     3     4   ar
     7     4     5   ar
     8     5     6   ar
     9     6     7   ar
    10     7     8   ar
    11     8     9    1
    12     9    11    1
    13    11    12   ar
    14    12    13   ar
    15    13    14   ar
    16    14    15    1
    17    14    16   ar
    18    16    17    1
    19    16    18   ar
    20     9    10    1
    21    10     1    1
    22     8     3   ar
    23    18    11   ar
    24    20    22    1
    25    20    23    1
@<TRIPOS>MOLECULE
*****
 23 25 0 0 0
SMALL
GASTEIGER

@<TRIPOS>ATOM
      1 C         -11.2119   -5.8972   18.9498 C.3     1  UNL1        0.0064
      2 C         -11.5696   -4.4752   19.2657 C.3     1  UNL1        0.0261
      3 C         -13.0068   -4.0863   19.4489 C.ar    1  UNL1       -0.0258
      4 C         -13.3645   -2.6643   19.7648 C.ar    1  UNL1       -0.0046
      5 C         -14.8016   -2.2755   19.9480 C.ar    1  UNL1       -0.0003
      6 C         -15.8809   -3.3087   19.8154 C.ar    1  UNL1       -0.0003
      7 C         -15.5231   -4.7307   19.4995 C.ar    1  UNL1       -0.0043
      8 C         -14.0861   -5.1195   19.3162 C.ar    1  UNL1       -0.0224
      9 C         -13.7282   -6.5416   19.0003 C.3     1  UNL1        0.0443
     10 C         -12.2912   -6.9304   18.8171 C.3     1  UNL1        0.0091
     11 C         -14.8075   -7.5748   18.8677 C.ar    1  UNL1       -0.0175
     12 C         -14.6104   -8.7530   17.9604 C.ar    1  UNL1       -0.0030
     13 C         -15.6897   -9.7862   17.8278 C.ar    1  UNL1        0.0119
     14 C         -16.9661   -9.6412   18.6023 C.ar    1  UNL1        0.0682
     15 CL        -18.0454  -10.6744   18.4696 Cl      1  UNL1       -0.0814
     16 C         -17.1632   -8.4630   19.5095 C.ar    1  UNL1        0.0679
     17 CL        -18.4396   -8.3179   20.2840 Cl      1  UNL1       -0.0814
     18 C         -16.0839   -7.4298   19.6421 C.ar    1  UNL1        0.0083
     19 C          -9.7747   -6.2861   18.7665 C.3     1  UNL1        0.0172
     20 N          -9.7159   -8.7355   17.9027 N.3     1  UNL1       -0.3211
     21 C          -9.3564   -7.7157   18.9423 C.3     1  UNL1        0.0651
     22 H          -9.3546   -9.6476   18.1820 H       1  UNL1        0.1189
     23 H          -9.3070   -8.4674   17.0076 H       1  UNL1        0.1189
@<TRIPOS>BOND
     1    20    21    1
     2    21    19    1
     3     1    19    1
     4     1     2    1
     5     2     3    1
     6     3     4   ar
     7     4     5   ar
     8     5     6   ar
     9     6     7   ar
    10     7     8   ar
    11     8     9    1
    12     9    11    1
    13    11    12   ar
    14    12    13   ar
    15    13    14   ar
    16    14    15    1
    17    14    16   ar
    18    16    17    1
    19    16    18   ar
    20     9    10    1
    21    10     1    1
    22     8     3   ar
    23    18    11   ar
    24    20    22    1
    25    20    23    1
@<TRIPOS>MOLECULE
*****
 23 25 0 0 0
SMALL
GASTEIGER

@<TRIPOS>ATOM
      1 C         -13.7460   -3.2236   19.3150 C.3     1  UNL1        0.0064
      2 C         -12.2478   -3.2830   19.2724 C.3     1  UNL1        0.0261
      3 C         -11.5544   -4.6009   19.0920 C.ar    1  UNL1       -0.0258
      4 C         -10.0562   -4.6604   19.0494 C.ar    1  UNL1       -0.0046
      5 C          -9.3628   -5.9782   18.8691 C.ar    1  UNL1       -0.0003
      6 C         -10.1676   -7.2365   18.7313 C.ar    1  UNL1       -0.0003
      7 C         -11.6658   -7.1770   18.7740 C.ar    1  UNL1       -0.0043
      8 C         -12.3592   -5.8592   18.9543 C.ar    1  UNL1       -0.0224
      9 C         -13.8574   -5.7997   18.9969 C.3     1  UNL1        0.0443
     10 C         -14.5508   -4.4819   19.1773 C.3     1  UNL1        0.0091
     11 C         -14.6622   -7.0580   18.8592 C.ar    1  UNL1       -0.0175
     12 C         -14.1794   -8.1632   17.9674 C.ar    1  UNL1       -0.0030
     13 C         -14.9841   -9.4216   17.8296 C.ar    1  UNL1        0.0119
     14 C         -16.2718   -9.5746   18.5837 C.ar    1  UNL1        0.0682
     15 CL        -17.0766  -10.8329   18.4460 Cl      1  UNL1       -0.0814
     16 C         -16.7546   -8.4693   19.4755 C.ar    1  UNL1        0.0679
     17 CL        -18.0423   -8.6224   20.2296 Cl      1  UNL1       -0.0814
     18 C         -15.9498   -7.2110   19.6132 C.ar    1  UNL1        0.0083
     19 C         -14.4395   -1.9057   19.4954 C.3     1  UNL1        0.0172
     20 N         -16.6493   -0.8241   20.3299 N.3     1  UNL1       -0.3211
     21 C         -15.9380   -1.8391   19.4852 C.3     1  UNL1        0.0651
     22 H         -17.6566   -0.9204   20.2011 H       1  UNL1        0.1189
     23 H         -16.3591    0.1133   20.0516 H       1  UNL1        0.1189
@<TRIPOS>BOND
     1    20    21    1
     2    21    19    1
     3     1    19    1
     4     1     2    1
     5     2     3    1
     6     3     4   ar
     7     4     5   ar
     8     5     6   ar
     9     6     7   ar
    10     7     8   ar
    11     8     9    1
    12     9    11    1
    13    11    12   ar
    14    12    13   ar
    15    13    14   ar
    16    14    15    1
    17    14    16   ar
    18    16    17    1
    19    16    18   ar
    20     9    10    1
    21    10     1    1
    22     8     3   ar
    23    18    11   ar
    24    20    22    1
    25    20    23    1
@<TRIPOS>MOLECULE
*****
 23 25 0 0 0
SMALL
GASTEIGER

@<TRIPOS>ATOM
      1 C          -4.9519  -16.4452   23.9144 C.3     1  UNL1        0.0064
      2 C          -3.6903  -17.0621   23.3875 C.3     1  UNL1        0.0261
      3 C          -3.7621  -18.2042   22.4177 C.ar    1  UNL1       -0.0258
      4 C          -2.5005  -18.8211   21.8907 C.ar    1  UNL1       -0.0046
      5 C          -2.5723  -19.9632   20.9210 C.ar    1  UNL1       -0.0003
      6 C          -3.9058  -20.4883   20.4781 C.ar    1  UNL1       -0.0003
      7 C          -5.1674  -19.8714   21.0051 C.ar    1  UNL1       -0.0043
      8 C          -5.0955  -18.7294   21.9748 C.ar    1  UNL1       -0.0224
      9 C          -6.3572  -18.1124   22.5018 C.3     1  UNL1        0.0443
     10 C          -6.2853  -16.9703   23.4716 C.3     1  UNL1        0.0091
     11 C          -7.6907  -18.6375   22.0590 C.ar    1  UNL1       -0.0175
     12 C          -8.0456  -18.6496   20.6016 C.ar    1  UNL1       -0.0030
     13 C          -9.3791  -19.1747   20.1588 C.ar    1  UNL1        0.0119
     14 C         -10.3576  -19.6878   21.1734 C.ar    1  UNL1        0.0682
     15 CL        -11.6911  -20.2129   20.7306 Cl      1  UNL1       -0.0814
     16 C         -10.0026  -19.6757   22.6307 C.ar    1  UNL1        0.0679
     17 CL        -10.9812  -20.1888   23.6453 Cl      1  UNL1       -0.0814
     18 C          -8.6692  -19.1506   23.0735 C.ar    1  UNL1        0.0083
     19 C          -4.8800  -15.3030   24.8842 C.3     1  UNL1        0.0172
     20 N          -6.8348  -14.8345   26.5301 N.3     1  UNL1       -0.3211
     21 C          -5.4907  -15.4373   26.2477 C.3     1  UNL1        0.0651
     22 H          -7.0941  -15.0204   27.4989 H       1  UNL1        0.1189
     23 H          -7.5298  -15.2462   25.9072 H       1  UNL1        0.1189
@<TRIPOS>BOND
     1    20    21    1
     2    21    19    1
     3     1    19    1
     4     1     2    1
     5     2     3    1
     6     3     4   ar
     7     4     5   ar
     8     5     6   ar
     9     6     7   ar
    10     7     8   ar
    11     8     9    1
    12     9    11    1
    13    11    12   ar
    14    12    13   ar
    15    13    14   ar
    16    14    15    1
    17    14    16   ar
    18    16    17    1
    19    16    18   ar
    20     9    10    1
    21    10     1    1
    22     8     3   ar
    23    18    11   ar
    24    20    22    1
    25    20    23    1
@<TRIPOS>MOLECULE
*****
 23 25 0 0 0
SMALL
GASTEIGER

@<TRIPOS>ATOM
      1 C         -14.5218   -7.3804   17.9816 C.3     1  UNL1        0.0064
      2 C         -13.0999   -7.8243   18.1576 C.3     1  UNL1        0.0261
      3 C         -12.0354   -6.8193   18.4846 C.ar    1  UNL1       -0.0258
      4 C         -10.6135   -7.2632   18.6606 C.ar    1  UNL1       -0.0046
      5 C          -9.5491   -6.2582   18.9876 C.ar    1  UNL1       -0.0003
      6 C          -9.9066   -4.8093   19.1387 C.ar    1  UNL1       -0.0003
      7 C         -11.3286   -4.3654   18.9627 C.ar    1  UNL1       -0.0043
      8 C         -12.3930   -5.3704   18.6357 C.ar    1  UNL1       -0.0224
      9 C         -13.8150   -4.9265   18.4597 C.3     1  UNL1        0.0443
     10 C         -14.8794   -5.9315   18.1327 C.3     1  UNL1        0.0091
     11 C         -14.1725   -3.4776   18.6107 C.ar    1  UNL1       -0.0175
     12 C         -14.7477   -2.9777   19.9028 C.ar    1  UNL1       -0.0030
     13 C         -15.1053   -1.5288   20.0538 C.ar    1  UNL1        0.0119
     14 C         -14.8876   -0.5797   18.9128 C.ar    1  UNL1        0.0682
     15 CL        -15.2451    0.8692   19.0638 Cl      1  UNL1       -0.0814
     16 C         -14.3124   -1.0796   17.6208 C.ar    1  UNL1        0.0679
     17 CL        -14.0947   -0.1305   16.4797 Cl      1  UNL1       -0.0814
     18 C         -13.9548   -2.5285   17.4697 C.ar    1  UNL1        0.0083
     19 C         -15.5863   -8.3854   17.6546 C.3     1  UNL1        0.0172
     20 N         -15.8824   -9.2168   20.0981 N.3     1  UNL1       -0.3211
     21 C         -15.9005   -9.4871   18.6228 C.3     1  UNL1        0.0651
     22 H         -16.1175  -10.0712   20.6032 H       1  UNL1        0.1189
     23 H         -16.5652   -8.4921   20.3194 H       1  UNL1        0.1189
@<TRIPOS>BOND
     1    20    21    1
     2    21    19    1
     3     1    19    1
     4     1     2    1
     5     2     3    1
     6     3     4   ar
     7     4     5   ar
     8     5     6   ar
     9     6     7   ar
    10     7     8   ar
    11     8     9    1
    12     9    11    1
    13    11    12   ar
    14    12    13   ar
    15    13    14   ar
    16    14    15    1
    17    14    16   ar
    18    16    17    1
    19    16    18   ar
    20     9    10    1
    21    10     1    1
    22     8     3   ar
    23    18    11   ar
    24    20    22    1
    25    20    23    1
@<TRIPOS>MOLECULE
*****
 23 25 0 0 0
SMALL
GASTEIGER

@<TRIPOS>ATOM
      1 C          -9.1573  -17.8089   23.1840 C.3     1  UNL1        0.0064
      2 C         -10.1507  -18.2850   22.1659 C.3     1  UNL1        0.0261
      3 C          -9.6757  -18.9541   20.9102 C.ar    1  UNL1       -0.0258
      4 C         -10.6691  -19.4301   19.8921 C.ar    1  UNL1       -0.0046
      5 C         -10.1941  -20.0991   18.6365 C.ar    1  UNL1       -0.0003
      6 C          -8.7256  -20.2921   18.3989 C.ar    1  UNL1       -0.0003
      7 C          -7.7322  -19.8160   19.4169 C.ar    1  UNL1       -0.0043
      8 C          -8.2072  -19.1470   20.6726 C.ar    1  UNL1       -0.0224
      9 C          -7.2138  -18.6709   21.6907 C.3     1  UNL1        0.0443
     10 C          -7.6889  -18.0019   22.9463 C.3     1  UNL1        0.0091
     11 C          -5.7454  -18.8638   21.4531 C.ar    1  UNL1       -0.0175
     12 C          -4.8558  -19.3079   22.5763 C.ar    1  UNL1       -0.0030
     13 C          -3.3874  -19.5008   22.3387 C.ar    1  UNL1        0.0119
     14 C          -2.8085  -19.2496   20.9778 C.ar    1  UNL1        0.0682
     15 CL         -1.3401  -19.4426   20.7402 Cl      1  UNL1       -0.0814
     16 C          -3.6980  -18.8056   19.8547 C.ar    1  UNL1        0.0679
     17 CL         -3.1191  -18.5544   18.4938 Cl      1  UNL1       -0.0814
     18 C          -5.1665  -18.6127   20.0923 C.ar    1  UNL1        0.0083
     19 C          -9.6323  -17.1399   24.4397 C.3     1  UNL1        0.0172
     20 N          -9.9710  -19.4375   25.6041 N.3     1  UNL1       -0.3211
     21 C          -9.8357  -17.9460   25.6882 C.3     1  UNL1        0.0651
     22 H         -10.1022  -19.8203   26.5404 H       1  UNL1        0.1189
     23 H          -9.1265  -19.8327   25.1904 H       1  UNL1        0.1189
@<TRIPOS>BOND
     1    20    21    1
     2    21    19    1
     3     1    19    1
     4     1     2    1
     5     2     3    1
     6     3     4   ar
     7     4     5   ar
     8     5     6   ar
     9     6     7   ar
    10     7     8   ar
    11     8     9    1
    12     9    11    1
    13    11    12   ar
    14    12    13   ar
    15    13    14   ar
    16    14    15    1
    17    14    16   ar
    18    16    17    1
    19    16    18   ar
    20     9    10    1
    21    10     1    1
    22     8     3   ar
    23    18    11   ar
    24    20    22    1
    25    20    23    1
