@<TRIPOS>MOLECULE
*****
 32 36 0 0 0
SMALL
GASTEIGER

@<TRIPOS>ATOM
      1 O          -7.2888  -17.4201   21.2028 O.3     1  UNL1       -0.4723
      2 C          -7.8406  -16.1522   23.4904 C.3     1  UNL1        0.1471
      3 O          -6.8763  -15.6188   22.4728 O.3     1  UNL1       -0.3812
      4 C          -8.7304  -16.4255   24.6667 C.3     1  UNL1        0.0584
      5 C          -9.4351  -17.7269   24.4223 C.ar    1  UNL1       -0.0202
      6 C         -10.4317  -18.4970   25.2368 C.ar    1  UNL1       -0.0044
      7 C         -10.9742  -19.7982   24.7241 C.ar    1  UNL1       -0.0003
      8 C         -10.5199  -20.3291   23.3968 C.ar    1  UNL1       -0.0002
      9 C          -9.5233  -19.5590   22.5822 C.ar    1  UNL1       -0.0011
     10 C          -8.9809  -18.2579   23.0949 C.ar    1  UNL1        0.0157
     11 C          -7.9954  -17.2847   22.5190 C.3     1  UNL1        0.2136
     12 H          -6.5118  -14.7754   22.7837 H       1  UNL1        0.2105
     13 C          -7.4842  -14.9082   24.2490 C.3     1  UNL1        0.1001
     14 C          -5.4962  -15.1411   25.9054 C.3     1  UNL1        0.0859
     15 N          -6.0543  -14.6331   24.6091 N.3     1  UNL1       -0.2942
     16 H          -5.4814  -15.0321   23.8654 H       1  UNL1        0.1234
     17 C          -7.1004  -18.7756   20.5887 C.ar    1  UNL1        0.1389
     18 C          -8.2217  -19.4154   19.8250 C.ar    1  UNL1        0.0369
     19 C          -8.0332  -20.7710   19.2109 C.ar    1  UNL1        0.0031
     20 C          -6.7235  -21.4866   19.3606 C.ar    1  UNL1        0.0002
     21 C          -5.6022  -20.8468   20.1243 C.ar    1  UNL1        0.0030
     22 C          -5.7906  -19.4913   20.7384 C.ar    1  UNL1        0.0340
     23 C          -4.6693  -18.8515   21.5021 C.ar    1  UNL1        0.0029
     24 C          -4.8005  -18.6263   22.9792 C.ar    1  UNL1        0.0001
     25 C          -3.6792  -17.9865   23.7429 C.ar    1  UNL1        0.0000
     26 C          -2.4266  -17.5718   23.0295 C.ar    1  UNL1        0.0000
     27 C          -2.2954  -17.7969   21.5523 C.ar    1  UNL1        0.0000
     28 C          -1.0428  -17.3821   20.8388 C.ar    1  UNL1        0.0000
     29 C          -0.9116  -17.6073   19.3616 C.ar    1  UNL1        0.0000
     30 C          -2.0329  -18.2471   18.5979 C.ar    1  UNL1        0.0000
     31 C          -3.2854  -18.6618   19.3114 C.ar    1  UNL1        0.0000
     32 C          -3.4167  -18.4367   20.7885 C.ar    1  UNL1        0.0001
@<TRIPOS>BOND
     1    14    15    1
     2    15    13    1
     3    13     2    1
     4     2     3    1
     5     2     4    1
     6     4     5    1
     7     5     6   ar
     8     6     7   ar
     9     7     8   ar
    10     8     9   ar
    11     9    10   ar
    12    10    11    1
    13    11     1    1
    14     1    17    1
    15    17    18   ar
    16    18    19   ar
    17    19    20   ar
    18    20    21   ar
    19    21    22   ar
    20    22    23    1
    21    23    24   ar
    22    24    25   ar
    23    25    26   ar
    24    26    27   ar
    25    27    28   ar
    26    28    29   ar
    27    29    30   ar
    28    30    31   ar
    29    31    32   ar
    30    11     2    1
    31    22    17   ar
    32    32    23   ar
    33    10     5   ar
    34    32    27   ar
    35    15    16    1
    36     3    12    1
@<TRIPOS>MOLECULE
*****
 32 36 0 0 0
SMALL
GASTEIGER

@<TRIPOS>ATOM
      1 O          -6.8501  -16.5886   22.0662 O.3     1  UNL1       -0.4723
      2 C          -9.2316  -16.2107   23.2199 C.3     1  UNL1        0.1471
      3 O          -9.0728  -16.5677   21.7717 O.3     1  UNL1       -0.3812
      4 C          -9.6967  -15.8571   24.6014 C.3     1  UNL1        0.0584
      5 C          -8.4854  -15.6968   25.4716 C.ar    1  UNL1       -0.0202
      6 C          -8.3308  -15.3520   26.9231 C.ar    1  UNL1       -0.0044
      7 C          -6.9624  -15.2617   27.5310 C.ar    1  UNL1       -0.0003
      8 C          -5.7486  -15.5162   26.6872 C.ar    1  UNL1       -0.0002
      9 C          -5.9032  -15.8610   25.2355 C.ar    1  UNL1       -0.0011
     10 C          -7.2715  -15.9513   24.6277 C.ar    1  UNL1        0.0157
     11 C          -7.7327  -16.2689   23.2361 C.3     1  UNL1        0.2136
     12 H          -9.9472  -16.6318   21.3568 H       1  UNL1        0.2105
     13 C         -10.6971  -16.2271   22.9009 C.3     1  UNL1        0.1001
     14 C         -12.4016  -16.5104   20.9607 C.3     1  UNL1        0.0859
     15 N         -11.1689  -15.8671   21.5233 N.3     1  UNL1       -0.2942
     16 H         -11.3354  -14.8608   21.5226 H       1  UNL1        0.1234
     17 C          -5.8679  -17.7188   22.1545 C.ar    1  UNL1        0.1389
     18 C          -4.5060  -17.4850   22.7383 C.ar    1  UNL1        0.0369
     19 C          -3.5238  -18.6153   22.8267 C.ar    1  UNL1        0.0031
     20 C          -3.9033  -19.9792   22.3312 C.ar    1  UNL1        0.0002
     21 C          -5.2652  -20.2130   21.7473 C.ar    1  UNL1        0.0030
     22 C          -6.2474  -19.0828   21.6590 C.ar    1  UNL1        0.0340
     23 C          -7.6092  -19.3166   21.0752 C.ar    1  UNL1        0.0029
     24 C          -7.8028  -19.2871   19.5881 C.ar    1  UNL1        0.0001
     25 C          -9.1646  -19.5208   19.0042 C.ar    1  UNL1        0.0000
     26 C         -10.3328  -19.7841   19.9076 C.ar    1  UNL1        0.0000
     27 C         -10.1392  -19.8136   21.3948 C.ar    1  UNL1        0.0000
     28 C         -11.3074  -20.0769   22.2981 C.ar    1  UNL1        0.0000
     29 C         -11.1138  -20.1063   23.7852 C.ar    1  UNL1        0.0000
     30 C          -9.7520  -19.8726   24.3690 C.ar    1  UNL1        0.0000
     31 C          -8.5838  -19.6093   23.4657 C.ar    1  UNL1        0.0000
     32 C          -8.7774  -19.5798   21.9786 C.ar    1  UNL1        0.0001
@<TRIPOS>BOND
     1    14    15    1
     2    15    13    1
     3    13     2    1
     4     2     3    1
     5     2     4    1
     6     4     5    1
     7     5     6   ar
     8     6     7   ar
     9     7     8   ar
    10     8     9   ar
    11     9    10   ar
    12    10    11    1
    13    11     1    1
    14     1    17    1
    15    17    18   ar
    16    18    19   ar
    17    19    20   ar
    18    20    21   ar
    19    21    22   ar
    20    22    23    1
    21    23    24   ar
    22    24    25   ar
    23    25    26   ar
    24    26    27   ar
    25    27    28   ar
    26    28    29   ar
    27    29    30   ar
    28    30    31   ar
    29    31    32   ar
    30    11     2    1
    31    22    17   ar
    32    32    23   ar
    33    10     5   ar
    34    32    27   ar
    35    15    16    1
    36     3    12    1
@<TRIPOS>MOLECULE
*****
 32 36 0 0 0
SMALL
GASTEIGER

@<TRIPOS>ATOM
      1 O          -7.4977  -16.4760   22.7061 O.3     1  UNL1       -0.4723
      2 C          -7.0986  -18.6273   21.1706 C.3     1  UNL1        0.1471
      3 O          -8.4130  -17.9082   21.2438 O.3     1  UNL1       -0.3812
      4 C          -5.9349  -19.5328   20.8953 C.3     1  UNL1        0.0584
      5 C          -4.7697  -19.0501   21.7073 C.ar    1  UNL1       -0.0202
      6 C          -3.3622  -19.5512   21.8394 C.ar    1  UNL1       -0.0044
      7 C          -2.3981  -18.8485   22.7488 C.ar    1  UNL1       -0.0003
      8 C          -2.8417  -17.6447   23.5259 C.ar    1  UNL1       -0.0002
      9 C          -4.2493  -17.1435   23.3938 C.ar    1  UNL1       -0.0011
     10 C          -5.2133  -17.8462   22.4845 C.ar    1  UNL1        0.0157
     11 C          -6.6527  -17.5849   22.1528 C.3     1  UNL1        0.2136
     12 H          -9.0540  -18.3461   20.6621 H       1  UNL1        0.2105
     13 C          -7.8194  -19.5192   20.2037 C.3     1  UNL1        0.1001
     14 C         -10.1701  -19.7994   19.1335 C.3     1  UNL1        0.0859
     15 N          -8.9418  -18.9723   19.3724 N.3     1  UNL1       -0.2942
     16 H          -9.2499  -18.1111   19.8237 H       1  UNL1        0.1234
     17 C          -7.6903  -16.3478   24.1882 C.ar    1  UNL1        0.1389
     18 C          -6.8612  -15.3730   24.9707 C.ar    1  UNL1        0.0369
     19 C          -7.0539  -15.2448   26.4528 C.ar    1  UNL1        0.0031
     20 C          -8.0756  -16.0915   27.1523 C.ar    1  UNL1        0.0002
     21 C          -8.9046  -17.0663   26.3698 C.ar    1  UNL1        0.0030
     22 C          -8.7120  -17.1945   24.8877 C.ar    1  UNL1        0.0340
     23 C          -9.5411  -18.1693   24.1052 C.ar    1  UNL1        0.0029
     24 C          -9.2207  -19.6339   24.1526 C.ar    1  UNL1        0.0001
     25 C         -10.0498  -20.6088   23.3701 C.ar    1  UNL1        0.0000
     26 C         -11.1992  -20.1190   22.5401 C.ar    1  UNL1        0.0000
     27 C         -11.5196  -18.6543   22.4926 C.ar    1  UNL1        0.0000
     28 C         -12.6690  -18.1646   21.6626 C.ar    1  UNL1        0.0000
     29 C         -12.9894  -16.7000   21.6152 C.ar    1  UNL1        0.0000
     30 C         -12.1603  -15.7251   22.3977 C.ar    1  UNL1        0.0000
     31 C         -11.0109  -16.2149   23.2277 C.ar    1  UNL1        0.0000
     32 C         -10.6905  -17.6795   23.2752 C.ar    1  UNL1        0.0001
@<TRIPOS>BOND
     1    14    15    1
     2    15    13    1
     3    13     2    1
     4     2     3    1
     5     2     4    1
     6     4     5    1
     7     5     6   ar
     8     6     7   ar
     9     7     8   ar
    10     8     9   ar
    11     9    10   ar
    12    10    11    1
    13    11     1    1
    14     1    17    1
    15    17    18   ar
    16    18    19   ar
    17    19    20   ar
    18    20    21   ar
    19    21    22   ar
    20    22    23    1
    21    23    24   ar
    22    24    25   ar
    23    25    26   ar
    24    26    27   ar
    25    27    28   ar
    26    28    29   ar
    27    29    30   ar
    28    30    31   ar
    29    31    32   ar
    30    11     2    1
    31    22    17   ar
    32    32    23   ar
    33    10     5   ar
    34    32    27   ar
    35    15    16    1
    36     3    12    1
@<TRIPOS>MOLECULE
*****
 32 36 0 0 0
SMALL
GASTEIGER

@<TRIPOS>ATOM
      1 O          -7.0440  -16.7426   22.1324 O.3     1  UNL1       -0.4723
      2 C          -9.6083  -16.1537   21.6604 C.3     1  UNL1        0.1471
      3 O          -8.4739  -15.2787   21.2159 O.3     1  UNL1       -0.3812
      4 C         -10.9214  -16.8094   21.9695 C.3     1  UNL1        0.0584
      5 C         -10.6407  -18.0803   22.7153 C.ar    1  UNL1       -0.0202
      6 C         -11.5467  -19.1362   23.2758 C.ar    1  UNL1       -0.0044
      7 C         -10.9661  -20.3218   23.9881 C.ar    1  UNL1       -0.0003
      8 C          -9.4794  -20.4514   24.1398 C.ar    1  UNL1       -0.0002
      9 C          -8.5733  -19.3955   23.5794 C.ar    1  UNL1       -0.0011
     10 C          -9.1540  -18.2099   22.8671 C.ar    1  UNL1        0.0157
     11 C          -8.5159  -17.0192   22.2151 C.3     1  UNL1        0.2136
     12 H          -8.8263  -14.5034   20.7515 H       1  UNL1        0.2105
     13 C         -10.4634  -15.1052   21.0127 C.3     1  UNL1        0.1001
     14 C         -11.9475  -15.6287   18.9456 C.3     1  UNL1        0.0859
     15 N         -10.6638  -15.1140   19.5262 N.3     1  UNL1       -0.2942
     16 H         -10.5634  -14.1495   19.2099 H       1  UNL1        0.1234
     17 C          -6.2426  -16.5649   23.3878 C.ar    1  UNL1        0.1389
     18 C          -6.7218  -15.6286   24.4573 C.ar    1  UNL1        0.0369
     19 C          -5.9203  -15.4510   25.7128 C.ar    1  UNL1        0.0031
     20 C          -4.6397  -16.2095   25.8987 C.ar    1  UNL1        0.0002
     21 C          -4.1605  -17.1457   24.8292 C.ar    1  UNL1        0.0030
     22 C          -4.9619  -17.3234   23.5738 C.ar    1  UNL1        0.0340
     23 C          -4.4827  -18.2596   22.5043 C.ar    1  UNL1        0.0029
     24 C          -5.2401  -19.5223   22.2183 C.ar    1  UNL1        0.0001
     25 C          -4.7609  -20.4585   21.1488 C.ar    1  UNL1        0.0000
     26 C          -3.5242  -20.1321   20.3653 C.ar    1  UNL1        0.0000
     27 C          -2.7667  -18.8693   20.6512 C.ar    1  UNL1        0.0000
     28 C          -1.5300  -18.5429   19.8677 C.ar    1  UNL1        0.0000
     29 C          -0.7725  -17.2802   20.1536 C.ar    1  UNL1        0.0000
     30 C          -1.2518  -16.3440   21.2231 C.ar    1  UNL1        0.0000
     31 C          -2.4884  -16.6704   22.0067 C.ar    1  UNL1        0.0000
     32 C          -3.2459  -17.9331   21.7207 C.ar    1  UNL1        0.0001
@<TRIPOS>BOND
     1    14    15    1
     2    15    13    1
     3    13     2    1
     4     2     3    1
     5     2     4    1
     6     4     5    1
     7     5     6   ar
     8     6     7   ar
     9     7     8   ar
    10     8     9   ar
    11     9    10   ar
    12    10    11    1
    13    11     1    1
    14     1    17    1
    15    17    18   ar
    16    18    19   ar
    17    19    20   ar
    18    20    21   ar
    19    21    22   ar
    20    22    23    1
    21    23    24   ar
    22    24    25   ar
    23    25    26   ar
    24    26    27   ar
    25    27    28   ar
    26    28    29   ar
    27    29    30   ar
    28    30    31   ar
    29    31    32   ar
    30    11     2    1
    31    22    17   ar
    32    32    23   ar
    33    10     5   ar
    34    32    27   ar
    35    15    16    1
    36     3    12    1
@<TRIPOS>MOLECULE
*****
 32 36 0 0 0
SMALL
GASTEIGER

@<TRIPOS>ATOM
      1 O          -7.2896  -16.5270   22.9491 O.3     1  UNL1       -0.4723
      2 C          -4.9520  -17.8221   22.8863 C.3     1  UNL1        0.1471
      3 O          -5.1833  -16.5935   23.7152 O.3     1  UNL1       -0.3812
      4 C          -4.4318  -19.0381   22.1787 C.3     1  UNL1        0.0584
      5 C          -5.5407  -19.5929   21.3344 C.ar    1  UNL1       -0.0202
      6 C          -5.6084  -20.7803   20.4204 C.ar    1  UNL1       -0.0044
      7 C          -6.8816  -21.0947   19.6922 C.ar    1  UNL1       -0.0003
      8 C          -8.0870  -20.2215   19.8781 C.ar    1  UNL1       -0.0002
      9 C          -8.0193  -19.0340   20.7921 C.ar    1  UNL1       -0.0011
     10 C          -6.7462  -18.7197   21.5202 C.ar    1  UNL1        0.0157
     11 C          -6.3824  -17.6253   22.4794 C.3     1  UNL1        0.2136
     12 H          -4.3712  -16.3706   24.1965 H       1  UNL1        0.2105
     13 C          -3.5701  -17.7619   23.4665 C.3     1  UNL1        0.1001
     14 C          -2.2326  -16.1664   21.9125 C.3     1  UNL1        0.0859
     15 N          -2.3926  -17.5030   22.5741 N.3     1  UNL1       -0.2942
     16 H          -1.5565  -17.6542   23.1385 H       1  UNL1        0.1234
     17 C          -7.6447  -16.4176   24.4023 C.ar    1  UNL1        0.1389
     18 C          -6.8928  -15.4696   25.2888 C.ar    1  UNL1        0.0369
     19 C          -7.2479  -15.3602   26.7421 C.ar    1  UNL1        0.0031
     20 C          -8.3549  -16.1988   27.3088 C.ar    1  UNL1        0.0002
     21 C          -9.1069  -17.1468   26.4223 C.ar    1  UNL1        0.0030
     22 C          -8.7517  -17.2562   24.9691 C.ar    1  UNL1        0.0340
     23 C          -9.5036  -18.2042   24.0825 C.ar    1  UNL1        0.0029
     24 C          -9.1988  -19.6723   24.1249 C.ar    1  UNL1        0.0001
     25 C          -9.9507  -20.6203   23.2384 C.ar    1  UNL1        0.0000
     26 C         -11.0075  -20.1003   22.3095 C.ar    1  UNL1        0.0000
     27 C         -11.3124  -18.6321   22.2672 C.ar    1  UNL1        0.0000
     28 C         -12.3691  -18.1121   21.3383 C.ar    1  UNL1        0.0000
     29 C         -12.6740  -16.6440   21.2960 C.ar    1  UNL1        0.0000
     30 C         -11.9221  -15.6960   22.1825 C.ar    1  UNL1        0.0000
     31 C         -10.8653  -16.2161   23.1114 C.ar    1  UNL1        0.0000
     32 C         -10.5605  -17.6841   23.1537 C.ar    1  UNL1        0.0001
@<TRIPOS>BOND
     1    14    15    1
     2    15    13    1
     3    13     2    1
     4     2     3    1
     5     2     4    1
     6     4     5    1
     7     5     6   ar
     8     6     7   ar
     9     7     8   ar
    10     8     9   ar
    11     9    10   ar
    12    10    11    1
    13    11     1    1
    14     1    17    1
    15    17    18   ar
    16    18    19   ar
    17    19    20   ar
    18    20    21   ar
    19    21    22   ar
    20    22    23    1
    21    23    24   ar
    22    24    25   ar
    23    25    26   ar
    24    26    27   ar
    25    27    28   ar
    26    28    29   ar
    27    29    30   ar
    28    30    31   ar
    29    31    32   ar
    30    11     2    1
    31    22    17   ar
    32    32    23   ar
    33    10     5   ar
    34    32    27   ar
    35    15    16    1
    36     3    12    1
@<TRIPOS>MOLECULE
*****
 32 36 0 0 0
SMALL
GASTEIGER

@<TRIPOS>ATOM
      1 O          -7.0707  -16.1147   22.7293 O.3     1  UNL1       -0.4723
      2 C          -7.1902  -18.3968   21.3425 C.3     1  UNL1        0.1471
      3 O          -8.3687  -17.4859   21.5199 O.3     1  UNL1       -0.3812
      4 C          -6.2132  -19.4822   21.0001 C.3     1  UNL1        0.0584
      5 C          -4.8919  -19.1276   21.6153 C.ar    1  UNL1       -0.0202
      6 C          -3.5634  -19.8240   21.6108 C.ar    1  UNL1       -0.0044
      7 C          -2.3953  -19.2159   22.3290 C.ar    1  UNL1       -0.0003
      8 C          -2.5558  -17.9113   23.0516 C.ar    1  UNL1       -0.0002
      9 C          -3.8843  -17.2147   23.0561 C.ar    1  UNL1       -0.0011
     10 C          -5.0523  -17.8229   22.3380 C.ar    1  UNL1        0.0157
     11 C          -6.4728  -17.3712   22.1694 C.3     1  UNL1        0.2136
     12 H          -9.1380  -17.8599   21.0626 H       1  UNL1        0.2105
     13 C          -8.1540  -19.2318   20.5528 C.3     1  UNL1        0.1001
     14 C         -10.4603  -19.4602   19.3786 C.3     1  UNL1        0.0859
     15 N          -9.3691  -18.5989   19.9421 N.3     1  UNL1       -0.2942
     16 H          -9.7950  -18.0201   20.6660 H       1  UNL1        0.1234
     17 C          -7.1916  -15.9386   24.2140 C.ar    1  UNL1        0.1389
     18 C          -5.9926  -15.5392   25.0220 C.ar    1  UNL1        0.0369
     19 C          -6.1135  -15.3631   26.5068 C.ar    1  UNL1        0.0031
     20 C          -7.4335  -15.5863   27.1834 C.ar    1  UNL1        0.0002
     21 C          -8.6325  -15.9857   26.3755 C.ar    1  UNL1        0.0030
     22 C          -8.5116  -16.1618   24.8908 C.ar    1  UNL1        0.0340
     23 C          -9.7106  -16.5612   24.0828 C.ar    1  UNL1        0.0029
     24 C         -10.5982  -15.5088   23.4874 C.ar    1  UNL1        0.0001
     25 C         -11.7972  -15.9081   22.6794 C.ar    1  UNL1        0.0000
     26 C         -12.1087  -17.3599   22.4668 C.ar    1  UNL1        0.0000
     27 C         -11.2211  -18.4124   23.0622 C.ar    1  UNL1        0.0000
     28 C         -11.5325  -19.8642   22.8496 C.ar    1  UNL1        0.0000
     29 C         -10.6449  -20.9167   23.4449 C.ar    1  UNL1        0.0000
     30 C          -9.4459  -20.5173   24.2529 C.ar    1  UNL1        0.0000
     31 C          -9.1345  -19.0655   24.4656 C.ar    1  UNL1        0.0000
     32 C         -10.0220  -18.0131   23.8702 C.ar    1  UNL1        0.0001
@<TRIPOS>BOND
     1    14    15    1
     2    15    13    1
     3    13     2    1
     4     2     3    1
     5     2     4    1
     6     4     5    1
     7     5     6   ar
     8     6     7   ar
     9     7     8   ar
    10     8     9   ar
    11     9    10   ar
    12    10    11    1
    13    11     1    1
    14     1    17    1
    15    17    18   ar
    16    18    19   ar
    17    19    20   ar
    18    20    21   ar
    19    21    22   ar
    20    22    23    1
    21    23    24   ar
    22    24    25   ar
    23    25    26   ar
    24    26    27   ar
    25    27    28   ar
    26    28    29   ar
    27    29    30   ar
    28    30    31   ar
    29    31    32   ar
    30    11     2    1
    31    22    17   ar
    32    32    23   ar
    33    10     5   ar
    34    32    27   ar
    35    15    16    1
    36     3    12    1
@<TRIPOS>MOLECULE
*****
 32 36 0 0 0
SMALL
GASTEIGER

@<TRIPOS>ATOM
      1 O          -7.0339  -19.0427   22.6629 O.3     1  UNL1       -0.4723
      2 C          -5.9029  -16.7247   23.3652 C.3     1  UNL1        0.1471
      3 O          -7.3661  -17.0054   23.5386 O.3     1  UNL1       -0.3812
      4 C          -4.5118  -16.1656   23.3167 C.3     1  UNL1        0.0584
      5 C          -3.6126  -17.2105   22.7255 C.ar    1  UNL1       -0.0202
      6 C          -2.1411  -17.2205   22.4348 C.ar    1  UNL1       -0.0044
      7 C          -1.5048  -18.4355   21.8272 C.ar    1  UNL1       -0.0003
      8 C          -2.3402  -19.6404   21.5103 C.ar    1  UNL1       -0.0002
      9 C          -3.8117  -19.6305   21.8010 C.ar    1  UNL1       -0.0011
     10 C          -4.4479  -18.4155   22.4086 C.ar    1  UNL1        0.0157
     11 C          -5.8634  -18.1153   22.8040 C.3     1  UNL1        0.2136
     12 H          -7.7995  -16.2315   23.9312 H       1  UNL1        0.2105
     13 C          -6.2483  -15.3929   23.9627 C.3     1  UNL1        0.1001
     14 C          -6.1016  -15.3486   26.5562 C.3     1  UNL1        0.0859
     15 N          -5.5664  -14.9343   25.2175 N.3     1  UNL1       -0.2942
     16 H          -4.6041  -15.2688   25.1688 H       1  UNL1        0.1234
     17 C          -7.6139  -19.3174   21.3072 C.ar    1  UNL1        0.1389
     18 C          -6.7087  -19.4670   20.1204 C.ar    1  UNL1        0.0369
     19 C          -7.2888  -19.7418   18.7647 C.ar    1  UNL1        0.0031
     20 C          -8.7740  -19.8668   18.5956 C.ar    1  UNL1        0.0002
     21 C          -9.6791  -19.7171   19.7824 C.ar    1  UNL1        0.0030
     22 C          -9.0991  -19.4424   21.1381 C.ar    1  UNL1        0.0340
     23 C         -10.0043  -19.2928   22.3248 C.ar    1  UNL1        0.0029
     24 C          -9.8483  -20.2032   23.5066 C.ar    1  UNL1        0.0001
     25 C         -10.7534  -20.0536   24.6933 C.ar    1  UNL1        0.0000
     26 C         -11.8145  -18.9934   24.6983 C.ar    1  UNL1        0.0000
     27 C         -11.9706  -18.0829   23.5165 C.ar    1  UNL1        0.0000
     28 C         -13.0317  -17.0228   23.5214 C.ar    1  UNL1        0.0000
     29 C         -13.1877  -16.1123   22.3396 C.ar    1  UNL1        0.0000
     30 C         -12.2825  -16.2619   21.1529 C.ar    1  UNL1        0.0000
     31 C         -11.2214  -17.3221   21.1480 C.ar    1  UNL1        0.0000
     32 C         -11.0654  -18.2326   22.3297 C.ar    1  UNL1        0.0001
@<TRIPOS>BOND
     1    14    15    1
     2    15    13    1
     3    13     2    1
     4     2     3    1
     5     2     4    1
     6     4     5    1
     7     5     6   ar
     8     6     7   ar
     9     7     8   ar
    10     8     9   ar
    11     9    10   ar
    12    10    11    1
    13    11     1    1
    14     1    17    1
    15    17    18   ar
    16    18    19   ar
    17    19    20   ar
    18    20    21   ar
    19    21    22   ar
    20    22    23    1
    21    23    24   ar
    22    24    25   ar
    23    25    26   ar
    24    26    27   ar
    25    27    28   ar
    26    28    29   ar
    27    29    30   ar
    28    30    31   ar
    29    31    32   ar
    30    11     2    1
    31    22    17   ar
    32    32    23   ar
    33    10     5   ar
    34    32    27   ar
    35    15    16    1
    36     3    12    1
@<TRIPOS>MOLECULE
*****
 32 36 0 0 0
SMALL
GASTEIGER

@<TRIPOS>ATOM
      1 O          -7.2998  -16.0435   22.4278 O.3     1  UNL1       -0.4723
      2 C          -6.4636  -18.5402   21.9670 C.3     1  UNL1        0.1471
      3 O          -5.6775  -17.5516   22.7762 O.3     1  UNL1       -0.3812
      4 C          -7.0100  -19.7210   21.2206 C.3     1  UNL1        0.0584
      5 C          -8.3297  -19.3245   20.6279 C.ar    1  UNL1       -0.0202
      6 C          -9.3210  -20.0776   19.7913 C.ar    1  UNL1       -0.0044
      7 C         -10.5816  -19.4048   19.3347 C.ar    1  UNL1       -0.0003
      8 C         -10.8507  -17.9790   19.7148 C.ar    1  UNL1       -0.0002
      9 C          -9.8594  -17.2258   20.5515 C.ar    1  UNL1       -0.0011
     10 C          -8.5989  -17.8986   21.0080 C.ar    1  UNL1        0.0157
     11 C          -7.4455  -17.4138   21.8356 C.3     1  UNL1        0.2136
     12 H          -4.8557  -17.9657   23.0830 H       1  UNL1        0.2105
     13 C          -5.3173  -19.4598   22.2675 C.3     1  UNL1        0.1001
     14 C          -2.7619  -19.3593   21.8095 C.3     1  UNL1        0.0859
     15 N          -3.9632  -18.8938   22.5778 N.3     1  UNL1       -0.2942
     16 H          -4.0274  -17.8851   22.4412 H       1  UNL1        0.1234
     17 C          -7.2234  -15.8739   23.9162 C.ar    1  UNL1        0.1389
     18 C          -5.9286  -15.4752   24.5602 C.ar    1  UNL1        0.0369
     19 C          -5.8523  -15.3057   26.0487 C.ar    1  UNL1        0.0031
     20 C          -7.0706  -15.5349   26.8931 C.ar    1  UNL1        0.0002
     21 C          -8.3653  -15.9336   26.2491 C.ar    1  UNL1        0.0030
     22 C          -8.4417  -16.1031   24.7607 C.ar    1  UNL1        0.0340
     23 C          -9.7365  -16.5018   24.1168 C.ar    1  UNL1        0.0029
     24 C         -10.6918  -15.4489   23.6386 C.ar    1  UNL1        0.0001
     25 C         -11.9865  -15.8476   22.9946 C.ar    1  UNL1        0.0000
     26 C         -12.3259  -17.2992   22.8288 C.ar    1  UNL1        0.0000
     27 C         -11.3706  -18.3522   23.3070 C.ar    1  UNL1        0.0000
     28 C         -11.7100  -19.8039   23.1412 C.ar    1  UNL1        0.0000
     29 C         -10.7547  -20.8568   23.6194 C.ar    1  UNL1        0.0000
     30 C          -9.4600  -20.4581   24.2634 C.ar    1  UNL1        0.0000
     31 C          -9.1206  -19.0065   24.4292 C.ar    1  UNL1        0.0000
     32 C         -10.0759  -17.9535   23.9510 C.ar    1  UNL1        0.0001
@<TRIPOS>BOND
     1    14    15    1
     2    15    13    1
     3    13     2    1
     4     2     3    1
     5     2     4    1
     6     4     5    1
     7     5     6   ar
     8     6     7   ar
     9     7     8   ar
    10     8     9   ar
    11     9    10   ar
    12    10    11    1
    13    11     1    1
    14     1    17    1
    15    17    18   ar
    16    18    19   ar
    17    19    20   ar
    18    20    21   ar
    19    21    22   ar
    20    22    23    1
    21    23    24   ar
    22    24    25   ar
    23    25    26   ar
    24    26    27   ar
    25    27    28   ar
    26    28    29   ar
    27    29    30   ar
    28    30    31   ar
    29    31    32   ar
    30    11     2    1
    31    22    17   ar
    32    32    23   ar
    33    10     5   ar
    34    32    27   ar
    35    15    16    1
    36     3    12    1
@<TRIPOS>MOLECULE
*****
 32 36 0 0 0
SMALL
GASTEIGER

@<TRIPOS>ATOM
      1 O          -7.0909  -16.3416   21.8778 O.3     1  UNL1       -0.4723
      2 C          -8.5967  -16.2327   24.0837 C.3     1  UNL1        0.1471
      3 O          -7.0977  -16.1900   24.1149 O.3     1  UNL1       -0.3812
      4 C         -10.0701  -16.2536   24.3642 C.3     1  UNL1        0.0584
      5 C         -10.7902  -16.3620   23.0528 C.ar    1  UNL1       -0.0202
      6 C         -12.2494  -16.4246   22.7112 C.ar    1  UNL1       -0.0044
      7 C         -12.6803  -16.5335   21.2785 C.ar    1  UNL1       -0.0003
      8 C         -11.6519  -16.5796   20.1875 C.ar    1  UNL1       -0.0002
      9 C         -10.1926  -16.5170   20.5291 C.ar    1  UNL1       -0.0011
     10 C          -9.7618  -16.4081   21.9617 C.ar    1  UNL1        0.0157
     11 C          -8.4061  -16.3282   22.5989 C.3     1  UNL1        0.2136
     12 H          -6.7953  -16.1195   25.0339 H       1  UNL1        0.2105
     13 C          -8.4739  -16.1283   25.5750 C.3     1  UNL1        0.1001
     14 C          -6.7513  -15.4093   27.3821 C.3     1  UNL1        0.0859
     15 N          -7.5902  -15.0798   26.1831 N.3     1  UNL1       -0.2942
     16 H          -6.9497  -14.7736   25.4507 H       1  UNL1        0.1234
     17 C          -6.0746  -17.3994   22.1910 C.ar    1  UNL1        0.1389
     18 C          -4.8038  -17.0325   22.8985 C.ar    1  UNL1        0.0369
     19 C          -3.7875  -18.0904   23.2117 C.ar    1  UNL1        0.0031
     20 C          -4.0420  -19.5151   22.8174 C.ar    1  UNL1        0.0002
     21 C          -5.3128  -19.8819   22.1099 C.ar    1  UNL1        0.0030
     22 C          -6.3291  -18.8241   21.7967 C.ar    1  UNL1        0.0340
     23 C          -7.5999  -19.1910   21.0893 C.ar    1  UNL1        0.0029
     24 C          -7.6519  -19.1864   19.5902 C.ar    1  UNL1        0.0001
     25 C          -8.9227  -19.5533   18.8828 C.ar    1  UNL1        0.0000
     26 C         -10.1414  -19.9247   19.6743 C.ar    1  UNL1        0.0000
     27 C         -10.0894  -19.9293   21.1735 C.ar    1  UNL1        0.0000
     28 C         -11.3082  -20.3008   21.9651 C.ar    1  UNL1        0.0000
     29 C         -11.2561  -20.3054   23.4641 C.ar    1  UNL1        0.0000
     30 C          -9.9853  -19.9385   24.1716 C.ar    1  UNL1        0.0000
     31 C          -8.7666  -19.5671   23.3800 C.ar    1  UNL1        0.0000
     32 C          -8.8186  -19.5625   21.8810 C.ar    1  UNL1        0.0001
@<TRIPOS>BOND
     1    14    15    1
     2    15    13    1
     3    13     2    1
     4     2     3    1
     5     2     4    1
     6     4     5    1
     7     5     6   ar
     8     6     7   ar
     9     7     8   ar
    10     8     9   ar
    11     9    10   ar
    12    10    11    1
    13    11     1    1
    14     1    17    1
    15    17    18   ar
    16    18    19   ar
    17    19    20   ar
    18    20    21   ar
    19    21    22   ar
    20    22    23    1
    21    23    24   ar
    22    24    25   ar
    23    25    26   ar
    24    26    27   ar
    25    27    28   ar
    26    28    29   ar
    27    29    30   ar
    28    30    31   ar
    29    31    32   ar
    30    11     2    1
    31    22    17   ar
    32    32    23   ar
    33    10     5   ar
    34    32    27   ar
    35    15    16    1
    36     3    12    1
