@<TRIPOS>MOLECULE
*****
 32 35 0 0 0
SMALL
GASTEIGER

@<TRIPOS>ATOM
      1 N          -7.7445  -18.2611   22.5154 N.3     1  UNL1       -0.2622
      2 C          -9.1502  -18.5095   22.9761 C.3     1  UNL1        0.0981
      3 C          -9.4063  -19.3949   24.1594 C.3     1  UNL1        0.0224
      4 C         -10.8121  -19.6433   24.6200 C.3     1  UNL1        0.0065
      5 C         -11.9617  -19.0061   23.8974 C.3     1  UNL1        0.0277
      6 C         -11.7056  -18.1207   22.7140 C.ar    1  UNL1       -0.0073
      7 C         -12.8553  -17.4835   21.9913 C.ar    1  UNL1       -0.0015
      8 C         -12.5992  -16.5980   20.8080 C.ar    1  UNL1        0.0203
      9 C         -11.1934  -16.3497   20.3473 C.ar    1  UNL1        0.0985
     10 N         -10.0438  -16.9868   21.0700 N.ar    1  UNL1       -0.2471
     11 C         -10.2999  -17.8723   22.2534 C.ar    1  UNL1        0.0695
     12 C          -7.1679  -16.8778   22.5784 C.3     1  UNL1        0.1292
     13 C          -8.6966  -15.5937   24.8177 C.3     1  UNL1        0.0298
     14 C          -7.2125  -15.7787   24.9322 C.2     1  UNL1       -0.0038
     15 C          -6.4481  -16.4208   23.8125 C.2     1  UNL1        0.1272
     16 F          -4.9640  -16.6057   23.9270 F       1  UNL1       -0.2080
     17 C          -6.4927  -15.3216   26.1663 C.3     1  UNL1        0.0899
     18 N          -5.3641  -14.3398   26.0560 N.3     1  UNL1       -0.3177
     19 H          -4.5869  -14.7701   25.5546 H       1  UNL1        0.1191
     20 H          -5.0573  -14.0681   26.9900 H       1  UNL1        0.1191
     21 C          -6.9153  -19.3961   21.9918 C.3     1  UNL1        0.0889
     22 C          -5.4586  -19.1885   21.7001 C.3     1  UNL1        0.0748
     23 C          -5.0260  -18.7052   20.3476 C.3     1  UNL1        0.0432
     24 C          -3.5693  -18.4976   20.0559 C.ar    1  UNL1       -0.0234
     25 C          -3.1366  -18.0143   18.7035 C.ar    1  UNL1       -0.0045
     26 C          -1.6800  -17.8067   18.4118 C.ar    1  UNL1       -0.0003
     27 C          -0.6560  -18.0825   19.4727 C.ar    1  UNL1       -0.0003
     28 C          -1.0886  -18.5658   20.8251 C.ar    1  UNL1       -0.0032
     29 C          -2.5452  -18.7733   21.1168 C.ar    1  UNL1       -0.0103
     30 C          -2.9779  -19.2567   22.4693 C.3     1  UNL1        0.0953
     31 N          -4.4346  -19.4642   22.7609 N.3     1  UNL1       -0.2934
     32 H          -4.6641  -18.8659   23.5544 H       1  UNL1        0.1236
@<TRIPOS>BOND
     1    13    14    1
     2    14    17    1
     3    17    18    1
     4    14    15    2
     5    15    16    1
     6    15    12    1
     7    12     1    1
     8     1    21    1
     9    22    21    1
    10    22    23    1
    11    23    24    1
    12    24    25   ar
    13    25    26   ar
    14    26    27   ar
    15    27    28   ar
    16    28    29   ar
    17    29    30    1
    18    30    31    1
    19     2     1    1
    20     2     3    1
    21     3     4    1
    22     4     5    1
    23     5     6    1
    24     6     7   ar
    25     7     8   ar
    26     8     9   ar
    27     9    10   ar
    28    10    11   ar
    29    31    22    1
    30    11     2    1
    31    29    24   ar
    32    11     6   ar
    33    18    19    1
    34    18    20    1
    35    31    32    1
@<TRIPOS>MOLECULE
*****
 32 35 0 0 0
SMALL
GASTEIGER

@<TRIPOS>ATOM
      1 N          -8.3860  -17.9112   23.0137 N.3     1  UNL1       -0.2622
      2 C          -9.8786  -17.9558   23.1557 C.3     1  UNL1        0.0981
      3 C         -10.4995  -18.6401   24.3373 C.3     1  UNL1        0.0224
      4 C         -11.9921  -18.6846   24.4794 C.3     1  UNL1        0.0065
      5 C         -12.8638  -18.0449   23.4398 C.3     1  UNL1        0.0277
      6 C         -12.2430  -17.3605   22.2582 C.ar    1  UNL1       -0.0073
      7 C         -13.1147  -16.7207   21.2186 C.ar    1  UNL1       -0.0015
      8 C         -12.4939  -16.0364   20.0370 C.ar    1  UNL1        0.0203
      9 C         -11.0013  -15.9918   19.8950 C.ar    1  UNL1        0.0985
     10 N         -10.1295  -16.6316   20.9345 N.ar    1  UNL1       -0.2471
     11 C         -10.7504  -17.3160   22.1162 C.ar    1  UNL1        0.0695
     12 C          -7.6484  -16.6262   23.2475 C.3     1  UNL1        0.1292
     13 C          -4.9729  -15.4140   23.8577 C.3     1  UNL1        0.0298
     14 C          -5.9854  -15.5858   24.9510 C.2     1  UNL1       -0.0038
     15 C          -7.3231  -16.1919   24.6459 C.2     1  UNL1        0.1272
     16 F          -8.3356  -16.3637   25.7393 F       1  UNL1       -0.2080
     17 C          -5.6601  -15.1515   26.3494 C.3     1  UNL1        0.0899
     18 N          -6.7453  -14.6312   27.2447 N.3     1  UNL1       -0.3177
     19 H          -7.1016  -13.7515   26.8713 H       1  UNL1        0.1191
     20 H          -6.3692  -14.4761   28.1801 H       1  UNL1        0.1191
     21 C          -7.6310  -19.1516   22.6378 C.3     1  UNL1        0.0889
     22 C          -6.3984  -19.0511   21.7889 C.3     1  UNL1        0.0748
     23 C          -5.0649  -18.8029   22.4294 C.3     1  UNL1        0.0432
     24 C          -3.8322  -18.7024   21.5805 C.ar    1  UNL1       -0.0234
     25 C          -2.4988  -18.4541   22.2209 C.ar    1  UNL1       -0.0045
     26 C          -1.2662  -18.3536   21.3720 C.ar    1  UNL1       -0.0003
     27 C          -1.3671  -18.5014   19.8827 C.ar    1  UNL1       -0.0003
     28 C          -2.7006  -18.7496   19.2423 C.ar    1  UNL1       -0.0032
     29 C          -3.9332  -18.8501   20.0912 C.ar    1  UNL1       -0.0103
     30 C          -5.2667  -19.0983   19.4508 C.3     1  UNL1        0.0953
     31 N          -6.4993  -19.1988   20.2996 N.3     1  UNL1       -0.2934
     32 H          -6.9053  -20.1175   20.1217 H       1  UNL1        0.1236
@<TRIPOS>BOND
     1    13    14    1
     2    14    17    1
     3    17    18    1
     4    14    15    2
     5    15    16    1
     6    15    12    1
     7    12     1    1
     8     1    21    1
     9    22    21    1
    10    22    23    1
    11    23    24    1
    12    24    25   ar
    13    25    26   ar
    14    26    27   ar
    15    27    28   ar
    16    28    29   ar
    17    29    30    1
    18    30    31    1
    19     2     1    1
    20     2     3    1
    21     3     4    1
    22     4     5    1
    23     5     6    1
    24     6     7   ar
    25     7     8   ar
    26     8     9   ar
    27     9    10   ar
    28    10    11   ar
    29    31    22    1
    30    11     2    1
    31    29    24   ar
    32    11     6   ar
    33    18    19    1
    34    18    20    1
    35    31    32    1
@<TRIPOS>MOLECULE
*****
 32 35 0 0 0
SMALL
GASTEIGER

@<TRIPOS>ATOM
      1 N          -8.1766  -19.3164   21.6518 N.3     1  UNL1       -0.2622
      2 C          -8.6808  -18.9243   23.0090 C.3     1  UNL1        0.0981
      3 C          -9.5171  -19.8826   23.8040 C.3     1  UNL1        0.0224
      4 C         -10.0213  -19.4905   25.1613 C.3     1  UNL1        0.0065
      5 C          -9.6892  -18.1402   25.7234 C.3     1  UNL1        0.0277
      6 C          -8.8529  -17.1818   24.9284 C.ar    1  UNL1       -0.0073
      7 C          -8.5207  -15.8314   25.4906 C.ar    1  UNL1       -0.0015
      8 C          -7.6844  -14.8730   24.6955 C.ar    1  UNL1        0.0203
      9 C          -7.1802  -15.2651   23.3383 C.ar    1  UNL1        0.0985
     10 N          -7.5123  -16.6155   22.7761 N.ar    1  UNL1       -0.2471
     11 C          -8.3487  -17.5739   23.5712 C.ar    1  UNL1        0.0695
     12 C          -8.9560  -18.9435   20.4256 C.3     1  UNL1        0.1292
     13 C         -10.1429  -16.2186   20.8336 C.3     1  UNL1        0.0298
     14 C         -11.0382  -17.4156   20.7088 C.2     1  UNL1       -0.0038
     15 C         -10.4448  -18.7781   20.5047 C.2     1  UNL1        0.1272
     16 F         -11.3401  -19.9750   20.3799 F       1  UNL1       -0.2080
     17 C         -12.5270  -17.2501   20.7879 C.3     1  UNL1        0.0899
     18 N         -13.2732  -17.7417   21.9926 N.3     1  UNL1       -0.3177
     19 H         -13.2118  -18.7588   22.0389 H       1  UNL1        0.1191
     20 H         -14.2519  -17.4630   21.9234 H       1  UNL1        0.1191
     21 C          -6.8930  -20.0813   21.5207 C.3     1  UNL1        0.0889
     22 C          -5.5829  -19.3508   21.5044 C.3     1  UNL1        0.0748
     23 C          -4.7432  -19.3445   20.2616 C.3     1  UNL1        0.0432
     24 C          -3.4331  -18.6140   20.2454 C.ar    1  UNL1       -0.0234
     25 C          -2.5933  -18.6076   19.0026 C.ar    1  UNL1       -0.0045
     26 C          -1.2833  -17.8772   18.9864 C.ar    1  UNL1       -0.0003
     27 C          -0.8130  -17.1532   20.2130 C.ar    1  UNL1       -0.0003
     28 C          -1.6528  -17.1596   21.4559 C.ar    1  UNL1       -0.0032
     29 C          -2.9628  -17.8900   21.4720 C.ar    1  UNL1       -0.0103
     30 C          -3.8027  -17.8964   22.7149 C.3     1  UNL1        0.0953
     31 N          -5.1127  -18.6268   22.7311 N.3     1  UNL1       -0.2934
     32 H          -5.8304  -17.9393   22.9604 H       1  UNL1        0.1236
@<TRIPOS>BOND
     1    13    14    1
     2    14    17    1
     3    17    18    1
     4    14    15    2
     5    15    16    1
     6    15    12    1
     7    12     1    1
     8     1    21    1
     9    22    21    1
    10    22    23    1
    11    23    24    1
    12    24    25   ar
    13    25    26   ar
    14    26    27   ar
    15    27    28   ar
    16    28    29   ar
    17    29    30    1
    18    30    31    1
    19     2     1    1
    20     2     3    1
    21     3     4    1
    22     4     5    1
    23     5     6    1
    24     6     7   ar
    25     7     8   ar
    26     8     9   ar
    27     9    10   ar
    28    10    11   ar
    29    31    22    1
    30    11     2    1
    31    29    24   ar
    32    11     6   ar
    33    18    19    1
    34    18    20    1
    35    31    32    1
@<TRIPOS>MOLECULE
*****
 32 35 0 0 0
SMALL
GASTEIGER

@<TRIPOS>ATOM
      1 N          -8.6391  -17.1598   22.4641 N.3     1  UNL1       -0.2622
      2 C         -10.0774  -16.9988   22.0699 C.3     1  UNL1        0.0981
      3 C         -10.4310  -16.2944   20.7938 C.3     1  UNL1        0.0224
      4 C         -11.8693  -16.1333   20.3997 C.3     1  UNL1        0.0065
      5 C         -12.9540  -16.6767   21.2817 C.3     1  UNL1        0.0277
      6 C         -12.6004  -17.3812   22.5579 C.ar    1  UNL1       -0.0073
      7 C         -13.6851  -17.9246   23.4400 C.ar    1  UNL1       -0.0015
      8 C         -13.3315  -18.6291   24.7162 C.ar    1  UNL1        0.0203
      9 C         -11.8932  -18.7901   25.1103 C.ar    1  UNL1        0.0985
     10 N         -10.8085  -18.2467   24.2283 N.ar    1  UNL1       -0.2471
     11 C         -11.1621  -17.5422   22.9520 C.ar    1  UNL1        0.0695
     12 C          -7.8743  -15.9888   23.0061 C.3     1  UNL1        0.1292
     13 C          -5.0954  -15.3745   23.9550 C.3     1  UNL1        0.0298
     14 C          -6.1974  -15.5887   24.9498 C.2     1  UNL1       -0.0038
     15 C          -7.5869  -15.8959   24.4754 C.2     1  UNL1        0.1272
     16 F          -8.6889  -16.1101   25.4701 F       1  UNL1       -0.2080
     17 C          -5.9100  -15.4958   26.4191 C.3     1  UNL1        0.0899
     18 N          -6.8101  -14.6919   27.3100 N.3     1  UNL1       -0.3177
     19 H          -6.7428  -13.7053   27.0602 H       1  UNL1        0.1191
     20 H          -6.5263  -14.8167   28.2817 H       1  UNL1        0.1191
     21 C          -7.9655  -18.4919   22.3162 C.3     1  UNL1        0.0889
     22 C          -6.6594  -18.5949   21.5857 C.3     1  UNL1        0.0748
     23 C          -5.3687  -18.5664   22.3494 C.3     1  UNL1        0.0432
     24 C          -4.0626  -18.6694   21.6190 C.ar    1  UNL1       -0.0234
     25 C          -2.7719  -18.6410   22.3827 C.ar    1  UNL1       -0.0045
     26 C          -1.4658  -18.7440   21.6522 C.ar    1  UNL1       -0.0003
     27 C          -1.4505  -18.8755   20.1581 C.ar    1  UNL1       -0.0003
     28 C          -2.7412  -18.9039   19.3944 C.ar    1  UNL1       -0.0032
     29 C          -4.0472  -18.8009   20.1248 C.ar    1  UNL1       -0.0103
     30 C          -5.3380  -18.8294   19.3611 C.3     1  UNL1        0.0953
     31 N          -6.6440  -18.7264   20.0916 N.3     1  UNL1       -0.2934
     32 H          -7.1755  -19.5668   19.8645 H       1  UNL1        0.1236
@<TRIPOS>BOND
     1    13    14    1
     2    14    17    1
     3    17    18    1
     4    14    15    2
     5    15    16    1
     6    15    12    1
     7    12     1    1
     8     1    21    1
     9    22    21    1
    10    22    23    1
    11    23    24    1
    12    24    25   ar
    13    25    26   ar
    14    26    27   ar
    15    27    28   ar
    16    28    29   ar
    17    29    30    1
    18    30    31    1
    19     2     1    1
    20     2     3    1
    21     3     4    1
    22     4     5    1
    23     5     6    1
    24     6     7   ar
    25     7     8   ar
    26     8     9   ar
    27     9    10   ar
    28    10    11   ar
    29    31    22    1
    30    11     2    1
    31    29    24   ar
    32    11     6   ar
    33    18    19    1
    34    18    20    1
    35    31    32    1
@<TRIPOS>MOLECULE
*****
 32 35 0 0 0
SMALL
GASTEIGER

@<TRIPOS>ATOM
      1 N          -9.2338  -18.5384   22.5100 N.3     1  UNL1       -0.2622
      2 C          -8.6893  -17.2349   23.0144 C.3     1  UNL1        0.0981
      3 C          -8.1691  -16.2145   22.0459 C.3     1  UNL1        0.0224
      4 C          -7.6245  -14.9109   22.5503 C.3     1  UNL1        0.0065
      5 C          -7.6003  -14.6279   24.0231 C.3     1  UNL1        0.0277
      6 C          -8.1205  -15.6484   24.9915 C.ar    1  UNL1       -0.0073
      7 C          -8.0962  -15.3653   26.4645 C.ar    1  UNL1       -0.0015
      8 C          -8.6165  -16.3858   27.4329 C.ar    1  UNL1        0.0203
      9 C          -9.1610  -17.6893   26.9286 C.ar    1  UNL1        0.0985
     10 N          -9.1853  -17.9724   25.4557 N.ar    1  UNL1       -0.2471
     11 C          -8.6650  -16.9519   24.4872 C.ar    1  UNL1        0.0695
     12 C         -10.6252  -18.6050   21.9538 C.3     1  UNL1        0.1292
     13 C         -12.0522  -15.9730   22.1441 C.3     1  UNL1        0.0298
     14 C         -11.6848  -16.5315   20.8014 C.2     1  UNL1       -0.0038
     15 C         -10.9713  -17.8476   20.7062 C.2     1  UNL1        0.1272
     16 F         -10.6040  -18.4062   19.3635 F       1  UNL1       -0.2080
     17 C         -12.0309  -15.7741   19.5538 C.3     1  UNL1        0.0899
     18 N         -10.9606  -15.0428   18.7991 N.3     1  UNL1       -0.3177
     19 H         -10.6046  -14.2767   19.3707 H       1  UNL1        0.1191
     20 H         -11.3498  -14.6689   17.9336 H       1  UNL1        0.1191
     21 C          -8.3869  -19.7753   22.5618 C.3     1  UNL1        0.0889
     22 C          -6.9942  -19.7546   22.0050 C.3     1  UNL1        0.0748
     23 C          -5.9481  -18.8823   22.6334 C.3     1  UNL1        0.0432
     24 C          -4.5554  -18.8616   22.0765 C.ar    1  UNL1       -0.0234
     25 C          -3.5093  -17.9894   22.7049 C.ar    1  UNL1       -0.0045
     26 C          -2.1167  -17.9686   22.1480 C.ar    1  UNL1       -0.0003
     27 C          -1.7701  -18.8202   20.9628 C.ar    1  UNL1       -0.0003
     28 C          -2.8162  -19.6924   20.3344 C.ar    1  UNL1       -0.0032
     29 C          -4.2088  -19.7131   20.8913 C.ar    1  UNL1       -0.0103
     30 C          -5.2550  -20.5854   20.2629 C.3     1  UNL1        0.0953
     31 N          -6.6476  -20.6061   20.8198 N.3     1  UNL1       -0.2934
     32 H          -6.8451  -21.5716   21.0830 H       1  UNL1        0.1236
@<TRIPOS>BOND
     1    13    14    1
     2    14    17    1
     3    17    18    1
     4    14    15    2
     5    15    16    1
     6    15    12    1
     7    12     1    1
     8     1    21    1
     9    22    21    1
    10    22    23    1
    11    23    24    1
    12    24    25   ar
    13    25    26   ar
    14    26    27   ar
    15    27    28   ar
    16    28    29   ar
    17    29    30    1
    18    30    31    1
    19     2     1    1
    20     2     3    1
    21     3     4    1
    22     4     5    1
    23     5     6    1
    24     6     7   ar
    25     7     8   ar
    26     8     9   ar
    27     9    10   ar
    28    10    11   ar
    29    31    22    1
    30    11     2    1
    31    29    24   ar
    32    11     6   ar
    33    18    19    1
    34    18    20    1
    35    31    32    1
@<TRIPOS>MOLECULE
*****
 32 35 0 0 0
SMALL
GASTEIGER

@<TRIPOS>ATOM
      1 N         -10.0837  -19.0456   23.1734 N.3     1  UNL1       -0.2622
      2 C          -9.5556  -18.1709   24.2715 C.3     1  UNL1        0.0981
      3 C          -9.8033  -18.5351   25.7053 C.3     1  UNL1        0.0224
      4 C          -9.2751  -17.6604   26.8034 C.3     1  UNL1        0.0065
      5 C          -8.4992  -16.4214   26.4677 C.3     1  UNL1        0.0277
      6 C          -8.2514  -16.0571   25.0339 C.ar    1  UNL1       -0.0073
      7 C          -7.4755  -14.8181   24.6982 C.ar    1  UNL1       -0.0015
      8 C          -7.2277  -14.4538   23.2644 C.ar    1  UNL1        0.0203
      9 C          -7.7559  -15.3285   22.1662 C.ar    1  UNL1        0.0985
     10 N          -8.5318  -16.5675   22.5019 N.ar    1  UNL1       -0.2471
     11 C          -8.7796  -16.9319   23.9358 C.ar    1  UNL1        0.0695
     12 C         -11.4452  -18.7883   22.5987 C.3     1  UNL1        0.1292
     13 C         -12.1600  -15.8840   22.3658 C.3     1  UNL1        0.0298
     14 C         -11.9382  -16.7033   21.1291 C.2     1  UNL1       -0.0038
     15 C         -11.5807  -18.1555   21.2455 C.2     1  UNL1        0.1272
     16 F         -11.3589  -18.9748   20.0088 F       1  UNL1       -0.2080
     17 C         -12.0738  -16.0705   19.7758 C.3     1  UNL1        0.0899
     18 N         -10.9621  -15.2253   19.2284 N.3     1  UNL1       -0.3177
     19 H         -10.8599  -14.3864   19.7996 H       1  UNL1        0.1191
     20 H         -11.1792  -14.9584   18.2681 H       1  UNL1        0.1191
     21 C          -9.2505  -20.1776   22.6499 C.3     1  UNL1        0.0889
     22 C          -8.0062  -19.8915   21.8624 C.3     1  UNL1        0.0748
     23 C          -6.6671  -19.9254   22.5373 C.3     1  UNL1        0.0432
     24 C          -5.4229  -19.6392   21.7498 C.ar    1  UNL1       -0.0234
     25 C          -4.0837  -19.6731   22.4247 C.ar    1  UNL1       -0.0045
     26 C          -2.8396  -19.3869   21.6372 C.ar    1  UNL1       -0.0003
     27 C          -2.9346  -19.0668   20.1748 C.ar    1  UNL1       -0.0003
     28 C          -4.2737  -19.0329   19.4999 C.ar    1  UNL1       -0.0032
     29 C          -5.5179  -19.3191   20.2874 C.ar    1  UNL1       -0.0103
     30 C          -6.8571  -19.2852   19.6125 C.3     1  UNL1        0.0953
     31 N          -8.1012  -19.5713   20.4000 N.3     1  UNL1       -0.2934
     32 H          -8.5559  -20.3676   19.9532 H       1  UNL1        0.1236
@<TRIPOS>BOND
     1    13    14    1
     2    14    17    1
     3    17    18    1
     4    14    15    2
     5    15    16    1
     6    15    12    1
     7    12     1    1
     8     1    21    1
     9    22    21    1
    10    22    23    1
    11    23    24    1
    12    24    25   ar
    13    25    26   ar
    14    26    27   ar
    15    27    28   ar
    16    28    29   ar
    17    29    30    1
    18    30    31    1
    19     2     1    1
    20     2     3    1
    21     3     4    1
    22     4     5    1
    23     5     6    1
    24     6     7   ar
    25     7     8   ar
    26     8     9   ar
    27     9    10   ar
    28    10    11   ar
    29    31    22    1
    30    11     2    1
    31    29    24   ar
    32    11     6   ar
    33    18    19    1
    34    18    20    1
    35    31    32    1
@<TRIPOS>MOLECULE
*****
 32 35 0 0 0
SMALL
GASTEIGER

@<TRIPOS>ATOM
      1 N          -9.1609  -18.7094   22.8502 N.3     1  UNL1       -0.2622
      2 C          -8.6529  -17.3478   23.2217 C.3     1  UNL1        0.0981
      3 C          -8.2146  -16.3930   22.1511 C.3     1  UNL1        0.0224
      4 C          -7.7066  -15.0314   22.5225 C.3     1  UNL1        0.0065
      5 C          -7.6368  -14.6246   23.9646 C.3     1  UNL1        0.0277
      6 C          -8.0750  -15.5795   25.0352 C.ar    1  UNL1       -0.0073
      7 C          -8.0052  -15.1727   26.4774 C.ar    1  UNL1       -0.0015
      8 C          -8.4435  -16.1275   27.5480 C.ar    1  UNL1        0.0203
      9 C          -8.9515  -17.4891   27.1765 C.ar    1  UNL1        0.0985
     10 N          -9.0213  -17.8959   25.7344 N.ar    1  UNL1       -0.2471
     11 C          -8.5831  -16.9410   24.6637 C.ar    1  UNL1        0.0695
     12 C         -10.6276  -18.9263   22.6226 C.3     1  UNL1        0.1292
     13 C         -13.1458  -17.2976   22.6996 C.3     1  UNL1        0.0298
     14 C         -12.8184  -18.2262   23.8311 C.2     1  UNL1       -0.0038
     15 C         -11.5592  -19.0406   23.7926 C.2     1  UNL1        0.1272
     16 F         -11.2318  -19.9693   24.9241 F       1  UNL1       -0.2080
     17 C         -13.7501  -18.3406   25.0011 C.3     1  UNL1        0.0899
     18 N         -15.2132  -18.5804   24.7741 N.3     1  UNL1       -0.3177
     19 H         -15.6224  -17.7703   24.3086 H       1  UNL1        0.1191
     20 H         -15.6768  -18.7275   25.6707 H       1  UNL1        0.1191
     21 C          -8.2023  -19.8540   22.7062 C.3     1  UNL1        0.0889
     22 C          -6.9264  -19.6718   21.9388 C.3     1  UNL1        0.0748
     23 C          -5.7658  -18.9622   22.5708 C.3     1  UNL1        0.0432
     24 C          -4.4899  -18.7800   21.8034 C.ar    1  UNL1       -0.0234
     25 C          -3.3294  -18.0703   22.4355 C.ar    1  UNL1       -0.0045
     26 C          -2.0535  -17.8882   21.6680 C.ar    1  UNL1       -0.0003
     27 C          -1.9382  -18.4157   20.2686 C.ar    1  UNL1       -0.0003
     28 C          -3.0987  -19.1254   19.6366 C.ar    1  UNL1       -0.0032
     29 C          -4.3746  -19.3075   20.4040 C.ar    1  UNL1       -0.0103
     30 C          -5.5352  -20.0172   19.7720 C.3     1  UNL1        0.0953
     31 N          -6.8110  -20.1994   20.5394 N.3     1  UNL1       -0.2934
     32 H          -6.9847  -21.2033   20.5879 H       1  UNL1        0.1236
@<TRIPOS>BOND
     1    13    14    1
     2    14    17    1
     3    17    18    1
     4    14    15    2
     5    15    16    1
     6    15    12    1
     7    12     1    1
     8     1    21    1
     9    22    21    1
    10    22    23    1
    11    23    24    1
    12    24    25   ar
    13    25    26   ar
    14    26    27   ar
    15    27    28   ar
    16    28    29   ar
    17    29    30    1
    18    30    31    1
    19     2     1    1
    20     2     3    1
    21     3     4    1
    22     4     5    1
    23     5     6    1
    24     6     7   ar
    25     7     8   ar
    26     8     9   ar
    27     9    10   ar
    28    10    11   ar
    29    31    22    1
    30    11     2    1
    31    29    24   ar
    32    11     6   ar
    33    18    19    1
    34    18    20    1
    35    31    32    1
@<TRIPOS>MOLECULE
*****
 32 35 0 0 0
SMALL
GASTEIGER

@<TRIPOS>ATOM
      1 N          -7.5923  -19.2766   21.7975 N.3     1  UNL1       -0.2622
      2 C          -8.4957  -18.8784   22.9268 C.3     1  UNL1        0.0981
      3 C          -9.5696  -19.8155   23.3943 C.3     1  UNL1        0.0224
      4 C         -10.4730  -19.4173   24.5236 C.3     1  UNL1        0.0065
      5 C         -10.3025  -18.0820   25.1853 C.3     1  UNL1        0.0277
      6 C          -9.2286  -17.1450   24.7178 C.ar    1  UNL1       -0.0073
      7 C          -9.0580  -15.8096   25.3796 C.ar    1  UNL1       -0.0015
      8 C          -7.9842  -14.8726   24.9120 C.ar    1  UNL1        0.0203
      9 C          -7.0807  -15.2708   23.7828 C.ar    1  UNL1        0.0985
     10 N          -7.2512  -16.6060   23.1210 N.ar    1  UNL1       -0.2471
     11 C          -8.3252  -17.5432   23.5885 C.ar    1  UNL1        0.0695
     12 C          -8.0348  -19.0798   20.3779 C.3     1  UNL1        0.1292
     13 C         -10.3548  -19.7581   18.6010 C.3     1  UNL1        0.0298
     14 C          -9.0816  -20.5454   18.5054 C.2     1  UNL1       -0.0038
     15 C          -7.9216  -20.2062   19.3939 C.2     1  UNL1        0.1272
     16 F          -6.6484  -20.9935   19.2983 F       1  UNL1       -0.2080
     17 C          -8.9684  -21.6719   17.5214 C.3     1  UNL1        0.0899
     18 N          -9.4301  -21.4815   16.1070 N.3     1  UNL1       -0.3177
     19 H         -10.4409  -21.3451   16.0948 H       1  UNL1        0.1191
     20 H          -9.1918  -22.3071   15.5575 H       1  UNL1        0.1191
     21 C          -6.2464  -19.8717   22.0878 C.3     1  UNL1        0.0889
     22 C          -5.0048  -19.0563   21.8788 C.3     1  UNL1        0.0748
     23 C          -4.1143  -19.3336   20.7041 C.3     1  UNL1        0.0432
     24 C          -2.8727  -18.5182   20.4950 C.ar    1  UNL1       -0.0234
     25 C          -1.9822  -18.7955   19.3203 C.ar    1  UNL1       -0.0045
     26 C          -0.7407  -17.9801   19.1113 C.ar    1  UNL1       -0.0003
     27 C          -0.3898  -16.8872   20.0770 C.ar    1  UNL1       -0.0003
     28 C          -1.2803  -16.6099   21.2517 C.ar    1  UNL1       -0.0032
     29 C          -2.5218  -17.4253   21.4607 C.ar    1  UNL1       -0.0103
     30 C          -3.4124  -17.1480   22.6354 C.3     1  UNL1        0.0953
     31 N          -4.6539  -17.9634   22.8445 N.3     1  UNL1       -0.2934
     32 H          -5.4377  -17.3108   22.8481 H       1  UNL1        0.1236
@<TRIPOS>BOND
     1    13    14    1
     2    14    17    1
     3    17    18    1
     4    14    15    2
     5    15    16    1
     6    15    12    1
     7    12     1    1
     8     1    21    1
     9    22    21    1
    10    22    23    1
    11    23    24    1
    12    24    25   ar
    13    25    26   ar
    14    26    27   ar
    15    27    28   ar
    16    28    29   ar
    17    29    30    1
    18    30    31    1
    19     2     1    1
    20     2     3    1
    21     3     4    1
    22     4     5    1
    23     5     6    1
    24     6     7   ar
    25     7     8   ar
    26     8     9   ar
    27     9    10   ar
    28    10    11   ar
    29    31    22    1
    30    11     2    1
    31    29    24   ar
    32    11     6   ar
    33    18    19    1
    34    18    20    1
    35    31    32    1
@<TRIPOS>MOLECULE
*****
 32 35 0 0 0
SMALL
GASTEIGER

@<TRIPOS>ATOM
      1 N          -8.7183  -17.9433   22.8423 N.3     1  UNL1       -0.2622
      2 C          -8.5504  -17.4612   24.2527 C.3     1  UNL1        0.0981
      3 C          -9.5144  -17.8996   25.3150 C.3     1  UNL1        0.0224
      4 C          -9.3465  -17.4175   26.7254 C.3     1  UNL1        0.0065
      5 C          -8.2146  -16.4969   27.0736 C.3     1  UNL1        0.0277
      6 C          -7.2506  -16.0585   26.0114 C.ar    1  UNL1       -0.0073
      7 C          -6.1185  -15.1380   26.3595 C.ar    1  UNL1       -0.0015
      8 C          -5.1545  -14.6996   25.2973 C.ar    1  UNL1        0.0203
      9 C          -5.3224  -15.1817   23.8869 C.ar    1  UNL1        0.0985
     10 N          -6.4543  -16.1022   23.5387 N.ar    1  UNL1       -0.2471
     11 C          -7.4184  -16.5407   24.6009 C.ar    1  UNL1        0.0695
     12 C          -9.5924  -17.1837   21.8890 C.3     1  UNL1        0.1292
     13 C         -11.4911  -19.4727   22.2832 C.3     1  UNL1        0.0298
     14 C         -11.9763  -18.0614   22.4340 C.2     1  UNL1       -0.0038
     15 C         -11.0269  -16.9168   22.2369 C.2     1  UNL1        0.1272
     16 F         -11.5120  -15.5055   22.3878 F       1  UNL1       -0.2080
     17 C         -13.4108  -17.7945   22.7820 C.3     1  UNL1        0.0899
     18 N         -13.9128  -18.0820   24.1658 N.3     1  UNL1       -0.3177
     19 H         -13.8796  -19.0869   24.3376 H       1  UNL1        0.1191
     20 H         -14.8745  -17.7537   24.2537 H       1  UNL1        0.1191
     21 C          -8.0120  -19.1852   22.3851 C.3     1  UNL1        0.0889
     22 C          -6.7286  -19.0781   21.6160 C.3     1  UNL1        0.0748
     23 C          -5.4217  -18.9876   22.3467 C.3     1  UNL1        0.0432
     24 C          -4.1383  -18.8805   21.5776 C.ar    1  UNL1       -0.0234
     25 C          -2.8314  -18.7901   22.3082 C.ar    1  UNL1       -0.0045
     26 C          -1.5481  -18.6830   21.5392 C.ar    1  UNL1       -0.0003
     27 C          -1.5716  -18.6663   20.0394 C.ar    1  UNL1       -0.0003
     28 C          -2.8785  -18.7568   19.3088 C.ar    1  UNL1       -0.0032
     29 C          -4.1618  -18.8639   20.0779 C.ar    1  UNL1       -0.0103
     30 C          -5.4688  -18.9543   19.3472 C.3     1  UNL1        0.0953
     31 N          -6.7521  -19.0614   20.1163 N.3     1  UNL1       -0.2934
     32 H          -7.2020  -19.9272   19.8192 H       1  UNL1        0.1236
@<TRIPOS>BOND
     1    13    14    1
     2    14    17    1
     3    17    18    1
     4    14    15    2
     5    15    16    1
     6    15    12    1
     7    12     1    1
     8     1    21    1
     9    22    21    1
    10    22    23    1
    11    23    24    1
    12    24    25   ar
    13    25    26   ar
    14    26    27   ar
    15    27    28   ar
    16    28    29   ar
    17    29    30    1
    18    30    31    1
    19     2     1    1
    20     2     3    1
    21     3     4    1
    22     4     5    1
    23     5     6    1
    24     6     7   ar
    25     7     8   ar
    26     8     9   ar
    27     9    10   ar
    28    10    11   ar
    29    31    22    1
    30    11     2    1
    31    29    24   ar
    32    11     6   ar
    33    18    19    1
    34    18    20    1
    35    31    32    1
