@<TRIPOS>MOLECULE
*****
 29 32 0 0 0
SMALL
GASTEIGER

@<TRIPOS>ATOM
      1 C           7.0722    0.2169   20.9742 C.3     1  UNL1        0.0233
      2 C           6.7440   -1.1191   21.5720 C.3     1  UNL1        0.0954
      3 C           7.6746   -1.7437   22.5689 C.3     1  UNL1        0.1135
      4 N           7.3464   -3.0797   23.1667 N.am    1  UNL1       -0.2726
      5 C           8.2771   -3.7043   24.1636 C.2     1  UNL1        0.2491
      6 O           9.5358   -2.9928   24.5628 O.2     1  UNL1       -0.2699
      7 C           6.0877   -3.7911   22.7676 C.3     1  UNL1        0.1152
      8 C           5.1571   -3.1666   21.7707 C.3     1  UNL1        0.1150
      9 N           5.4853   -1.8305   21.1729 N.pl3   1  UNL1       -0.2777
     10 C           4.5546   -1.2060   20.1759 C.ar    1  UNL1        0.2035
     11 N           3.4518   -0.3027   20.6428 N.ar    1  UNL1       -0.2133
     12 C           2.5212    0.3219   19.6460 C.ar    1  UNL1        0.1065
     13 C           2.6933    0.0432   18.1821 C.ar    1  UNL1        0.0815
     14 C           3.7960   -0.8601   17.7152 C.ar    1  UNL1        0.2646
     15 O           3.9682   -1.1388   16.2514 O.2     1  UNL1       -0.2668
     16 N           4.7267   -1.4847   18.7122 N.ar    1  UNL1       -0.2667
     17 C           5.8295   -2.3880   18.2453 C.3     1  UNL1        0.1363
     18 C           1.4184    1.2252   20.1128 C.ar    1  UNL1        0.1024
     19 C           1.1036    1.3301   21.5756 C.ar    1  UNL1        0.0414
     20 C           0.0008    2.2334   22.0425 C.ar    1  UNL1        0.1023
     21 N          -0.7871    3.0318   21.0466 N.ar    1  UNL1       -0.2224
     22 C          -0.4722    2.9269   19.5838 C.ar    1  UNL1        0.1989
     23 N           0.6306    2.0236   19.1169 N.ar    1  UNL1       -0.2224
     24 C           7.9489   -5.0403   24.7614 C.ar    1  UNL1        0.0536
     25 C           8.4459   -6.2963   24.1090 C.ar    1  UNL1        0.0045
     26 C           8.1177   -7.6323   24.7068 C.ar    1  UNL1        0.0001
     27 C           7.2926   -7.7123   25.9570 C.ar    1  UNL1        0.0000
     28 C           6.7957   -6.4564   26.6093 C.ar    1  UNL1        0.0001
     29 C           7.1239   -5.1203   26.0115 C.ar    1  UNL1        0.0045
@<TRIPOS>BOND
     1     2     1    1
     2     2     3    1
     3     3     4    1
     4     4     5   am
     5     5     6    2
     6     5    24    1
     7    24    25   ar
     8    25    26   ar
     9    26    27   ar
    10    27    28   ar
    11    28    29   ar
    12     4     7    1
    13     7     8    1
    14     8     9    1
    15     9    10    1
    16    10    11   ar
    17    11    12   ar
    18    12    18    1
    19    18    19   ar
    20    19    20   ar
    21    20    21   ar
    22    21    22   ar
    23    22    23   ar
    24    12    13   ar
    25    13    14   ar
    26    14    15    2
    27    14    16   ar
    28    16    17    1
    29     9     2    1
    30    16    10   ar
    31    29    24   ar
    32    23    18   ar
@<TRIPOS>MOLECULE
*****
 29 32 0 0 0
SMALL
GASTEIGER

@<TRIPOS>ATOM
      1 C           1.4551    4.3605   20.7287 C.3     1  UNL1        0.0233
      2 C           1.4556    2.8682   20.5771 C.3     1  UNL1        0.0954
      3 C           2.7431    2.1048   20.6751 C.3     1  UNL1        0.1135
      4 N           2.7437    0.6125   20.5235 N.am    1  UNL1       -0.2726
      5 C           4.0313   -0.1508   20.6215 C.2     1  UNL1        0.2491
      6 O           5.3182    0.5782   20.8710 O.2     1  UNL1       -0.2699
      7 C           1.4567   -0.1165   20.2740 C.3     1  UNL1        0.1152
      8 C           0.1692    0.6469   20.1761 C.3     1  UNL1        0.1150
      9 N           0.1687    2.1392   20.3276 N.pl3   1  UNL1       -0.2777
     10 C          -1.1189    2.9025   20.2297 C.ar    1  UNL1        0.2035
     11 N          -2.0122    3.0234   21.4286 N.ar    1  UNL1       -0.2133
     12 C          -3.2997    3.7866   21.3307 C.ar    1  UNL1        0.1065
     13 C          -3.6940    4.4291   20.0338 C.ar    1  UNL1        0.0815
     14 C          -2.8007    4.3083   18.8349 C.ar    1  UNL1        0.2646
     15 O          -3.1949    4.9508   17.5381 O.2     1  UNL1       -0.2668
     16 N          -1.5131    3.5450   18.9329 N.ar    1  UNL1       -0.2667
     17 C          -0.6198    3.4241   17.7339 C.3     1  UNL1        0.1363
     18 C          -4.1930    3.9075   22.5296 C.ar    1  UNL1        0.1024
     19 C          -3.6432    3.6582   23.9027 C.ar    1  UNL1        0.0414
     20 C          -4.5365    3.7790   25.1016 C.ar    1  UNL1        0.1023
     21 N          -5.9796    4.1491   24.9274 N.ar    1  UNL1       -0.2224
     22 C          -6.5295    4.3985   23.5543 C.ar    1  UNL1        0.1989
     23 N          -5.6362    4.2776   22.3553 N.ar    1  UNL1       -0.2224
     24 C           4.0318   -1.6431   20.4699 C.ar    1  UNL1        0.0536
     25 C           3.7460   -2.2614   19.1334 C.ar    1  UNL1        0.0045
     26 C           3.7465   -3.7537   18.9819 C.ar    1  UNL1        0.0001
     27 C           4.0329   -4.6278   20.1668 C.ar    1  UNL1        0.0000
     28 C           4.3187   -4.0095   21.5032 C.ar    1  UNL1        0.0001
     29 C           4.3182   -2.5172   21.6548 C.ar    1  UNL1        0.0045
@<TRIPOS>BOND
     1     2     1    1
     2     2     3    1
     3     3     4    1
     4     4     5   am
     5     5     6    2
     6     5    24    1
     7    24    25   ar
     8    25    26   ar
     9    26    27   ar
    10    27    28   ar
    11    28    29   ar
    12     4     7    1
    13     7     8    1
    14     8     9    1
    15     9    10    1
    16    10    11   ar
    17    11    12   ar
    18    12    18    1
    19    18    19   ar
    20    19    20   ar
    21    20    21   ar
    22    21    22   ar
    23    22    23   ar
    24    12    13   ar
    25    13    14   ar
    26    14    15    2
    27    14    16   ar
    28    16    17    1
    29     9     2    1
    30    16    10   ar
    31    29    24   ar
    32    23    18   ar
@<TRIPOS>MOLECULE
*****
 29 32 0 0 0
SMALL
GASTEIGER

@<TRIPOS>ATOM
      1 C           1.4511    4.2418   20.4342 C.3     1  UNL1        0.0233
      2 C           1.5013    2.7480   20.5611 C.3     1  UNL1        0.0954
      3 C           2.7369    2.0017   20.1531 C.3     1  UNL1        0.1135
      4 N           2.7871    0.5079   20.2800 N.am    1  UNL1       -0.2726
      5 C           4.0227   -0.2383   19.8719 C.2     1  UNL1        0.2491
      6 O           5.2080    0.5092   19.3370 O.2     1  UNL1       -0.2699
      7 C           1.6017   -0.2396   20.8148 C.3     1  UNL1        0.1152
      8 C           0.3662    0.5067   21.2228 C.3     1  UNL1        0.1150
      9 N           0.3160    2.0004   21.0960 N.pl3   1  UNL1       -0.2777
     10 C          -0.9196    2.7467   21.5040 C.ar    1  UNL1        0.2035
     11 N          -2.0305    2.9543   20.5176 N.ar    1  UNL1       -0.2133
     12 C          -3.2660    3.7005   20.9256 C.ar    1  UNL1        0.1065
     13 C          -3.3908    4.2391   22.3200 C.ar    1  UNL1        0.0815
     14 C          -2.2800    4.0315   23.3064 C.ar    1  UNL1        0.2646
     15 O          -2.4047    4.5701   24.7008 O.2     1  UNL1       -0.2668
     16 N          -1.0444    3.2853   22.8984 N.ar    1  UNL1       -0.2667
     17 C           0.0665    3.0777   23.8848 C.3     1  UNL1        0.1363
     18 C          -4.3769    3.9081   19.9392 C.ar    1  UNL1        0.1024
     19 C          -4.0768    3.9529   18.4702 C.ar    1  UNL1        0.0414
     20 C          -5.1876    4.1605   17.4838 C.ar    1  UNL1        0.1023
     21 N          -6.5985    4.3233   17.9664 N.ar    1  UNL1       -0.2224
     22 C          -6.8986    4.2785   19.4355 C.ar    1  UNL1        0.1989
     23 N          -5.7878    4.0709   20.4218 N.ar    1  UNL1       -0.2224
     24 C           4.0729   -1.7321   19.9988 C.ar    1  UNL1        0.0536
     25 C           3.6965   -2.5969   18.8323 C.ar    1  UNL1        0.0045
     26 C           3.7467   -4.0907   18.9592 C.ar    1  UNL1        0.0001
     27 C           4.1733   -4.7197   20.2525 C.ar    1  UNL1        0.0000
     28 C           4.5496   -3.8548   21.4188 C.ar    1  UNL1        0.0001
     29 C           4.4994   -2.3611   21.2920 C.ar    1  UNL1        0.0045
@<TRIPOS>BOND
     1     2     1    1
     2     2     3    1
     3     3     4    1
     4     4     5   am
     5     5     6    2
     6     5    24    1
     7    24    25   ar
     8    25    26   ar
     9    26    27   ar
    10    27    28   ar
    11    28    29   ar
    12     4     7    1
    13     7     8    1
    14     8     9    1
    15     9    10    1
    16    10    11   ar
    17    11    12   ar
    18    12    18    1
    19    18    19   ar
    20    19    20   ar
    21    20    21   ar
    22    21    22   ar
    23    22    23   ar
    24    12    13   ar
    25    13    14   ar
    26    14    15    2
    27    14    16   ar
    28    16    17    1
    29     9     2    1
    30    16    10   ar
    31    29    24   ar
    32    23    18   ar
@<TRIPOS>MOLECULE
*****
 29 32 0 0 0
SMALL
GASTEIGER

@<TRIPOS>ATOM
      1 C           4.6861    2.6571   18.7826 C.3     1  UNL1        0.0233
      2 C           3.2091    2.4209   18.6705 C.3     1  UNL1        0.0954
      3 C           2.2987    3.5427   18.2673 C.3     1  UNL1        0.1135
      4 N           0.8216    3.3066   18.1552 N.am    1  UNL1       -0.2726
      5 C          -0.0888    4.4285   17.7520 C.2     1  UNL1        0.2491
      6 O           0.4778    5.7865   17.4609 O.2     1  UNL1       -0.2699
      7 C           0.2550    1.9486   18.4463 C.3     1  UNL1        0.1152
      8 C           1.1654    0.8268   18.8495 C.3     1  UNL1        0.1150
      9 N           2.6425    1.0629   18.9616 N.pl3   1  UNL1       -0.2777
     10 C           3.5529   -0.0590   19.3648 C.ar    1  UNL1        0.2035
     11 N           3.8251   -0.3190   20.8168 N.ar    1  UNL1       -0.2133
     12 C           4.7355   -1.4408   21.2201 C.ar    1  UNL1        0.1065
     13 C           5.3737   -2.3027   20.1713 C.ar    1  UNL1        0.0815
     14 C           5.1015   -2.0427   18.7193 C.ar    1  UNL1        0.2646
     15 O           5.7397   -2.9046   17.6706 O.2     1  UNL1       -0.2668
     16 N           4.1911   -0.9208   18.3161 N.ar    1  UNL1       -0.2667
     17 C           3.9189   -0.6608   16.8641 C.3     1  UNL1        0.1363
     18 C           5.0077   -1.7008   22.6721 C.ar    1  UNL1        0.1024
     19 C           4.0007   -1.2973   23.7079 C.ar    1  UNL1        0.0414
     20 C           4.2729   -1.5572   25.1599 C.ar    1  UNL1        0.1023
     21 N           5.5521   -2.2208   25.5761 N.ar    1  UNL1       -0.2224
     22 C           6.5592   -2.6243   24.5402 C.ar    1  UNL1        0.1989
     23 N           6.2870   -2.3643   23.0882 N.ar    1  UNL1       -0.2224
     24 C          -1.5658    4.1923   17.6399 C.ar    1  UNL1        0.0536
     25 C          -2.1738    3.8628   16.3087 C.ar    1  UNL1        0.0045
     26 C          -3.6508    3.6267   16.1967 C.ar    1  UNL1        0.0001
     27 C          -4.5199    3.7200   17.4157 C.ar    1  UNL1        0.0000
     28 C          -3.9120    4.0495   18.7468 C.ar    1  UNL1        0.0001
     29 C          -2.4349    4.2857   18.8589 C.ar    1  UNL1        0.0045
@<TRIPOS>BOND
     1     2     1    1
     2     2     3    1
     3     3     4    1
     4     4     5   am
     5     5     6    2
     6     5    24    1
     7    24    25   ar
     8    25    26   ar
     9    26    27   ar
    10    27    28   ar
    11    28    29   ar
    12     4     7    1
    13     7     8    1
    14     8     9    1
    15     9    10    1
    16    10    11   ar
    17    11    12   ar
    18    12    18    1
    19    18    19   ar
    20    19    20   ar
    21    20    21   ar
    22    21    22   ar
    23    22    23   ar
    24    12    13   ar
    25    13    14   ar
    26    14    15    2
    27    14    16   ar
    28    16    17    1
    29     9     2    1
    30    16    10   ar
    31    29    24   ar
    32    23    18   ar
@<TRIPOS>MOLECULE
*****
 29 32 0 0 0
SMALL
GASTEIGER

@<TRIPOS>ATOM
      1 C           4.0742   -0.4747   33.2302 C.3     1  UNL1        0.0233
      2 C           3.2951    0.4324   32.3245 C.3     1  UNL1        0.0954
      3 C           2.8713   -0.0462   30.9676 C.3     1  UNL1        0.1135
      4 N           2.0922    0.8609   30.0619 N.am    1  UNL1       -0.2726
      5 C           1.6684    0.3823   28.7049 C.2     1  UNL1        0.2491
      6 O           2.0237   -1.0033   28.2536 O.2     1  UNL1       -0.2699
      7 C           1.7369    2.2466   30.5132 C.3     1  UNL1        0.1152
      8 C           2.1607    2.7251   31.8702 C.3     1  UNL1        0.1150
      9 N           2.9398    1.8180   32.7758 N.pl3   1  UNL1       -0.2777
     10 C           3.3636    2.2967   34.1328 C.ar    1  UNL1        0.2035
     11 N           2.5676    1.9142   35.3453 N.ar    1  UNL1       -0.2133
     12 C           2.9914    2.3928   36.7023 C.ar    1  UNL1        0.1065
     13 C           4.2111    3.2539   36.8468 C.ar    1  UNL1        0.0815
     14 C           5.0071    3.6363   35.6343 C.ar    1  UNL1        0.2646
     15 O           6.2268    4.4974   35.7787 O.2     1  UNL1       -0.2668
     16 N           4.5833    3.1577   34.2773 N.ar    1  UNL1       -0.2667
     17 C           5.3793    3.5402   33.0648 C.3     1  UNL1        0.1363
     18 C           2.1954    2.0104   37.9148 C.ar    1  UNL1        0.1024
     19 C           2.5295    0.7559   38.6662 C.ar    1  UNL1        0.0414
     20 C           1.7335    0.3735   39.8787 C.ar    1  UNL1        0.1023
     21 N           0.6035    1.2455   40.3398 N.ar    1  UNL1       -0.2224
     22 C           0.2693    2.5000   39.5883 C.ar    1  UNL1        0.1989
     23 N           1.0653    2.8824   38.3758 N.ar    1  UNL1       -0.2224
     24 C           0.8893    1.2894   27.7993 C.ar    1  UNL1        0.0536
     25 C           1.6078    2.1638   26.8148 C.ar    1  UNL1        0.0045
     26 C           0.8288    3.0709   25.9091 C.ar    1  UNL1        0.0001
     27 C          -0.6689    3.1035   25.9880 C.ar    1  UNL1        0.0000
     28 C          -1.3873    2.2291   26.9724 C.ar    1  UNL1        0.0001
     29 C          -0.6082    1.3221   27.8781 C.ar    1  UNL1        0.0045
@<TRIPOS>BOND
     1     2     1    1
     2     2     3    1
     3     3     4    1
     4     4     5   am
     5     5     6    2
     6     5    24    1
     7    24    25   ar
     8    25    26   ar
     9    26    27   ar
    10    27    28   ar
    11    28    29   ar
    12     4     7    1
    13     7     8    1
    14     8     9    1
    15     9    10    1
    16    10    11   ar
    17    11    12   ar
    18    12    18    1
    19    18    19   ar
    20    19    20   ar
    21    20    21   ar
    22    21    22   ar
    23    22    23   ar
    24    12    13   ar
    25    13    14   ar
    26    14    15    2
    27    14    16   ar
    28    16    17    1
    29     9     2    1
    30    16    10   ar
    31    29    24   ar
    32    23    18   ar
@<TRIPOS>MOLECULE
*****
 29 32 0 0 0
SMALL
GASTEIGER

@<TRIPOS>ATOM
      1 C           7.6800    1.6229   33.5485 C.3     1  UNL1        0.0233
      2 C           6.3216    1.4493   34.1607 C.3     1  UNL1        0.0954
      3 C           6.0508    1.9639   35.5433 C.3     1  UNL1        0.1135
      4 N           4.6924    1.7903   36.1555 N.am    1  UNL1       -0.2726
      5 C           4.4216    2.3050   37.5382 C.2     1  UNL1        0.2491
      6 O           5.5091    2.9932   38.3087 O.2     1  UNL1       -0.2699
      7 C           3.6049    1.1021   35.3850 C.3     1  UNL1        0.1152
      8 C           3.8758    0.5875   34.0024 C.3     1  UNL1        0.1150
      9 N           5.2341    0.7611   33.3902 N.pl3   1  UNL1       -0.2777
     10 C           5.5050    0.2464   32.0075 C.ar    1  UNL1        0.2035
     11 N           5.8611   -1.1959   31.8005 N.ar    1  UNL1       -0.2133
     12 C           6.1319   -1.7106   30.4179 C.ar    1  UNL1        0.1065
     13 C           6.0466   -0.7829   29.2421 C.ar    1  UNL1        0.0815
     14 C           5.6905    0.6594   29.4491 C.ar    1  UNL1        0.2646
     15 O           5.6052    1.5871   28.2735 O.2     1  UNL1       -0.2668
     16 N           5.4196    1.1741   30.8319 N.ar    1  UNL1       -0.2667
     17 C           5.0635    2.6164   31.0389 C.3     1  UNL1        0.1363
     18 C           6.4880   -3.1529   30.2109 C.ar    1  UNL1        0.1024
     19 C           6.8356   -4.0160   31.3874 C.ar    1  UNL1        0.0414
     20 C           7.1917   -5.4583   31.1804 C.ar    1  UNL1        0.1023
     21 N           7.2003   -6.0376   29.7968 N.ar    1  UNL1       -0.2224
     22 C           6.8527   -5.1746   28.6202 C.ar    1  UNL1        0.1989
     23 N           6.4966   -3.7322   28.8272 N.ar    1  UNL1       -0.2224
     24 C           3.0633    2.1314   38.1504 C.ar    1  UNL1        0.0536
     25 C           2.6978    0.8344   38.8094 C.ar    1  UNL1        0.0045
     26 C           1.3394    0.6608   39.4216 C.ar    1  UNL1        0.0001
     27 C           0.3466    1.7843   39.3747 C.ar    1  UNL1        0.0000
     28 C           0.7120    3.0812   38.7157 C.ar    1  UNL1        0.0001
     29 C           2.0704    3.2548   38.1036 C.ar    1  UNL1        0.0045
@<TRIPOS>BOND
     1     2     1    1
     2     2     3    1
     3     3     4    1
     4     4     5   am
     5     5     6    2
     6     5    24    1
     7    24    25   ar
     8    25    26   ar
     9    26    27   ar
    10    27    28   ar
    11    28    29   ar
    12     4     7    1
    13     7     8    1
    14     8     9    1
    15     9    10    1
    16    10    11   ar
    17    11    12   ar
    18    12    18    1
    19    18    19   ar
    20    19    20   ar
    21    20    21   ar
    22    21    22   ar
    23    22    23   ar
    24    12    13   ar
    25    13    14   ar
    26    14    15    2
    27    14    16   ar
    28    16    17    1
    29     9     2    1
    30    16    10   ar
    31    29    24   ar
    32    23    18   ar
@<TRIPOS>MOLECULE
*****
 29 32 0 0 0
SMALL
GASTEIGER

@<TRIPOS>ATOM
      1 C           1.1791    3.4397   18.3805 C.3     1  UNL1        0.0233
      2 C           1.7908    2.2419   19.0448 C.3     1  UNL1        0.0954
      3 C           2.5048    1.2110   18.2219 C.3     1  UNL1        0.1135
      4 N           3.1165    0.0132   18.8861 N.am    1  UNL1       -0.2726
      5 C           3.8306   -1.0178   18.0631 C.2     1  UNL1        0.2491
      6 O           3.9330   -0.8510   16.5760 O.2     1  UNL1       -0.2699
      7 C           3.0142   -0.1536   20.3733 C.3     1  UNL1        0.1152
      8 C           2.3001    0.8773   21.1962 C.3     1  UNL1        0.1150
      9 N           1.6884    2.0751   20.5319 N.pl3   1  UNL1       -0.2777
     10 C           0.9744    3.1061   21.3549 C.ar    1  UNL1        0.2035
     11 N          -0.5147    3.0338   21.5205 N.ar    1  UNL1       -0.2133
     12 C          -1.2288    4.0647   22.3434 C.ar    1  UNL1        0.1065
     13 C          -0.4538    5.1680   23.0008 C.ar    1  UNL1        0.0815
     14 C           1.0353    5.2403   22.8353 C.ar    1  UNL1        0.2646
     15 O           1.8103    6.3436   23.4926 O.2     1  UNL1       -0.2668
     16 N           1.7494    4.2094   22.0123 N.ar    1  UNL1       -0.2667
     17 C           3.2384    4.2817   21.8467 C.3     1  UNL1        0.1363
     18 C          -2.7179    3.9923   22.5090 C.ar    1  UNL1        0.1024
     19 C          -3.3894    4.7683   23.6030 C.ar    1  UNL1        0.0414
     20 C          -4.8785    4.6959   23.7686 C.ar    1  UNL1        0.1023
     21 N          -5.6960    3.8477   22.8402 N.ar    1  UNL1       -0.2224
     22 C          -5.0245    3.0716   21.7461 C.ar    1  UNL1        0.1989
     23 N          -3.5354    3.1440   21.5805 N.ar    1  UNL1       -0.2224
     24 C           4.4423   -2.2156   18.7274 C.ar    1  UNL1        0.0536
     25 C           5.8788   -2.1824   19.1579 C.ar    1  UNL1        0.0045
     26 C           6.4905   -3.3802   19.8221 C.ar    1  UNL1        0.0001
     27 C           5.6656   -4.6111   20.0559 C.ar    1  UNL1        0.0000
     28 C           4.2291   -4.6442   19.6253 C.ar    1  UNL1        0.0001
     29 C           3.6175   -3.4464   18.9611 C.ar    1  UNL1        0.0045
@<TRIPOS>BOND
     1     2     1    1
     2     2     3    1
     3     3     4    1
     4     4     5   am
     5     5     6    2
     6     5    24    1
     7    24    25   ar
     8    25    26   ar
     9    26    27   ar
    10    27    28   ar
    11    28    29   ar
    12     4     7    1
    13     7     8    1
    14     8     9    1
    15     9    10    1
    16    10    11   ar
    17    11    12   ar
    18    12    18    1
    19    18    19   ar
    20    19    20   ar
    21    20    21   ar
    22    21    22   ar
    23    22    23   ar
    24    12    13   ar
    25    13    14   ar
    26    14    15    2
    27    14    16   ar
    28    16    17    1
    29     9     2    1
    30    16    10   ar
    31    29    24   ar
    32    23    18   ar
@<TRIPOS>MOLECULE
*****
 29 32 0 0 0
SMALL
GASTEIGER

@<TRIPOS>ATOM
      1 C           5.9832    0.2975   20.7797 C.3     1  UNL1        0.0233
      2 C           5.8521   -0.9819   21.5517 C.3     1  UNL1        0.0954
      3 C           7.0800   -1.7391   21.9626 C.3     1  UNL1        0.1135
      4 N           6.9489   -3.0185   22.7346 N.am    1  UNL1       -0.2726
      5 C           8.1768   -3.7757   23.1455 C.2     1  UNL1        0.2491
      6 O           9.5358   -3.2536   22.7843 O.2     1  UNL1       -0.2699
      7 C           5.5899   -3.5406   23.0958 C.3     1  UNL1        0.1152
      8 C           4.3620   -2.7833   22.6850 C.3     1  UNL1        0.1150
      9 N           4.4931   -1.5040   21.9129 N.pl3   1  UNL1       -0.2777
     10 C           3.2652   -0.7467   21.5021 C.ar    1  UNL1        0.2035
     11 N           2.4828    0.0244   22.5235 N.ar    1  UNL1       -0.2133
     12 C           1.2549    0.7816   22.1127 C.ar    1  UNL1        0.1065
     13 C           0.8093    0.7678   20.6804 C.ar    1  UNL1        0.0815
     14 C           1.5917   -0.0032   19.6590 C.ar    1  UNL1        0.2646
     15 O           1.1462   -0.0171   18.2268 O.2     1  UNL1       -0.2668
     16 N           2.8197   -0.7605   20.0699 N.ar    1  UNL1       -0.2667
     17 C           3.6021   -1.5316   19.0484 C.3     1  UNL1        0.1363
     18 C           0.4725    1.5527   23.1341 C.ar    1  UNL1        0.1024
     19 C           0.4972    1.1304   24.5732 C.ar    1  UNL1        0.0414
     20 C          -0.2852    1.9015   25.5947 C.ar    1  UNL1        0.1023
     21 N          -1.0923    3.0948   25.1770 N.ar    1  UNL1       -0.2224
     22 C          -1.1171    3.5171   23.7378 C.ar    1  UNL1        0.1989
     23 N          -0.3347    2.7461   22.7164 N.ar    1  UNL1       -0.2224
     24 C           8.0457   -5.0551   23.9175 C.ar    1  UNL1        0.0536
     25 C           7.4083   -5.0497   25.2754 C.ar    1  UNL1        0.0045
     26 C           7.2772   -6.3290   26.0475 C.ar    1  UNL1        0.0001
     27 C           7.7835   -7.6138   25.4616 C.ar    1  UNL1        0.0000
     28 C           8.4209   -7.6192   24.1038 C.ar    1  UNL1        0.0001
     29 C           8.5520   -6.3398   23.3318 C.ar    1  UNL1        0.0045
@<TRIPOS>BOND
     1     2     1    1
     2     2     3    1
     3     3     4    1
     4     4     5   am
     5     5     6    2
     6     5    24    1
     7    24    25   ar
     8    25    26   ar
     9    26    27   ar
    10    27    28   ar
    11    28    29   ar
    12     4     7    1
    13     7     8    1
    14     8     9    1
    15     9    10    1
    16    10    11   ar
    17    11    12   ar
    18    12    18    1
    19    18    19   ar
    20    19    20   ar
    21    20    21   ar
    22    21    22   ar
    23    22    23   ar
    24    12    13   ar
    25    13    14   ar
    26    14    15    2
    27    14    16   ar
    28    16    17    1
    29     9     2    1
    30    16    10   ar
    31    29    24   ar
    32    23    18   ar
@<TRIPOS>MOLECULE
*****
 29 32 0 0 0
SMALL
GASTEIGER

@<TRIPOS>ATOM
      1 C           2.9210    3.7549   23.4526 C.3     1  UNL1        0.0233
      2 C           2.9394    2.2953   23.1072 C.3     1  UNL1        0.0954
      3 C           3.7827    1.8048   21.9679 C.3     1  UNL1        0.1135
      4 N           3.8011    0.3452   21.6225 N.am    1  UNL1       -0.2726
      5 C           4.6445   -0.1453   20.4831 C.2     1  UNL1        0.2491
      6 O           5.4694    0.8238   19.6891 O.2     1  UNL1       -0.2699
      7 C           2.9762   -0.6238   22.4164 C.3     1  UNL1        0.1152
      8 C           2.1329   -0.1333   23.5558 C.3     1  UNL1        0.1150
      9 N           2.1145    1.3262   23.9012 N.pl3   1  UNL1       -0.2777
     10 C           1.2711    1.8167   25.0406 C.ar    1  UNL1        0.2035
     11 N          -0.1118    2.3363   24.7807 N.ar    1  UNL1       -0.2133
     12 C          -0.9552    2.8268   25.9200 C.ar    1  UNL1        0.1065
     13 C          -0.4156    2.7977   27.3194 C.ar    1  UNL1        0.0815
     14 C           0.9673    2.2782   27.5793 C.ar    1  UNL1        0.2646
     15 O           1.5069    2.2491   28.9786 O.2     1  UNL1       -0.2668
     16 N           1.8107    1.7877   26.4399 N.ar    1  UNL1       -0.2667
     17 C           3.1936    1.2681   26.6998 C.3     1  UNL1        0.1363
     18 C          -2.3381    3.3463   25.6601 C.ar    1  UNL1        0.1024
     19 C          -3.2059    3.7752   26.8059 C.ar    1  UNL1        0.0414
     20 C          -4.5888    4.2947   26.5460 C.ar    1  UNL1        0.1023
     21 N          -5.1040    4.3854   25.1402 N.ar    1  UNL1       -0.2224
     22 C          -4.2362    3.9565   23.9942 C.ar    1  UNL1        0.1989
     23 N          -2.8533    3.4370   24.2542 N.ar    1  UNL1       -0.2224
     24 C           4.6629   -1.6048   20.1377 C.ar    1  UNL1        0.0536
     25 C           3.4965   -2.2215   19.4241 C.ar    1  UNL1        0.0045
     26 C           3.5149   -3.6811   19.0787 C.ar    1  UNL1        0.0001
     27 C           4.6998   -4.5240   19.4469 C.ar    1  UNL1        0.0000
     28 C           5.8662   -3.9074   20.1604 C.ar    1  UNL1        0.0001
     29 C           5.8478   -2.4478   20.5058 C.ar    1  UNL1        0.0045
@<TRIPOS>BOND
     1     2     1    1
     2     2     3    1
     3     3     4    1
     4     4     5   am
     5     5     6    2
     6     5    24    1
     7    24    25   ar
     8    25    26   ar
     9    26    27   ar
    10    27    28   ar
    11    28    29   ar
    12     4     7    1
    13     7     8    1
    14     8     9    1
    15     9    10    1
    16    10    11   ar
    17    11    12   ar
    18    12    18    1
    19    18    19   ar
    20    19    20   ar
    21    20    21   ar
    22    21    22   ar
    23    22    23   ar
    24    12    13   ar
    25    13    14   ar
    26    14    15    2
    27    14    16   ar
    28    16    17    1
    29     9     2    1
    30    16    10   ar
    31    29    24   ar
    32    23    18   ar
