@<TRIPOS>MOLECULE
*****
 31 34 0 0 0
SMALL
GASTEIGER

@<TRIPOS>ATOM
      1 C          -1.1637    3.6931   20.2307 C.2     1  UNL1        0.2534
      2 O          -0.0340    3.9644   21.1794 O.2     1  UNL1       -0.2695
      3 N          -0.8772    3.1815   18.8500 N.am    1  UNL1       -0.2965
      4 H          -1.6187    3.0035   18.2273 H       1  UNL1        0.1501
      5 C          -8.0608    4.6100   23.8656 C.3     1  UNL1        0.0537
      6 C          -7.0234    4.5606   22.7834 C.ar    1  UNL1        0.0771
      7 N          -7.4014    4.8780   21.3670 N.ar    1  UNL1       -0.1522
      8 N          -6.3640    4.8286   20.2847 N.ar    1  UNL1       -0.1416
      9 C          -4.9484    4.4618   20.6189 C.ar    1  UNL1        0.1333
     10 S          -3.7183    4.3314   19.7705 S.2     1  UNL1       -0.0604
     11 C          -2.5800    3.9334   20.6626 C.ar    1  UNL1        0.0971
     12 C          -3.1066    3.8178   22.0623 C.ar    1  UNL1        0.0538
     13 N          -2.3094    3.4417   23.2760 N.pl3   1  UNL1       -0.3564
     14 C          -4.5704    4.1445   22.0353 C.ar    1  UNL1        0.0363
     15 C          -5.6078    4.1939   23.1176 C.ar    1  UNL1       -0.0033
     16 C          -5.2297    3.8765   24.5340 C.3     1  UNL1        0.0324
     17 H          -1.3486    3.2442   23.1921 H       1  UNL1        0.1424
     18 H          -2.7470    3.3925   24.1565 H       1  UNL1        0.1424
     19 C           0.5390    2.9413   18.4182 C.3     1  UNL1        0.1166
     20 C           1.2488    1.6882   18.8380 C.ar    1  UNL1       -0.0026
     21 C           0.5526    0.6895   19.7142 C.ar    1  UNL1       -0.0026
     22 C           1.2624   -0.5634   20.1339 C.ar    1  UNL1       -0.0003
     23 C           2.6685   -0.8176   19.6775 C.ar    1  UNL1        0.0001
     24 C           3.3648    0.1811   18.8013 C.ar    1  UNL1       -0.0003
     25 C           2.6549    1.4340   18.3816 C.ar    1  UNL1       -0.0026
     26 C           3.3783   -2.0706   20.0973 C.ar    1  UNL1        0.0031
     27 C           3.5686   -3.1894   19.1165 C.ar    1  UNL1        0.0207
     28 C           4.2784   -4.4424   19.5363 C.ar    1  UNL1        0.0989
     29 N           4.7980   -4.5766   20.9370 N.ar    1  UNL1       -0.2423
     30 C           4.6077   -3.4578   21.9179 C.ar    1  UNL1        0.0989
     31 C           3.8979   -2.2048   21.4981 C.ar    1  UNL1        0.0207
@<TRIPOS>BOND
     1     5     6    1
     2     6     7   ar
     3     7     8   ar
     4     8     9   ar
     5     9    10   ar
     6    10    11   ar
     7    11     1    1
     8     1     2    2
     9     1     3   am
    10     3    19    1
    11    19    20    1
    12    20    21   ar
    13    21    22   ar
    14    22    23   ar
    15    23    26    1
    16    26    27   ar
    17    27    28   ar
    18    28    29   ar
    19    29    30   ar
    20    30    31   ar
    21    23    24   ar
    22    24    25   ar
    23    11    12   ar
    24    12    13    1
    25    12    14   ar
    26    14    15   ar
    27    15    16    1
    28    15     6   ar
    29    14     9   ar
    30    25    20   ar
    31    31    26   ar
    32     3     4    1
    33    13    17    1
    34    13    18    1
@<TRIPOS>MOLECULE
*****
 31 34 0 0 0
SMALL
GASTEIGER

@<TRIPOS>ATOM
      1 C          -1.9872    3.5699   19.8505 C.2     1  UNL1        0.2534
      2 O          -2.1403    4.1578   18.4791 O.2     1  UNL1       -0.2695
      3 N          -0.8032    2.7055   20.1681 N.am    1  UNL1       -0.2965
      4 H          -0.7027    2.3197   21.0683 H       1  UNL1        0.1501
      5 C          -8.2079    5.5355   24.2167 C.3     1  UNL1        0.0537
      6 C          -6.8527    5.0234   23.8278 C.ar    1  UNL1        0.0771
      7 N          -5.9280    4.4782   24.8755 N.ar    1  UNL1       -0.1522
      8 N          -4.5728    3.9661   24.4866 N.ar    1  UNL1       -0.1416
      9 C          -4.1423    3.9992   23.0501 C.ar    1  UNL1        0.1333
     10 S          -2.8761    3.5678   22.3715 S.2     1  UNL1       -0.0604
     11 C          -3.0182    3.8464   20.9044 C.ar    1  UNL1        0.0971
     12 C          -4.3723    4.4501   20.6763 C.ar    1  UNL1        0.0538
     13 N          -4.9332    4.8832   19.3543 N.pl3   1  UNL1       -0.3564
     14 C          -5.0670    4.5445   22.0025 C.ar    1  UNL1        0.0363
     15 C          -6.4222    5.0566   22.3914 C.ar    1  UNL1       -0.0033
     16 C          -7.3469    5.6019   21.3437 C.3     1  UNL1        0.0324
     17 H          -4.3975    4.7801   18.5348 H       1  UNL1        0.1424
     18 H          -5.8370    5.2706   19.3062 H       1  UNL1        0.1424
     19 C           0.2277    2.4290   19.1142 C.3     1  UNL1        0.1166
     20 C           1.1210    1.2301   19.2351 C.ar    1  UNL1       -0.0026
     21 C           2.3363    1.1094   18.3642 C.ar    1  UNL1       -0.0026
     22 C           3.2295   -0.0895   18.4851 C.ar    1  UNL1       -0.0003
     23 C           2.9075   -1.1678   19.4770 C.ar    1  UNL1        0.0001
     24 C           1.6923   -1.0471   20.3479 C.ar    1  UNL1       -0.0003
     25 C           0.7990    0.1518   20.2270 C.ar    1  UNL1       -0.0026
     26 C           3.8009   -2.3667   19.5979 C.ar    1  UNL1        0.0031
     27 C           5.1679   -2.2259   20.1989 C.ar    1  UNL1        0.0207
     28 C           6.0613   -3.4248   20.3198 C.ar    1  UNL1        0.0989
     29 N           5.5874   -4.7646   19.8396 N.ar    1  UNL1       -0.2423
     30 C           4.2203   -4.9054   19.2386 C.ar    1  UNL1        0.0989
     31 C           3.3271   -3.7065   19.1177 C.ar    1  UNL1        0.0207
@<TRIPOS>BOND
     1     5     6    1
     2     6     7   ar
     3     7     8   ar
     4     8     9   ar
     5     9    10   ar
     6    10    11   ar
     7    11     1    1
     8     1     2    2
     9     1     3   am
    10     3    19    1
    11    19    20    1
    12    20    21   ar
    13    21    22   ar
    14    22    23   ar
    15    23    26    1
    16    26    27   ar
    17    27    28   ar
    18    28    29   ar
    19    29    30   ar
    20    30    31   ar
    21    23    24   ar
    22    24    25   ar
    23    11    12   ar
    24    12    13    1
    25    12    14   ar
    26    14    15   ar
    27    15    16    1
    28    15     6   ar
    29    14     9   ar
    30    25    20   ar
    31    31    26   ar
    32     3     4    1
    33    13    17    1
    34    13    18    1
@<TRIPOS>MOLECULE
*****
 31 34 0 0 0
SMALL
GASTEIGER

@<TRIPOS>ATOM
      1 C          -2.6044    3.5172   21.9078 C.2     1  UNL1        0.2534
      2 O          -3.2548    3.6642   20.5641 O.2     1  UNL1       -0.2695
      3 N          -1.2339    2.9175   22.0160 N.am    1  UNL1       -0.2965
      4 H          -0.8070    2.8210   22.8979 H       1  UNL1        0.1501
      5 C          -7.2862    6.5956   27.4058 C.3     1  UNL1        0.0537
      6 C          -6.1715    5.8273   26.7600 C.ar    1  UNL1        0.0771
      7 N          -5.1895    5.0747   27.6082 N.ar    1  UNL1       -0.1522
      8 N          -4.0748    4.3064   26.9625 N.ar    1  UNL1       -0.1416
      9 C          -3.9420    4.2905   25.4685 C.ar    1  UNL1        0.1333
     10 S          -2.9536    3.6274   24.5556 S.2     1  UNL1       -0.0604
     11 C          -3.3247    3.9700   23.1432 C.ar    1  UNL1        0.0971
     12 C          -4.5424    4.8450   23.1831 C.ar    1  UNL1        0.0538
     13 N          -5.2538    5.4207   21.9946 N.pl3   1  UNL1       -0.3564
     14 C          -4.9240    5.0430   24.6203 C.ar    1  UNL1        0.0363
     15 C          -6.0387    5.8114   25.2660 C.ar    1  UNL1       -0.0033
     16 C          -7.0206    6.5639   24.4177 C.3     1  UNL1        0.0324
     17 H          -4.9254    5.2328   21.0858 H       1  UNL1        0.1424
     18 H          -6.0490    5.9866   22.1235 H       1  UNL1        0.1424
     19 C          -0.5137    2.4647   20.7806 C.3     1  UNL1        0.1166
     20 C           0.4750    1.3393   20.8588 C.ar    1  UNL1       -0.0026
     21 C           1.3606    1.2012   22.0615 C.ar    1  UNL1       -0.0026
     22 C           2.3492    0.0758   22.1396 C.ar    1  UNL1       -0.0003
     23 C           2.4523   -0.9114   21.0150 C.ar    1  UNL1        0.0001
     24 C           1.5667   -0.7733   19.8123 C.ar    1  UNL1       -0.0003
     25 C           0.5781    0.3520   19.7342 C.ar    1  UNL1       -0.0026
     26 C           3.4410   -2.0368   21.0932 C.ar    1  UNL1        0.0031
     27 C           4.0483   -2.4113   22.4126 C.ar    1  UNL1        0.0207
     28 C           5.0370   -3.5367   22.4908 C.ar    1  UNL1        0.0989
     29 N           5.4183   -4.2876   21.2495 N.ar    1  UNL1       -0.2423
     30 C           4.8109   -3.9130   19.9300 C.ar    1  UNL1        0.0989
     31 C           3.8223   -2.7877   19.8519 C.ar    1  UNL1        0.0207
@<TRIPOS>BOND
     1     5     6    1
     2     6     7   ar
     3     7     8   ar
     4     8     9   ar
     5     9    10   ar
     6    10    11   ar
     7    11     1    1
     8     1     2    2
     9     1     3   am
    10     3    19    1
    11    19    20    1
    12    20    21   ar
    13    21    22   ar
    14    22    23   ar
    15    23    26    1
    16    26    27   ar
    17    27    28   ar
    18    28    29   ar
    19    29    30   ar
    20    30    31   ar
    21    23    24   ar
    22    24    25   ar
    23    11    12   ar
    24    12    13    1
    25    12    14   ar
    26    14    15   ar
    27    15    16    1
    28    15     6   ar
    29    14     9   ar
    30    25    20   ar
    31    31    26   ar
    32     3     4    1
    33    13    17    1
    34    13    18    1
@<TRIPOS>MOLECULE
*****
 31 34 0 0 0
SMALL
GASTEIGER

@<TRIPOS>ATOM
      1 C          -2.1869    3.3142   25.5020 C.2     1  UNL1        0.2534
      2 O          -1.8489    3.1378   26.9527 O.2     1  UNL1       -0.2695
      3 N          -1.1495    3.0467   24.4522 N.am    1  UNL1       -0.2965
      4 H          -1.3714    3.1625   23.5001 H       1  UNL1        0.1501
      5 C          -9.4109    6.2954   24.7593 C.3     1  UNL1        0.0537
      6 C          -8.1408    5.5605   24.4481 C.ar    1  UNL1        0.0771
      7 N          -7.9831    4.8597   23.1313 N.ar    1  UNL1       -0.1522
      8 N          -6.7130    4.1249   22.8201 N.ar    1  UNL1       -0.1416
      9 C          -5.6006    4.0909   23.8257 C.ar    1  UNL1        0.1333
     10 S          -4.2436    3.4521   23.8001 S.2     1  UNL1       -0.0604
     11 C          -3.5626    3.7582   25.1011 C.ar    1  UNL1        0.0971
     12 C          -4.4986    4.5860   25.9308 C.ar    1  UNL1        0.0538
     13 N          -4.2235    5.1154   27.3070 N.pl3   1  UNL1       -0.3564
     14 C          -5.7582    4.7916   25.1425 C.ar    1  UNL1        0.0363
     15 C          -7.0283    5.5265   25.4537 C.ar    1  UNL1       -0.0033
     16 C          -7.1859    6.2273   26.7706 C.3     1  UNL1        0.0324
     17 H          -3.3619    4.9260   27.7441 H       1  UNL1        0.1424
     18 H          -4.9046    5.6521   27.7732 H       1  UNL1        0.1424
     19 C           0.2260    2.6028   24.8531 C.3     1  UNL1        0.1166
     20 C           0.9637    1.5993   24.0171 C.ar    1  UNL1       -0.0026
     21 C           0.6541    1.4684   22.5553 C.ar    1  UNL1       -0.0026
     22 C           1.3918    0.4649   21.7194 C.ar    1  UNL1       -0.0003
     23 C           2.4391   -0.4077   22.3453 C.ar    1  UNL1        0.0001
     24 C           2.7487   -0.2768   23.8071 C.ar    1  UNL1       -0.0003
     25 C           2.0110    0.7267   24.6431 C.ar    1  UNL1       -0.0026
     26 C           3.1768   -1.4112   21.5093 C.ar    1  UNL1        0.0031
     27 C           4.1860   -2.3204   22.1455 C.ar    1  UNL1        0.0207
     28 C           4.9237   -3.3239   21.3095 C.ar    1  UNL1        0.0989
     29 N           4.6521   -3.4182   19.8373 N.ar    1  UNL1       -0.2423
     30 C           3.6428   -2.5089   19.2011 C.ar    1  UNL1        0.0989
     31 C           2.9052   -1.5055   20.0371 C.ar    1  UNL1        0.0207
@<TRIPOS>BOND
     1     5     6    1
     2     6     7   ar
     3     7     8   ar
     4     8     9   ar
     5     9    10   ar
     6    10    11   ar
     7    11     1    1
     8     1     2    2
     9     1     3   am
    10     3    19    1
    11    19    20    1
    12    20    21   ar
    13    21    22   ar
    14    22    23   ar
    15    23    26    1
    16    26    27   ar
    17    27    28   ar
    18    28    29   ar
    19    29    30   ar
    20    30    31   ar
    21    23    24   ar
    22    24    25   ar
    23    11    12   ar
    24    12    13    1
    25    12    14   ar
    26    14    15   ar
    27    15    16    1
    28    15     6   ar
    29    14     9   ar
    30    25    20   ar
    31    31    26   ar
    32     3     4    1
    33    13    17    1
    34    13    18    1
@<TRIPOS>MOLECULE
*****
 31 34 0 0 0
SMALL
GASTEIGER

@<TRIPOS>ATOM
      1 C           0.4048    1.3448   27.1366 C.2     1  UNL1        0.2534
      2 O          -0.9304    2.0197   27.0278 O.2     1  UNL1       -0.2695
      3 N           1.1263    0.9054   25.8972 N.am    1  UNL1       -0.2965
      4 H           2.0026    0.4624   25.9686 H       1  UNL1        0.1501
      5 C           3.2102    1.5379   34.4657 C.3     1  UNL1        0.0537
      6 C           2.8522    1.0405   33.0966 C.ar    1  UNL1        0.0771
      7 N           3.1992   -0.3621   32.6938 N.ar    1  UNL1       -0.1522
      8 N           2.8413   -0.8594   31.3246 N.ar    1  UNL1       -0.1416
      9 C           2.1364    0.0457   30.3584 C.ar    1  UNL1        0.1333
     10 S           1.6599   -0.1637   28.9516 S.2     1  UNL1       -0.0604
     11 C           1.0185    1.1094   28.4850 C.ar    1  UNL1        0.0971
     12 C           1.0984    2.1057   29.6034 C.ar    1  UNL1        0.0538
     13 N           0.5788    3.5124   29.5700 N.pl3   1  UNL1       -0.3564
     14 C           1.7893    1.4483   30.7613 C.ar    1  UNL1        0.0363
     15 C           2.1473    1.9457   32.1304 C.ar    1  UNL1       -0.0033
     16 C           1.8002    3.3483   32.5332 C.3     1  UNL1        0.0324
     17 H           0.1374    3.8550   28.7593 H       1  UNL1        0.1424
     18 H           0.6790    4.0931   30.3586 H       1  UNL1        0.1424
     19 C           0.5126    1.1408   24.5489 C.3     1  UNL1        0.1166
     20 C           1.2039    0.6453   23.3133 C.ar    1  UNL1       -0.0026
     21 C           0.6376    0.9588   21.9602 C.ar    1  UNL1       -0.0026
     22 C           1.3289    0.4633   20.7247 C.ar    1  UNL1       -0.0003
     23 C           2.5865   -0.3456   20.8422 C.ar    1  UNL1        0.0001
     24 C           3.1529   -0.6591   22.1953 C.ar    1  UNL1       -0.0003
     25 C           2.4616   -0.1637   23.4309 C.ar    1  UNL1       -0.0026
     26 C           3.2779   -0.8411   19.6066 C.ar    1  UNL1        0.0031
     27 C           4.0372   -2.1343   19.6395 C.ar    1  UNL1        0.0207
     28 C           4.7285   -2.6298   18.4039 C.ar    1  UNL1        0.0989
     29 N           4.6604   -1.8320   17.1355 N.ar    1  UNL1       -0.2423
     30 C           3.9011   -0.5388   17.1026 C.ar    1  UNL1        0.0989
     31 C           3.2098   -0.0434   18.3382 C.ar    1  UNL1        0.0207
@<TRIPOS>BOND
     1     5     6    1
     2     6     7   ar
     3     7     8   ar
     4     8     9   ar
     5     9    10   ar
     6    10    11   ar
     7    11     1    1
     8     1     2    2
     9     1     3   am
    10     3    19    1
    11    19    20    1
    12    20    21   ar
    13    21    22   ar
    14    22    23   ar
    15    23    26    1
    16    26    27   ar
    17    27    28   ar
    18    28    29   ar
    19    29    30   ar
    20    30    31   ar
    21    23    24   ar
    22    24    25   ar
    23    11    12   ar
    24    12    13    1
    25    12    14   ar
    26    14    15   ar
    27    15    16    1
    28    15     6   ar
    29    14     9   ar
    30    25    20   ar
    31    31    26   ar
    32     3     4    1
    33    13    17    1
    34    13    18    1
@<TRIPOS>MOLECULE
*****
 31 34 0 0 0
SMALL
GASTEIGER

@<TRIPOS>ATOM
      1 C           7.1649   -4.2881   25.7896 C.2     1  UNL1        0.2534
      2 O           8.5606   -3.8429   26.1115 O.2     1  UNL1       -0.2695
      3 N           6.3842   -5.0897   26.7886 N.am    1  UNL1       -0.2965
      4 H           5.4681   -5.3819   26.5774 H       1  UNL1        0.1501
      5 C           3.0621   -1.5189   19.6968 C.3     1  UNL1        0.0537
      6 C           4.0664   -2.2969   20.4945 C.ar    1  UNL1        0.0771
      7 N           5.0094   -3.2356   19.8021 N.ar    1  UNL1       -0.1522
      8 N           6.0137   -4.0135   20.5998 N.ar    1  UNL1       -0.1416
      9 C           6.0748   -3.8528   22.0899 C.ar    1  UNL1        0.1333
     10 S           6.9512   -4.4817   23.1321 S.2     1  UNL1       -0.0604
     11 C           6.5497   -3.9318   24.4687 C.ar    1  UNL1        0.0971
     12 C           5.4252   -2.9629   24.2525 C.ar    1  UNL1        0.0538
     13 N           4.7184   -2.1803   25.3192 N.pl3   1  UNL1       -0.3564
     14 C           5.1317   -2.9141   22.7822 C.ar    1  UNL1        0.0363
     15 C           4.1275   -2.1361   21.9845 C.ar    1  UNL1       -0.0033
     16 C           3.1844   -1.1974   22.6770 C.3     1  UNL1        0.0324
     17 H           4.9845   -2.2809   26.2616 H       1  UNL1        0.1424
     18 H           3.9882   -1.5659   25.0768 H       1  UNL1        0.1424
     19 C           6.9994   -5.4460   28.1094 C.3     1  UNL1        0.1166
     20 C           6.7903   -4.5560   29.2987 C.ar    1  UNL1       -0.0026
     21 C           6.4381   -3.1114   29.1016 C.ar    1  UNL1       -0.0026
     22 C           6.2291   -2.2214   30.2908 C.ar    1  UNL1       -0.0003
     23 C           6.3722   -2.7761   31.6771 C.ar    1  UNL1        0.0001
     24 C           6.7244   -4.2208   31.8742 C.ar    1  UNL1       -0.0003
     25 C           6.9334   -5.1107   30.6850 C.ar    1  UNL1       -0.0026
     26 C           6.1632   -1.8861   32.8663 C.ar    1  UNL1        0.0031
     27 C           7.2756   -1.0016   33.3459 C.ar    1  UNL1        0.0207
     28 C           7.0666   -0.1116   34.5352 C.ar    1  UNL1        0.0989
     29 N           5.7450   -0.1061   35.2447 N.ar    1  UNL1       -0.2423
     30 C           4.6325   -0.9907   34.7651 C.ar    1  UNL1        0.0989
     31 C           4.8416   -1.8806   33.5759 C.ar    1  UNL1        0.0207
@<TRIPOS>BOND
     1     5     6    1
     2     6     7   ar
     3     7     8   ar
     4     8     9   ar
     5     9    10   ar
     6    10    11   ar
     7    11     1    1
     8     1     2    2
     9     1     3   am
    10     3    19    1
    11    19    20    1
    12    20    21   ar
    13    21    22   ar
    14    22    23   ar
    15    23    26    1
    16    26    27   ar
    17    27    28   ar
    18    28    29   ar
    19    29    30   ar
    20    30    31   ar
    21    23    24   ar
    22    24    25   ar
    23    11    12   ar
    24    12    13    1
    25    12    14   ar
    26    14    15   ar
    27    15    16    1
    28    15     6   ar
    29    14     9   ar
    30    25    20   ar
    31    31    26   ar
    32     3     4    1
    33    13    17    1
    34    13    18    1
@<TRIPOS>MOLECULE
*****
 31 34 0 0 0
SMALL
GASTEIGER

@<TRIPOS>ATOM
      1 C           6.4649   -3.9894   24.3163 C.2     1  UNL1        0.2534
      2 O           7.6573   -4.1362   23.4181 O.2     1  UNL1       -0.2695
      3 N           5.1332   -3.6109   23.7392 N.am    1  UNL1       -0.2965
      4 H           4.3506   -3.5146   24.3287 H       1  UNL1        0.1501
      5 C           6.7831   -3.7571   32.1565 C.3     1  UNL1        0.0537
      6 C           6.8615   -4.2676   30.7483 C.ar    1  UNL1        0.0771
      7 N           7.2599   -5.6900   30.4872 N.ar    1  UNL1       -0.1522
      8 N           7.3384   -6.2005   29.0790 N.ar    1  UNL1       -0.1416
      9 C           7.0183   -5.2887   27.9317 C.ar    1  UNL1        0.1333
     10 S           7.0088   -5.5079   26.4479 S.2     1  UNL1       -0.0604
     11 C           6.6044   -4.2210   25.7918 C.ar    1  UNL1        0.0971
     12 C           6.3641   -3.2065   26.8702 C.ar    1  UNL1        0.0538
     13 N           5.9420   -1.7822   26.6625 N.pl3   1  UNL1       -0.3564
     14 C           6.6199   -3.8664   28.1928 C.ar    1  UNL1        0.0363
     15 C           6.5415   -3.3559   29.6010 C.ar    1  UNL1       -0.0033
     16 C           6.1430   -1.9335   29.8620 C.3     1  UNL1        0.0324
     17 H           5.7981   -1.4393   25.7509 H       1  UNL1        0.1424
     18 H           5.8089   -1.1902   27.4378 H       1  UNL1        0.1424
     19 C           4.9938   -3.3793   22.2638 C.3     1  UNL1        0.1166
     20 C           4.0600   -2.3210   21.7556 C.ar    1  UNL1       -0.0026
     21 C           3.6564   -2.3077   20.3110 C.ar    1  UNL1       -0.0026
     22 C           2.7226   -1.2494   19.8030 C.ar    1  UNL1       -0.0003
     23 C           2.1925   -0.2045   20.7395 C.ar    1  UNL1        0.0001
     24 C           2.5960   -0.2179   22.1841 C.ar    1  UNL1       -0.0003
     25 C           3.5298   -1.2761   22.6921 C.ar    1  UNL1       -0.0026
     26 C           1.2586    0.8538   20.2314 C.ar    1  UNL1        0.0031
     27 C           0.2346    1.4537   21.1486 C.ar    1  UNL1        0.0207
     28 C          -0.6992    2.5120   20.6405 C.ar    1  UNL1        0.0989
     29 N          -0.6089    2.9703   19.2151 N.ar    1  UNL1       -0.2423
     30 C           0.4152    2.3703   18.2978 C.ar    1  UNL1        0.0989
     31 C           1.3490    1.3121   18.8060 C.ar    1  UNL1        0.0207
@<TRIPOS>BOND
     1     5     6    1
     2     6     7   ar
     3     7     8   ar
     4     8     9   ar
     5     9    10   ar
     6    10    11   ar
     7    11     1    1
     8     1     2    2
     9     1     3   am
    10     3    19    1
    11    19    20    1
    12    20    21   ar
    13    21    22   ar
    14    22    23   ar
    15    23    26    1
    16    26    27   ar
    17    27    28   ar
    18    28    29   ar
    19    29    30   ar
    20    30    31   ar
    21    23    24   ar
    22    24    25   ar
    23    11    12   ar
    24    12    13    1
    25    12    14   ar
    26    14    15   ar
    27    15    16    1
    28    15     6   ar
    29    14     9   ar
    30    25    20   ar
    31    31    26   ar
    32     3     4    1
    33    13    17    1
    34    13    18    1
@<TRIPOS>MOLECULE
*****
 31 34 0 0 0
SMALL
GASTEIGER

@<TRIPOS>ATOM
      1 C           2.5664    0.9117   24.3536 C.2     1  UNL1        0.2534
      2 O           2.9012    2.3184   23.9547 O.2     1  UNL1       -0.2695
      3 N           1.6975    0.6579   25.5496 N.am    1  UNL1       -0.2965
      4 H           1.4778   -0.2654   25.8114 H       1  UNL1        0.1501
      5 C           4.7790   -4.3875   19.0013 C.3     1  UNL1        0.0537
      6 C           4.5820   -3.7006   20.3202 C.ar    1  UNL1        0.0771
      7 N           5.1131   -4.3237   21.5770 N.ar    1  UNL1       -0.1522
      8 N           4.9161   -3.6368   22.8959 N.ar    1  UNL1       -0.1416
      9 C           4.1880   -2.3269   22.9579 C.ar    1  UNL1        0.1333
     10 S           3.8441   -1.4229   24.1045 S.2     1  UNL1       -0.0604
     11 C           3.1005   -0.2412   23.5563 C.ar    1  UNL1        0.0971
     12 C           2.9848   -0.4147   22.0709 C.ar    1  UNL1        0.0538
     13 N           2.3147    0.5341   21.1219 N.pl3   1  UNL1       -0.3564
     14 C           3.6569   -1.7038   21.7011 C.ar    1  UNL1        0.0363
     15 C           3.8539   -2.3907   20.3822 C.ar    1  UNL1       -0.0033
     16 C           3.3228   -1.7675   19.1253 C.3     1  UNL1        0.0324
     17 H           1.8993    1.3593   21.4622 H       1  UNL1        0.1424
     18 H           2.2902    0.3317   20.1587 H       1  UNL1        0.1424
     19 C           1.1635    1.8107   26.3469 C.3     1  UNL1        0.1166
     20 C          -0.1926    2.3724   26.0374 C.ar    1  UNL1       -0.0026
     21 C          -1.1716    2.6226   27.1459 C.ar    1  UNL1       -0.0026
     22 C          -2.5276    3.1842   26.8364 C.ar    1  UNL1       -0.0003
     23 C          -2.9046    3.4957   25.4183 C.ar    1  UNL1        0.0001
     24 C          -1.9255    3.2455   24.3098 C.ar    1  UNL1       -0.0003
     25 C          -0.5696    2.6839   24.6193 C.ar    1  UNL1       -0.0026
     26 C          -4.2606    4.0573   25.1089 C.ar    1  UNL1        0.0031
     27 C          -4.9308    3.7259   23.8085 C.ar    1  UNL1        0.0207
     28 C          -6.2868    4.2875   23.4990 C.ar    1  UNL1        0.0989
     29 N          -6.9727    5.1806   24.4900 N.ar    1  UNL1       -0.2423
     30 C          -6.3024    5.5121   25.7904 C.ar    1  UNL1        0.0989
     31 C          -4.9465    4.9505   26.0998 C.ar    1  UNL1        0.0207
@<TRIPOS>BOND
     1     5     6    1
     2     6     7   ar
     3     7     8   ar
     4     8     9   ar
     5     9    10   ar
     6    10    11   ar
     7    11     1    1
     8     1     2    2
     9     1     3   am
    10     3    19    1
    11    19    20    1
    12    20    21   ar
    13    21    22   ar
    14    22    23   ar
    15    23    26    1
    16    26    27   ar
    17    27    28   ar
    18    28    29   ar
    19    29    30   ar
    20    30    31   ar
    21    23    24   ar
    22    24    25   ar
    23    11    12   ar
    24    12    13    1
    25    12    14   ar
    26    14    15   ar
    27    15    16    1
    28    15     6   ar
    29    14     9   ar
    30    25    20   ar
    31    31    26   ar
    32     3     4    1
    33    13    17    1
    34    13    18    1
@<TRIPOS>MOLECULE
*****
 31 34 0 0 0
SMALL
GASTEIGER

@<TRIPOS>ATOM
      1 C           6.8420   -4.7391   23.8955 C.2     1  UNL1        0.2534
      2 O           7.6437   -5.4342   22.8353 O.2     1  UNL1       -0.2695
      3 N           5.6561   -3.9042   23.5126 N.am    1  UNL1       -0.2965
      4 H           5.1299   -3.4480   24.2084 H       1  UNL1        0.1501
      5 C           9.1907   -6.8893   31.0707 C.3     1  UNL1        0.0537
      6 C           8.6705   -6.0520   29.9401 C.ar    1  UNL1        0.0771
      7 N           8.2958   -4.6193   30.1785 N.ar    1  UNL1       -0.1522
      8 N           7.7757   -3.7819   29.0479 N.ar    1  UNL1       -0.1416
      9 C           7.6303   -4.3773   27.6788 C.ar    1  UNL1        0.1333
     10 S           7.1490   -3.8017   26.3800 S.2     1  UNL1       -0.0604
     11 C           7.2263   -4.8788   25.3388 C.ar    1  UNL1        0.0971
     12 C           7.7553   -6.1200   25.9941 C.ar    1  UNL1        0.0538
     13 N           7.9929   -7.4394   25.3214 N.pl3   1  UNL1       -0.3564
     14 C           8.0050   -5.8100   27.4404 C.ar    1  UNL1        0.0363
     15 C           8.5251   -6.6474   28.5711 C.ar    1  UNL1       -0.0033
     16 C           8.8998   -8.0801   28.3326 C.3     1  UNL1        0.0324
     17 H           7.7973   -7.5453   24.3624 H       1  UNL1        0.1424
     18 H           8.3444   -8.1996   25.8390 H       1  UNL1        0.1424
     19 C           5.2719   -3.7646   22.0694 C.3     1  UNL1        0.1166
     20 C           4.3223   -2.6827   21.6474 C.ar    1  UNL1       -0.0026
     21 C           3.8945   -1.6345   22.6313 C.ar    1  UNL1       -0.0026
     22 C           2.9450   -0.5527   22.2092 C.ar    1  UNL1       -0.0003
     23 C           2.4233   -0.5192   20.8033 C.ar    1  UNL1        0.0001
     24 C           2.8511   -1.5675   19.8194 C.ar    1  UNL1       -0.0003
     25 C           3.8006   -2.6492   20.2414 C.ar    1  UNL1       -0.0026
     26 C           1.4737    0.5626   20.3812 C.ar    1  UNL1        0.0031
     27 C           1.4856    1.0611   18.9666 C.ar    1  UNL1        0.0207
     28 C           0.5361    2.1430   18.5445 C.ar    1  UNL1        0.0989
     29 N          -0.4254    2.7262   19.5372 N.ar    1  UNL1       -0.2423
     30 C          -0.4373    2.2277   20.9519 C.ar    1  UNL1        0.0989
     31 C           0.5123    1.1459   21.3739 C.ar    1  UNL1        0.0207
@<TRIPOS>BOND
     1     5     6    1
     2     6     7   ar
     3     7     8   ar
     4     8     9   ar
     5     9    10   ar
     6    10    11   ar
     7    11     1    1
     8     1     2    2
     9     1     3   am
    10     3    19    1
    11    19    20    1
    12    20    21   ar
    13    21    22   ar
    14    22    23   ar
    15    23    26    1
    16    26    27   ar
    17    27    28   ar
    18    28    29   ar
    19    29    30   ar
    20    30    31   ar
    21    23    24   ar
    22    24    25   ar
    23    11    12   ar
    24    12    13    1
    25    12    14   ar
    26    14    15   ar
    27    15    16    1
    28    15     6   ar
    29    14     9   ar
    30    25    20   ar
    31    31    26   ar
    32     3     4    1
    33    13    17    1
    34    13    18    1
