@<TRIPOS>MOLECULE
*****
 34 38 0 0 0
SMALL
GASTEIGER

@<TRIPOS>ATOM
      1 C           5.4455    0.5696   22.5992 C.3     1  UNL1        0.0721
      2 C           7.0508   -3.5804   23.2707 C.3     1  UNL1        0.0841
      3 C           7.9825   -2.4683   22.8900 C.3     1  UNL1        0.0376
      4 C           7.4474   -1.0850   22.6661 C.3     1  UNL1        0.0738
      5 N           5.9805   -0.8137   22.8230 N.3     1  UNL1       -0.2726
      6 C           5.0487   -1.9258   23.2038 C.3     1  UNL1        0.0738
      7 C           5.5838   -3.3091   23.4276 C.3     1  UNL1        0.0376
      8 O           8.3997   -5.5050   21.0067 O.2     1  UNL1       -0.2501
      9 C           8.2059   -5.8483   22.4539 C.2     1  UNL1        0.3309
     10 N           8.5980   -7.1366   23.1146 N.am    1  UNL1       -0.1647
     11 C           8.2203   -7.0482   24.5636 C.2     1  UNL1        0.0706
     12 C           8.3652   -8.0171   25.6995 C.3     1  UNL1        0.0705
     13 C           7.8846   -7.6430   27.0702 C.2     1  UNL1       -0.0199
     14 C           7.2590   -6.3000   27.3050 C.2     1  UNL1       -0.0029
     15 C           7.1141   -5.3312   26.1691 C.2     1  UNL1        0.0156
     16 C           7.5947   -5.7053   24.7984 C.2     1  UNL1        0.0668
     17 N           7.5858   -4.9637   23.4946 N.am    1  UNL1       -0.2423
     18 C           5.6978    1.2697   21.2968 C.3     1  UNL1        0.0180
     19 C           5.4334    0.5615   20.0012 C.3     1  UNL1        0.0102
     20 C           4.2169   -0.3037   19.8540 C.3     1  UNL1        0.0446
     21 C           4.3686   -1.7718   19.5866 C.ar    1  UNL1       -0.0183
     22 C           3.1531   -2.6259   19.3792 C.ar    1  UNL1       -0.0017
     23 C           3.3048   -4.0941   19.1117 C.ar    1  UNL1        0.0293
     24 C           4.6720   -4.7080   19.0516 C.ar    1  UNL1        0.1401
     25 F           4.8238   -6.1762   18.7842 F       1  UNL1       -0.2042
     26 C           5.8876   -3.8539   19.2590 C.ar    1  UNL1        0.0293
     27 C           5.7359   -2.3858   19.5265 C.ar    1  UNL1       -0.0017
     28 C           2.8487    0.2993   19.9744 C.ar    1  UNL1       -0.0183
     29 C           2.2484    1.0347   18.8130 C.ar    1  UNL1       -0.0017
     30 C           0.8802    1.6376   18.9334 C.ar    1  UNL1        0.0293
     31 C           0.1123    1.5052   20.2151 C.ar    1  UNL1        0.1401
     32 F          -1.2559    2.1082   20.3354 F       1  UNL1       -0.2042
     33 C           0.7126    0.7699   21.3765 C.ar    1  UNL1        0.0293
     34 C           2.0808    0.1669   21.2561 C.ar    1  UNL1       -0.0017
@<TRIPOS>BOND
     1     8     9    2
     2     9    10    1
     3    10    11    2
     4    11    12    1
     5    12    13    1
     6    13    14    2
     7    14    15    1
     8    15    16    2
     9    16    17    1
    10    17     2    1
    11     2     3    1
    12     3     4    1
    13     4     5    1
    14     5     1    1
    15     1    18    1
    16    18    19    1
    17    19    20    1
    18    20    21    1
    19    21    22   ar
    20    22    23   ar
    21    23    24   ar
    22    24    25    1
    23    24    26   ar
    24    26    27   ar
    25    20    28    1
    26    28    29   ar
    27    29    30   ar
    28    30    31   ar
    29    31    32    1
    30    31    33   ar
    31    33    34   ar
    32     5     6    1
    33     6     7    1
    34    17     9   am
    35     7     2    1
    36    16    11    1
    37    27    21   ar
    38    34    28   ar
@<TRIPOS>MOLECULE
*****
 34 38 0 0 0
SMALL
GASTEIGER

@<TRIPOS>ATOM
      1 C           5.4611    0.5958   22.6478 C.3     1  UNL1        0.0721
      2 C           7.0576   -3.5638   23.2794 C.3     1  UNL1        0.0841
      3 C           7.9878   -2.4554   22.8846 C.3     1  UNL1        0.0376
      4 C           7.4557   -1.0688   22.6740 C.3     1  UNL1        0.0738
      5 N           5.9933   -0.7907   22.8583 N.3     1  UNL1       -0.2726
      6 C           5.0630   -1.8992   23.2531 C.3     1  UNL1        0.0738
      7 C           5.5951   -3.2858   23.4637 C.3     1  UNL1        0.0376
      8 O           8.4225   -5.4610   21.0017 O.2     1  UNL1       -0.2501
      9 C           8.2171   -5.8224   22.4430 C.2     1  UNL1        0.3309
     10 N           8.6030   -7.1193   23.0904 N.am    1  UNL1       -0.1647
     11 C           8.2142   -7.0488   24.5374 C.2     1  UNL1        0.0706
     12 C           8.3495   -8.0320   25.6621 C.3     1  UNL1        0.0705
     13 C           7.8585   -7.6747   27.0337 C.2     1  UNL1       -0.0199
     14 C           7.2323   -6.3343   27.2806 C.2     1  UNL1       -0.0029
     15 C           7.0970   -5.3511   26.1559 C.2     1  UNL1        0.0156
     16 C           7.5880   -5.7083   24.7843 C.2     1  UNL1        0.0668
     17 N           7.5898   -4.9504   23.4899 N.am    1  UNL1       -0.2423
     18 C           5.6469    1.2776   21.3247 C.3     1  UNL1        0.0180
     19 C           5.4290    0.5154   20.0512 C.3     1  UNL1        0.0102
     20 C           4.2085   -0.3414   19.8894 C.3     1  UNL1        0.0446
     21 C           2.8431    0.2699   19.9990 C.ar    1  UNL1       -0.0183
     22 C           2.2504    0.9964   18.8282 C.ar    1  UNL1       -0.0017
     23 C           0.8850    1.6077   18.9378 C.ar    1  UNL1        0.0293
     24 C           0.1124    1.4924   20.2183 C.ar    1  UNL1        0.1401
     25 F          -1.2530    2.1037   20.3281 F       1  UNL1       -0.2042
     26 C           0.7051    0.7660   21.3892 C.ar    1  UNL1        0.0293
     27 C           2.0705    0.1547   21.2795 C.ar    1  UNL1       -0.0017
     28 C           4.3534   -1.8096   19.6180 C.ar    1  UNL1       -0.0183
     29 C           3.1368   -2.6482   19.3601 C.ar    1  UNL1       -0.0017
     30 C           3.2817   -4.1163   19.0887 C.ar    1  UNL1        0.0293
     31 C           4.6432   -4.7457   19.0751 C.ar    1  UNL1        0.1401
     32 F           4.7880   -6.2138   18.8037 F       1  UNL1       -0.2042
     33 C           5.8598   -3.9071   19.3330 C.ar    1  UNL1        0.0293
     34 C           5.7149   -2.4390   19.6044 C.ar    1  UNL1       -0.0017
@<TRIPOS>BOND
     1     8     9    2
     2     9    10    1
     3    10    11    2
     4    11    12    1
     5    12    13    1
     6    13    14    2
     7    14    15    1
     8    15    16    2
     9    16    17    1
    10    17     2    1
    11     2     3    1
    12     3     4    1
    13     4     5    1
    14     5     1    1
    15     1    18    1
    16    18    19    1
    17    19    20    1
    18    20    21    1
    19    21    22   ar
    20    22    23   ar
    21    23    24   ar
    22    24    25    1
    23    24    26   ar
    24    26    27   ar
    25    20    28    1
    26    28    29   ar
    27    29    30   ar
    28    30    31   ar
    29    31    32    1
    30    31    33   ar
    31    33    34   ar
    32     5     6    1
    33     6     7    1
    34    17     9   am
    35     7     2    1
    36    16    11    1
    37    27    21   ar
    38    34    28   ar
@<TRIPOS>MOLECULE
*****
 34 38 0 0 0
SMALL
GASTEIGER

@<TRIPOS>ATOM
      1 C          -0.3145    3.4862   19.2806 C.3     1  UNL1        0.0721
      2 C           2.6320    0.0976   18.9870 C.3     1  UNL1        0.0841
      3 C           1.2918   -0.1267   19.6221 C.3     1  UNL1        0.0376
      4 C           0.3096    1.0028   19.7200 C.3     1  UNL1        0.0738
      5 N           0.6677    2.3567   19.1827 N.3     1  UNL1       -0.2726
      6 C           2.0079    2.5811   18.5476 C.3     1  UNL1        0.0738
      7 C           2.9901    1.4516   18.4497 C.3     1  UNL1        0.0376
      8 O           4.0398   -0.9885   16.2506 O.2     1  UNL1       -0.2501
      9 C           4.2612   -1.5311   17.6313 C.2     1  UNL1        0.3309
     10 N           5.1686   -2.6682   17.9968 N.am    1  UNL1       -0.1647
     11 C           5.0824   -2.8718   19.4804 C.2     1  UNL1        0.0706
     12 C           5.7545   -3.8474   20.4004 C.3     1  UNL1        0.0705
     13 C           5.4659   -3.8116   21.8719 C.2     1  UNL1       -0.0199
     14 C           4.5051   -2.8003   22.4234 C.2     1  UNL1       -0.0029
     15 C           3.8330   -1.8247   21.5034 C.2     1  UNL1        0.0156
     16 C           4.1216   -1.8605   20.0319 C.2     1  UNL1        0.0668
     17 N           3.6141   -1.0319   18.8891 N.am    1  UNL1       -0.2423
     18 C          -1.4800    3.3874   20.2197 C.3     1  UNL1        0.0180
     19 C          -1.5178    4.2311   21.4594 C.3     1  UNL1        0.0102
     20 C          -1.0886    3.6512   22.7745 C.3     1  UNL1        0.0446
     21 C           0.2422    2.9696   22.8951 C.ar    1  UNL1       -0.0183
     22 C           1.4964    3.7012   22.5188 C.ar    1  UNL1       -0.0017
     23 C           2.8272    3.0196   22.6394 C.ar    1  UNL1        0.0293
     24 C           2.9036    1.6064   23.1362 C.ar    1  UNL1        0.1401
     25 F           4.2343    0.9247   23.2568 F       1  UNL1       -0.2042
     26 C           1.6494    0.8747   23.5124 C.ar    1  UNL1        0.0293
     27 C           0.3186    1.5563   23.3919 C.ar    1  UNL1       -0.0017
     28 C          -1.9901    3.7529   23.9691 C.ar    1  UNL1       -0.0183
     29 C          -3.4708    3.5744   23.8086 C.ar    1  UNL1       -0.0017
     30 C          -4.3722    3.6761   25.0032 C.ar    1  UNL1        0.0293
     31 C          -3.7931    3.9564   26.3582 C.ar    1  UNL1        0.1401
     32 F          -4.6946    4.0581   27.5527 F       1  UNL1       -0.2042
     33 C          -2.3124    4.1349   26.5187 C.ar    1  UNL1        0.0293
     34 C          -1.4110    4.0332   25.3241 C.ar    1  UNL1       -0.0017
@<TRIPOS>BOND
     1     8     9    2
     2     9    10    1
     3    10    11    2
     4    11    12    1
     5    12    13    1
     6    13    14    2
     7    14    15    1
     8    15    16    2
     9    16    17    1
    10    17     2    1
    11     2     3    1
    12     3     4    1
    13     4     5    1
    14     5     1    1
    15     1    18    1
    16    18    19    1
    17    19    20    1
    18    20    21    1
    19    21    22   ar
    20    22    23   ar
    21    23    24   ar
    22    24    25    1
    23    24    26   ar
    24    26    27   ar
    25    20    28    1
    26    28    29   ar
    27    29    30   ar
    28    30    31   ar
    29    31    32    1
    30    31    33   ar
    31    33    34   ar
    32     5     6    1
    33     6     7    1
    34    17     9   am
    35     7     2    1
    36    16    11    1
    37    27    21   ar
    38    34    28   ar
@<TRIPOS>MOLECULE
*****
 34 38 0 0 0
SMALL
GASTEIGER

@<TRIPOS>ATOM
      1 C          -0.6243    3.1066   19.6536 C.3     1  UNL1        0.0721
      2 C           2.5194   -0.0688   19.1205 C.3     1  UNL1        0.0841
      3 C           1.2804   -0.3655   19.9121 C.3     1  UNL1        0.0376
      4 C           0.2325    0.6930   20.0899 C.3     1  UNL1        0.0738
      5 N           0.4236    2.0482   19.4759 N.3     1  UNL1       -0.2726
      6 C           1.6626    2.3449   18.6842 C.3     1  UNL1        0.0738
      7 C           2.7105    1.2864   18.5064 C.3     1  UNL1        0.0376
      8 O           3.8773   -0.9679   16.2925 O.2     1  UNL1       -0.2501
      9 C           4.1914   -1.5406   17.6429 C.2     1  UNL1        0.3309
     10 N           5.1849   -2.6270   17.9305 N.am    1  UNL1       -0.1647
     11 C           5.1747   -2.8852   19.4081 C.2     1  UNL1        0.0706
     12 C           5.9465   -3.8446   20.2646 C.3     1  UNL1        0.0705
     13 C           5.7187   -3.8770   21.7468 C.2     1  UNL1       -0.0199
     14 C           4.7189   -2.9502   22.3725 C.2     1  UNL1       -0.0029
     15 C           3.9470   -1.9908   21.5159 C.2     1  UNL1        0.0156
     16 C           4.1749   -1.9583   20.0337 C.2     1  UNL1        0.0668
     17 N           3.5672   -1.1273   18.9427 N.am    1  UNL1       -0.2423
     18 C          -1.5014    3.0969   20.8704 C.3     1  UNL1        0.0180
     19 C          -0.9796    3.6218   22.1752 C.3     1  UNL1        0.0102
     20 C          -1.8352    3.5570   23.4055 C.3     1  UNL1        0.0446
     21 C          -1.3068    2.9141   24.6535 C.ar    1  UNL1       -0.0183
     22 C          -0.1751    1.9332   24.5705 C.ar    1  UNL1       -0.0017
     23 C           0.3534    1.2903   25.8185 C.ar    1  UNL1        0.0293
     24 C          -0.2499    1.6285   27.1495 C.ar    1  UNL1        0.1401
     25 F           0.2785    0.9856   28.3975 F       1  UNL1       -0.2042
     26 C          -1.3816    2.6094   27.2325 C.ar    1  UNL1        0.0293
     27 C          -1.9101    3.2523   25.9845 C.ar    1  UNL1       -0.0017
     28 C          -3.2193    4.1351   23.3879 C.ar    1  UNL1       -0.0183
     29 C          -3.4126    5.6207   23.4620 C.ar    1  UNL1       -0.0017
     30 C          -4.7966    6.1987   23.4444 C.ar    1  UNL1        0.0293
     31 C          -5.9874    5.2911   23.3527 C.ar    1  UNL1        0.1401
     32 F          -7.3714    5.8692   23.3350 F       1  UNL1       -0.2042
     33 C          -5.7941    3.8054   23.2786 C.ar    1  UNL1        0.0293
     34 C          -4.4100    3.2275   23.2962 C.ar    1  UNL1       -0.0017
@<TRIPOS>BOND
     1     8     9    2
     2     9    10    1
     3    10    11    2
     4    11    12    1
     5    12    13    1
     6    13    14    2
     7    14    15    1
     8    15    16    2
     9    16    17    1
    10    17     2    1
    11     2     3    1
    12     3     4    1
    13     4     5    1
    14     5     1    1
    15     1    18    1
    16    18    19    1
    17    19    20    1
    18    20    21    1
    19    21    22   ar
    20    22    23   ar
    21    23    24   ar
    22    24    25    1
    23    24    26   ar
    24    26    27   ar
    25    20    28    1
    26    28    29   ar
    27    29    30   ar
    28    30    31   ar
    29    31    32    1
    30    31    33   ar
    31    33    34   ar
    32     5     6    1
    33     6     7    1
    34    17     9   am
    35     7     2    1
    36    16    11    1
    37    27    21   ar
    38    34    28   ar
@<TRIPOS>MOLECULE
*****
 34 38 0 0 0
SMALL
GASTEIGER

@<TRIPOS>ATOM
      1 C          -0.6623    3.0253   19.7737 C.3     1  UNL1        0.0721
      2 C           2.5181   -0.1008   19.1718 C.3     1  UNL1        0.0841
      3 C           1.2855   -0.4273   19.9616 C.3     1  UNL1        0.0376
      4 C           0.2254    0.6147   20.1623 C.3     1  UNL1        0.0738
      5 N           0.3978    1.9833   19.5730 N.3     1  UNL1       -0.2726
      6 C           1.6305    2.3099   18.7831 C.3     1  UNL1        0.0738
      7 C           2.6906    1.2679   18.5825 C.3     1  UNL1        0.0376
      8 O           3.8320   -0.9753   16.3155 O.2     1  UNL1       -0.2501
      9 C           4.1822   -1.5447   17.6582 C.2     1  UNL1        0.3309
     10 N           5.1978   -2.6162   17.9239 N.am    1  UNL1       -0.1647
     11 C           5.2216   -2.8764   19.4010 C.2     1  UNL1        0.0706
     12 C           6.0254   -3.8249   20.2402 C.3     1  UNL1        0.0705
     13 C           5.8282   -3.8627   21.7267 C.2     1  UNL1       -0.0199
     14 C           4.8272   -2.9521   22.3739 C.2     1  UNL1       -0.0029
     15 C           4.0235   -2.0037   21.5347 C.2     1  UNL1        0.0156
     16 C           4.2207   -1.9658   20.0482 C.2     1  UNL1        0.0668
     17 N           3.5783   -1.1428   18.9711 N.am    1  UNL1       -0.2423
     18 C          -1.5124    3.0022   21.0093 C.3     1  UNL1        0.0180
     19 C          -1.1380    3.8440   22.1931 C.3     1  UNL1        0.0102
     20 C          -1.8156    3.6252   23.5133 C.3     1  UNL1        0.0446
     21 C          -3.1901    4.1767   23.7514 C.ar    1  UNL1       -0.0183
     22 C          -3.3571    5.5474   24.3374 C.ar    1  UNL1       -0.0017
     23 C          -4.7315    6.0989   24.5755 C.ar    1  UNL1        0.0293
     24 C          -5.9389    5.2797   24.2277 C.ar    1  UNL1        0.1401
     25 F          -7.3135    5.8312   24.4658 F       1  UNL1       -0.2042
     26 C          -5.7719    3.9090   23.6417 C.ar    1  UNL1        0.0293
     27 C          -4.3975    3.3575   23.4035 C.ar    1  UNL1       -0.0017
     28 C          -1.1187    2.8548   24.5955 C.ar    1  UNL1       -0.0183
     29 C          -1.6411    2.8962   26.0009 C.ar    1  UNL1       -0.0017
     30 C          -0.9442    2.1258   27.0830 C.ar    1  UNL1        0.0293
     31 C           0.2750    1.3142   26.7596 C.ar    1  UNL1        0.1401
     32 F           0.9719    0.5439   27.8417 F       1  UNL1       -0.2042
     33 C           0.7975    1.2729   25.3541 C.ar    1  UNL1        0.0293
     34 C           0.1006    2.0432   24.2721 C.ar    1  UNL1       -0.0017
@<TRIPOS>BOND
     1     8     9    2
     2     9    10    1
     3    10    11    2
     4    11    12    1
     5    12    13    1
     6    13    14    2
     7    14    15    1
     8    15    16    2
     9    16    17    1
    10    17     2    1
    11     2     3    1
    12     3     4    1
    13     4     5    1
    14     5     1    1
    15     1    18    1
    16    18    19    1
    17    19    20    1
    18    20    21    1
    19    21    22   ar
    20    22    23   ar
    21    23    24   ar
    22    24    25    1
    23    24    26   ar
    24    26    27   ar
    25    20    28    1
    26    28    29   ar
    27    29    30   ar
    28    30    31   ar
    29    31    32    1
    30    31    33   ar
    31    33    34   ar
    32     5     6    1
    33     6     7    1
    34    17     9   am
    35     7     2    1
    36    16    11    1
    37    27    21   ar
    38    34    28   ar
@<TRIPOS>MOLECULE
*****
 34 38 0 0 0
SMALL
GASTEIGER

@<TRIPOS>ATOM
      1 C           3.1723    0.4351   17.8271 C.3     1  UNL1        0.0721
      2 C          -0.1212    2.3403   20.2298 C.3     1  UNL1        0.0841
      3 C           0.7981    3.1944   19.4081 C.3     1  UNL1        0.0376
      4 C           1.8959    2.5593   18.6072 C.3     1  UNL1        0.0738
      5 N           2.0744    1.0702   18.6280 N.3     1  UNL1       -0.2726
      6 C           1.1551    0.2160   19.4497 C.3     1  UNL1        0.0738
      7 C           0.0573    0.8510   20.2507 C.3     1  UNL1        0.0376
      8 O          -2.7707    3.8140   19.0222 O.2     1  UNL1       -0.2501
      9 C          -2.4369    3.6527   20.4757 C.2     1  UNL1        0.3309
     10 N          -3.2623    4.1405   21.6293 N.am    1  UNL1       -0.1647
     11 C          -2.5546    3.7645   22.8973 C.2     1  UNL1        0.0706
     12 C          -2.8969    3.9849   24.3410 C.3     1  UNL1        0.0705
     13 C          -1.9765    3.4852   25.4147 C.2     1  UNL1       -0.0199
     14 C          -0.7137    2.7651   25.0448 C.2     1  UNL1       -0.0029
     15 C          -0.3714    2.5447   23.6012 C.2     1  UNL1        0.0156
     16 C          -1.2918    3.0444   22.5274 C.2     1  UNL1        0.0668
     17 N          -1.2191    2.9753   21.0308 N.am    1  UNL1       -0.2423
     18 C           4.5906    0.5062   18.3102 C.3     1  UNL1        0.0180
     19 C           4.8802    0.5558   19.7811 C.3     1  UNL1        0.0102
     20 C           4.4644   -0.5817   20.6661 C.3     1  UNL1        0.0446
     21 C           3.9493   -0.3074   22.0479 C.ar    1  UNL1       -0.0183
     22 C           3.9599   -1.3942   23.0818 C.ar    1  UNL1       -0.0017
     23 C           3.4448   -1.1199   24.4636 C.ar    1  UNL1        0.0293
     24 C           2.9191    0.2412   24.8115 C.ar    1  UNL1        0.1401
     25 F           2.4040    0.5156   26.1933 F       1  UNL1       -0.2042
     26 C           2.9085    1.3279   23.7776 C.ar    1  UNL1        0.0293
     27 C           3.4236    1.0536   22.3958 C.ar    1  UNL1       -0.0017
     28 C           4.5637   -1.9937   20.1692 C.ar    1  UNL1       -0.0183
     29 C           3.3401   -2.6985   19.6633 C.ar    1  UNL1       -0.0017
     30 C           3.4394   -4.1103   19.1665 C.ar    1  UNL1        0.0293
     31 C           4.7623   -4.8173   19.1755 C.ar    1  UNL1        0.1401
     32 F           4.8616   -6.2291   18.6787 F       1  UNL1       -0.2042
     33 C           5.9860   -4.1124   19.6814 C.ar    1  UNL1        0.0293
     34 C           5.8866   -2.7006   20.1783 C.ar    1  UNL1       -0.0017
@<TRIPOS>BOND
     1     8     9    2
     2     9    10    1
     3    10    11    2
     4    11    12    1
     5    12    13    1
     6    13    14    2
     7    14    15    1
     8    15    16    2
     9    16    17    1
    10    17     2    1
    11     2     3    1
    12     3     4    1
    13     4     5    1
    14     5     1    1
    15     1    18    1
    16    18    19    1
    17    19    20    1
    18    20    21    1
    19    21    22   ar
    20    22    23   ar
    21    23    24   ar
    22    24    25    1
    23    24    26   ar
    24    26    27   ar
    25    20    28    1
    26    28    29   ar
    27    29    30   ar
    28    30    31   ar
    29    31    32    1
    30    31    33   ar
    31    33    34   ar
    32     5     6    1
    33     6     7    1
    34    17     9   am
    35     7     2    1
    36    16    11    1
    37    27    21   ar
    38    34    28   ar
@<TRIPOS>MOLECULE
*****
 34 38 0 0 0
SMALL
GASTEIGER

@<TRIPOS>ATOM
      1 C           4.8704    0.9832   23.2379 C.3     1  UNL1        0.0721
      2 C           6.4141   -2.9276   24.8420 C.3     1  UNL1        0.0841
      3 C           5.0511   -2.8578   24.2198 C.3     1  UNL1        0.0376
      4 C           4.5365   -1.5542   23.6851 C.3     1  UNL1        0.0738
      5 N           5.3850   -0.3204   23.7726 N.3     1  UNL1       -0.2726
      6 C           6.7481   -0.3901   24.3948 C.3     1  UNL1        0.0738
      7 C           7.2627   -1.6937   24.9295 C.3     1  UNL1        0.0376
      8 O           6.0493   -4.0276   27.8927 O.2     1  UNL1       -0.2501
      9 C           6.7610   -4.7368   26.7789 C.2     1  UNL1        0.3309
     10 N           7.4300   -6.0761   26.8718 N.am    1  UNL1       -0.1647
     11 C           8.0112   -6.3983   25.5270 C.2     1  UNL1        0.0706
     12 C           8.7824   -7.5826   25.0245 C.3     1  UNL1        0.0705
     13 C           9.2438   -7.6266   23.5979 C.2     1  UNL1       -0.0199
     14 C           8.9340   -6.4864   22.6739 C.2     1  UNL1       -0.0029
     15 C           8.1628   -5.3021   23.1764 C.2     1  UNL1        0.0156
     16 C           7.7013   -5.2580   24.6029 C.2     1  UNL1        0.0668
     17 N           6.9287   -4.2312   25.3766 N.am    1  UNL1       -0.2423
     18 C           5.2968    1.4577   21.8804 C.3     1  UNL1        0.0180
     19 C           5.4014    0.4838   20.7442 C.3     1  UNL1        0.0102
     20 C           4.2055   -0.3248   20.3371 C.3     1  UNL1        0.0446
     21 C           4.3688   -1.7670   19.9584 C.ar    1  UNL1       -0.0183
     22 C           5.7040   -2.4345   20.1058 C.ar    1  UNL1       -0.0017
     23 C           5.8674   -3.8767   19.7271 C.ar    1  UNL1        0.0293
     24 C           4.6955   -4.6513   19.2009 C.ar    1  UNL1        0.1401
     25 F           4.8588   -6.0935   18.8222 F       1  UNL1       -0.2042
     26 C           3.3604   -3.9837   19.0535 C.ar    1  UNL1        0.0293
     27 C           3.1970   -2.5415   19.4323 C.ar    1  UNL1       -0.0017
     28 C           2.8461    0.3088   20.3086 C.ar    1  UNL1       -0.0183
     29 C           2.4374    1.1551   19.1395 C.ar    1  UNL1       -0.0017
     30 C           1.0780    1.7886   19.1111 C.ar    1  UNL1        0.0293
     31 C           0.1274    1.5758   20.2517 C.ar    1  UNL1        0.1401
     32 F          -1.2319    2.2094   20.2232 F       1  UNL1       -0.2042
     33 C           0.5361    0.7296   21.4208 C.ar    1  UNL1        0.0293
     34 C           1.8954    0.0961   21.4492 C.ar    1  UNL1       -0.0017
@<TRIPOS>BOND
     1     8     9    2
     2     9    10    1
     3    10    11    2
     4    11    12    1
     5    12    13    1
     6    13    14    2
     7    14    15    1
     8    15    16    2
     9    16    17    1
    10    17     2    1
    11     2     3    1
    12     3     4    1
    13     4     5    1
    14     5     1    1
    15     1    18    1
    16    18    19    1
    17    19    20    1
    18    20    21    1
    19    21    22   ar
    20    22    23   ar
    21    23    24   ar
    22    24    25    1
    23    24    26   ar
    24    26    27   ar
    25    20    28    1
    26    28    29   ar
    27    29    30   ar
    28    30    31   ar
    29    31    32    1
    30    31    33   ar
    31    33    34   ar
    32     5     6    1
    33     6     7    1
    34    17     9   am
    35     7     2    1
    36    16    11    1
    37    27    21   ar
    38    34    28   ar
@<TRIPOS>MOLECULE
*****
 34 38 0 0 0
SMALL
GASTEIGER

@<TRIPOS>ATOM
      1 C          -0.6896    2.6940   20.0846 C.3     1  UNL1        0.0721
      2 C           2.6321   -0.2311   19.2717 C.3     1  UNL1        0.0841
      3 C           1.4161   -0.6696   20.0324 C.3     1  UNL1        0.0376
      4 C           0.3088    0.3054   20.3034 C.3     1  UNL1        0.0738
      5 N           0.4176    1.7190   19.8136 N.3     1  UNL1       -0.2726
      6 C           1.6337    2.1576   19.0528 C.3     1  UNL1        0.0738
      7 C           2.7410    1.1826   18.7818 C.3     1  UNL1        0.0376
      8 O           3.8360   -0.9994   16.3374 O.2     1  UNL1       -0.2501
      9 C           4.2927   -1.5592   17.6519 C.2     1  UNL1        0.3309
     10 N           5.3830   -2.5704   17.8486 N.am    1  UNL1       -0.1647
     11 C           5.5034   -2.8423   19.3188 C.2     1  UNL1        0.0706
     12 C           6.4068   -3.7487   20.1012 C.3     1  UNL1        0.0705
     13 C           6.2944   -3.8119   21.5956 C.2     1  UNL1       -0.0199
     14 C           5.2785   -2.9686   22.3077 C.2     1  UNL1       -0.0029
     15 C           4.3751   -2.0622   21.5253 C.2     1  UNL1        0.0156
     16 C           4.4876   -1.9990   20.0309 C.2     1  UNL1        0.0668
     17 N           3.7393   -1.2060   19.0007 N.am    1  UNL1       -0.2423
     18 C          -0.6468    3.5554   21.3118 C.3     1  UNL1        0.0180
     19 C          -0.7470    2.9295   22.6713 C.3     1  UNL1        0.0102
     20 C           0.4797    2.7835   23.5220 C.3     1  UNL1        0.0446
     21 C           0.3469    2.6075   25.0057 C.ar    1  UNL1       -0.0183
     22 C          -0.1056    1.2924   25.5675 C.ar    1  UNL1       -0.0017
     23 C          -0.2384    1.1164   27.0512 C.ar    1  UNL1        0.0293
     24 C           0.0814    2.2556   27.9731 C.ar    1  UNL1        0.1401
     25 F          -0.0514    2.0797   29.4568 F       1  UNL1       -0.2042
     26 C           0.5339    3.5707   27.4113 C.ar    1  UNL1        0.0293
     27 C           0.6667    3.7467   25.9276 C.ar    1  UNL1       -0.0017
     28 C           1.8394    2.8135   22.8890 C.ar    1  UNL1       -0.0183
     29 C           2.6608    1.5605   22.8167 C.ar    1  UNL1       -0.0017
     30 C           4.0203    1.5906   22.1837 C.ar    1  UNL1        0.0293
     31 C           4.5585    2.8736   21.6230 C.ar    1  UNL1        0.1401
     32 F           5.9180    2.9036   20.9901 F       1  UNL1       -0.2042
     33 C           3.7370    4.1266   21.6954 C.ar    1  UNL1        0.0293
     34 C           2.3775    4.0965   22.3284 C.ar    1  UNL1       -0.0017
@<TRIPOS>BOND
     1     8     9    2
     2     9    10    1
     3    10    11    2
     4    11    12    1
     5    12    13    1
     6    13    14    2
     7    14    15    1
     8    15    16    2
     9    16    17    1
    10    17     2    1
    11     2     3    1
    12     3     4    1
    13     4     5    1
    14     5     1    1
    15     1    18    1
    16    18    19    1
    17    19    20    1
    18    20    21    1
    19    21    22   ar
    20    22    23   ar
    21    23    24   ar
    22    24    25    1
    23    24    26   ar
    24    26    27   ar
    25    20    28    1
    26    28    29   ar
    27    29    30   ar
    28    30    31   ar
    29    31    32    1
    30    31    33   ar
    31    33    34   ar
    32     5     6    1
    33     6     7    1
    34    17     9   am
    35     7     2    1
    36    16    11    1
    37    27    21   ar
    38    34    28   ar
@<TRIPOS>MOLECULE
*****
 34 38 0 0 0
SMALL
GASTEIGER

@<TRIPOS>ATOM
      1 C          -0.7844    2.5430   20.1507 C.3     1  UNL1        0.0721
      2 C           2.6062   -0.2857   19.2830 C.3     1  UNL1        0.0841
      3 C           1.4351   -0.7465   20.0990 C.3     1  UNL1        0.0376
      4 C           0.3049    0.1963   20.3883 C.3     1  UNL1        0.0738
      5 N           0.3458    1.6002   19.8614 N.3     1  UNL1       -0.2726
      6 C           1.5169    2.0611   19.0453 C.3     1  UNL1        0.0738
      7 C           2.6471    1.1182   18.7560 C.3     1  UNL1        0.0376
      8 O           3.8044   -0.9956   16.3317 O.2     1  UNL1       -0.2501
      9 C           4.2871   -1.5548   17.6372 C.2     1  UNL1        0.3309
     10 N           5.4054   -2.5386   17.8154 N.am    1  UNL1       -0.1647
     11 C           5.5457   -2.8203   19.2820 C.2     1  UNL1        0.0706
     12 C           6.4795   -3.7094   20.0484 C.3     1  UNL1        0.0705
     13 C           6.3818   -3.7889   21.5431 C.2     1  UNL1       -0.0199
     14 C           5.3502   -2.9792   22.2713 C.2     1  UNL1       -0.0029
     15 C           4.4165   -2.0901   21.5049 C.2     1  UNL1        0.0156
     16 C           4.5142   -2.0106   20.0103 C.2     1  UNL1        0.0668
     17 N           3.7364   -1.2285   18.9937 N.am    1  UNL1       -0.2423
     18 C          -0.6592    3.5464   21.2586 C.3     1  UNL1        0.0180
     19 C          -0.7922    3.1073   22.6867 C.3     1  UNL1        0.0102
     20 C           0.4346    2.8911   23.5222 C.3     1  UNL1        0.0446
     21 C           1.7894    2.8876   22.8783 C.ar    1  UNL1       -0.0183
     22 C           2.3551    4.1573   22.3145 C.ar    1  UNL1       -0.0017
     23 C           3.7099    4.1538   21.6707 C.ar    1  UNL1        0.0293
     24 C           4.4990    2.8807   21.5907 C.ar    1  UNL1        0.1401
     25 F           5.8538    2.8771   20.9469 F       1  UNL1       -0.2042
     26 C           3.9333    1.6110   22.1546 C.ar    1  UNL1        0.0293
     27 C           2.5785    1.6144   22.7984 C.ar    1  UNL1       -0.0017
     28 C           0.3067    2.6783   25.0015 C.ar    1  UNL1       -0.0183
     29 C           0.6375    3.7916   25.9508 C.ar    1  UNL1       -0.0017
     30 C           0.5096    3.5788   27.4300 C.ar    1  UNL1        0.0293
     31 C           0.0509    2.2527   27.9601 C.ar    1  UNL1        0.1401
     32 F          -0.0770    2.0399   29.4394 F       1  UNL1       -0.2042
     33 C          -0.2799    1.1393   27.0109 C.ar    1  UNL1        0.0293
     34 C          -0.1520    1.3522   25.5316 C.ar    1  UNL1       -0.0017
@<TRIPOS>BOND
     1     8     9    2
     2     9    10    1
     3    10    11    2
     4    11    12    1
     5    12    13    1
     6    13    14    2
     7    14    15    1
     8    15    16    2
     9    16    17    1
    10    17     2    1
    11     2     3    1
    12     3     4    1
    13     4     5    1
    14     5     1    1
    15     1    18    1
    16    18    19    1
    17    19    20    1
    18    20    21    1
    19    21    22   ar
    20    22    23   ar
    21    23    24   ar
    22    24    25    1
    23    24    26   ar
    24    26    27   ar
    25    20    28    1
    26    28    29   ar
    27    29    30   ar
    28    30    31   ar
    29    31    32    1
    30    31    33   ar
    31    33    34   ar
    32     5     6    1
    33     6     7    1
    34    17     9   am
    35     7     2    1
    36    16    11    1
    37    27    21   ar
    38    34    28   ar
