@<TRIPOS>MOLECULE
*****
 30 32 0 0 0
SMALL
GASTEIGER

@<TRIPOS>ATOM
      1 C          -6.8484  -16.3815   23.2212 C.3     1  UNL1        0.1020
      2 C          -7.7836  -15.5898   24.0864 C.3     1  UNL1        0.1697
      3 O          -7.6683  -14.0953   24.1438 O.3     1  UNL1       -0.3793
      4 H          -6.9445  -13.8044   23.5672 H       1  UNL1        0.2106
      5 C          -8.8340  -16.2925   24.8943 C.3     1  UNL1        0.2358
      6 O         -10.2187  -16.4584   24.3421 O.3     1  UNL1       -0.4714
      7 C         -10.5075  -17.5530   23.3578 C.ar    1  UNL1        0.1552
      8 C         -10.3838  -18.9885   23.7748 C.ar    1  UNL1        0.0383
      9 C         -10.6726  -20.0829   22.7906 C.ar    1  UNL1        0.0045
     10 C         -11.0851  -19.7419   21.3894 C.ar    1  UNL1        0.0182
     11 C         -11.2089  -18.3064   20.9723 C.ar    1  UNL1        0.0933
     12 N         -11.5926  -17.6690   19.6698 N.am    1  UNL1       -0.1593
     13 C         -11.5409  -16.1806   19.8490 C.2     1  UNL1        0.3479
     14 O         -11.8506  -15.1549   18.7992 O.2     1  UNL1       -0.2484
     15 N         -11.1253  -15.8981   21.2623 N.am    1  UNL1       -0.1563
     16 C         -10.9201  -17.2119   21.9566 C.ar    1  UNL1        0.1241
     17 N          -7.3936  -17.3949   22.2590 N.3     1  UNL1       -0.2972
     18 H          -8.2180  -17.8044   22.6983 H       1  UNL1        0.1233
     19 C          -6.5330  -18.5363   21.8044 C.3     1  UNL1        0.0461
     20 C          -7.5632  -18.9042   20.7780 C.3     1  UNL1        0.0161
     21 C          -5.5029  -18.1684   22.8307 C.3     1  UNL1        0.0161
     22 C          -5.6725  -19.6777   21.3498 C.3     1  UNL1        0.0408
     23 C          -1.4363  -18.9174   20.0355 C.ar    1  UNL1        0.1387
     24 C          -2.5766  -18.5916   19.1169 C.ar    1  UNL1        0.0366
     25 C          -3.9886  -18.8450   19.5550 C.ar    1  UNL1       -0.0011
     26 C          -4.2604  -19.4243   20.9117 C.ar    1  UNL1       -0.0207
     27 C          -3.1203  -19.7500   21.8303 C.ar    1  UNL1       -0.0011
     28 C          -1.7082  -19.4966   21.3922 C.ar    1  UNL1        0.0366
     29 C           0.6968  -17.4345   20.0649 C.3     1  UNL1        0.2525
     30 O          -0.0243  -18.6639   19.5974 O.3     1  UNL1       -0.4714
@<TRIPOS>BOND
     1    29    30    1
     2    30    23    1
     3    23    24   ar
     4    24    25   ar
     5    25    26   ar
     6    26    22    1
     7    22    19    1
     8    19    20    1
     9    19    21    1
    10    19    17    1
    11    17     1    1
    12     1     2    1
    13     2     3    1
    14     2     5    1
    15     5     6    1
    16     6     7    1
    17     7     8   ar
    18     8     9   ar
    19     9    10   ar
    20    10    11   ar
    21    11    12    2
    22    12    13    1
    23    13    14    2
    24    13    15    1
    25    15    16    2
    26    26    27   ar
    27    27    28   ar
    28    28    23   ar
    29    16     7   ar
    30    16    11   ar
    31    17    18    1
    32     3     4    1
@<TRIPOS>MOLECULE
*****
 30 32 0 0 0
SMALL
GASTEIGER

@<TRIPOS>ATOM
      1 C          -8.6349  -19.6450   19.4186 C.3     1  UNL1        0.1020
      2 C          -7.2857  -19.4503   20.0443 C.3     1  UNL1        0.1697
      3 O          -6.6490  -18.0921   20.0467 O.3     1  UNL1       -0.3793
      4 H          -7.2376  -17.4584   19.6075 H       1  UNL1        0.2106
      5 C          -6.5731  -20.6137   20.6677 C.3     1  UNL1        0.2358
      6 O          -5.0741  -20.6691   20.6555 O.3     1  UNL1       -0.4714
      7 C          -4.2772  -19.5449   21.2481 C.ar    1  UNL1        0.1552
      8 C          -4.5020  -19.1363   22.6737 C.ar    1  UNL1        0.0383
      9 C          -3.7051  -18.0121   23.2662 C.ar    1  UNL1        0.0045
     10 C          -2.6834  -17.2965   22.4331 C.ar    1  UNL1        0.0182
     11 C          -2.4586  -17.7052   21.0075 C.ar    1  UNL1        0.0933
     12 N          -1.5279  -17.1893   19.9503 N.am    1  UNL1       -0.1593
     13 C          -1.7496  -17.9947   18.7044 C.2     1  UNL1        0.3479
     14 O          -1.0298  -17.8175   17.4002 O.2     1  UNL1       -0.2484
     15 N          -2.8173  -19.0083   18.9915 N.am    1  UNL1       -0.1563
     16 C          -3.2555  -18.8294   20.4149 C.ar    1  UNL1        0.1241
     17 N          -9.8445  -19.8296   20.2864 N.3     1  UNL1       -0.2972
     18 H         -10.6388  -19.9614   19.6602 H       1  UNL1        0.1233
     19 C         -10.2363  -18.7614   21.2638 C.3     1  UNL1        0.0461
     20 C         -10.6748  -17.8838   20.1291 C.3     1  UNL1        0.0161
     21 C          -9.7979  -19.6389   22.3986 C.3     1  UNL1        0.0161
     22 C         -10.6281  -17.6932   22.2413 C.3     1  UNL1        0.0408
     23 C          -7.4545  -15.3892   24.4483 C.ar    1  UNL1        0.1387
     24 C          -8.4960  -16.1517   25.2125 C.ar    1  UNL1        0.0366
     25 C          -9.5538  -16.9197   24.4769 C.ar    1  UNL1       -0.0011
     26 C          -9.5702  -16.9252   22.9770 C.ar    1  UNL1       -0.0207
     27 C          -8.5288  -16.1627   22.2127 C.ar    1  UNL1       -0.0011
     28 C          -7.4709  -15.3947   22.9484 C.ar    1  UNL1        0.0366
     29 C          -5.4542  -15.3373   26.1054 C.3     1  UNL1        0.2525
     30 O          -6.3967  -14.6213   25.1840 O.3     1  UNL1       -0.4714
@<TRIPOS>BOND
     1    29    30    1
     2    30    23    1
     3    23    24   ar
     4    24    25   ar
     5    25    26   ar
     6    26    22    1
     7    22    19    1
     8    19    20    1
     9    19    21    1
    10    19    17    1
    11    17     1    1
    12     1     2    1
    13     2     3    1
    14     2     5    1
    15     5     6    1
    16     6     7    1
    17     7     8   ar
    18     8     9   ar
    19     9    10   ar
    20    10    11   ar
    21    11    12    2
    22    12    13    1
    23    13    14    2
    24    13    15    1
    25    15    16    2
    26    26    27   ar
    27    27    28   ar
    28    28    23   ar
    29    16     7   ar
    30    16    11   ar
    31    17    18    1
    32     3     4    1
@<TRIPOS>MOLECULE
*****
 30 32 0 0 0
SMALL
GASTEIGER

@<TRIPOS>ATOM
      1 C          -5.3995  -15.3532   25.4273 C.3     1  UNL1        0.1020
      2 C          -4.9387  -15.6566   24.0324 C.3     1  UNL1        0.1697
      3 O          -4.8438  -14.5559   23.0178 O.3     1  UNL1       -0.3793
      4 H          -5.1143  -13.7176   23.4239 H       1  UNL1        0.2106
      5 C          -4.5729  -17.0607   23.6522 C.3     1  UNL1        0.2358
      6 O          -3.1478  -17.4047   23.3346 O.3     1  UNL1       -0.4714
      7 C          -2.7431  -17.6917   21.9190 C.ar    1  UNL1        0.1552
      8 C          -1.6431  -16.8987   21.2779 C.ar    1  UNL1        0.0383
      9 C          -1.2385  -17.1857   19.8624 C.ar    1  UNL1        0.0045
     10 C          -1.9339  -18.2658   19.0879 C.ar    1  UNL1        0.0182
     11 C          -3.0339  -19.0588   19.7289 C.ar    1  UNL1        0.0933
     12 N          -3.8947  -20.1760   19.2182 N.am    1  UNL1       -0.1593
     13 C          -4.8314  -20.5794   20.3182 C.2     1  UNL1        0.3479
     14 O          -5.8681  -21.6609   20.2411 O.2     1  UNL1       -0.2484
     15 N          -4.5495  -19.7116   21.5087 N.am    1  UNL1       -0.1563
     16 C          -3.4385  -18.7717   21.1445 C.ar    1  UNL1        0.1241
     17 N          -6.7297  -14.6971   25.6517 N.3     1  UNL1       -0.2972
     18 H          -6.7700  -14.4433   26.6388 H       1  UNL1        0.1233
     19 C          -7.9947  -15.4421   25.3440 C.3     1  UNL1        0.0461
     20 C          -7.8574  -16.2055   26.6279 C.3     1  UNL1        0.0161
     21 C          -8.1320  -14.6787   24.0601 C.3     1  UNL1        0.0161
     22 C          -9.2598  -16.1870   25.0363 C.3     1  UNL1        0.0408
     23 C          -9.6632  -18.4298   21.1559 C.ar    1  UNL1        0.1387
     24 C         -10.8287  -17.6589   21.7013 C.ar    1  UNL1        0.0366
     25 C         -10.6942  -16.9113   22.9948 C.ar    1  UNL1       -0.0011
     26 C          -9.3943  -16.9346   23.7428 C.ar    1  UNL1       -0.0207
     27 C          -8.2288  -17.7055   23.1975 C.ar    1  UNL1       -0.0011
     28 C          -8.3633  -18.4531   21.9040 C.ar    1  UNL1        0.0366
     29 C          -8.5723  -19.6545   19.1411 C.3     1  UNL1        0.2525
     30 O          -9.7978  -19.1774   19.8625 O.3     1  UNL1       -0.4714
@<TRIPOS>BOND
     1    29    30    1
     2    30    23    1
     3    23    24   ar
     4    24    25   ar
     5    25    26   ar
     6    26    22    1
     7    22    19    1
     8    19    20    1
     9    19    21    1
    10    19    17    1
    11    17     1    1
    12     1     2    1
    13     2     3    1
    14     2     5    1
    15     5     6    1
    16     6     7    1
    17     7     8   ar
    18     8     9   ar
    19     9    10   ar
    20    10    11   ar
    21    11    12    2
    22    12    13    1
    23    13    14    2
    24    13    15    1
    25    15    16    2
    26    26    27   ar
    27    27    28   ar
    28    28    23   ar
    29    16     7   ar
    30    16    11   ar
    31    17    18    1
    32     3     4    1
@<TRIPOS>MOLECULE
*****
 30 32 0 0 0
SMALL
GASTEIGER

@<TRIPOS>ATOM
      1 C         -10.0643  -18.9042   19.7030 C.3     1  UNL1        0.1020
      2 C          -8.9059  -19.7658   19.2959 C.3     1  UNL1        0.1697
      3 O          -8.9786  -20.5729   18.0336 O.3     1  UNL1       -0.3793
      4 H          -9.8354  -20.4243   17.6037 H       1  UNL1        0.2106
      5 C          -7.6748  -19.8204   20.1511 C.3     1  UNL1        0.2358
      6 O          -6.5715  -18.8259   19.9418 O.3     1  UNL1       -0.4714
      7 C          -5.2101  -19.0842   20.5163 C.ar    1  UNL1        0.1552
      8 C          -4.2725  -20.0309   19.8273 C.ar    1  UNL1        0.0383
      9 C          -2.9112  -20.2891   20.4018 C.ar    1  UNL1        0.0045
     10 C          -2.4874  -19.6005   21.6653 C.ar    1  UNL1        0.0182
     11 C          -3.4250  -18.6538   22.3542 C.ar    1  UNL1        0.0933
     12 N          -3.2864  -17.8357   23.6038 N.am    1  UNL1       -0.1593
     13 C          -4.5621  -17.0719   23.8016 C.2     1  UNL1        0.3479
     14 O          -4.8587  -16.1277   24.9289 O.2     1  UNL1       -0.2484
     15 N          -5.4891  -17.4179   22.6743 N.am    1  UNL1       -0.1563
     16 C          -4.7863  -18.3956   21.7797 C.ar    1  UNL1        0.1241
     17 N         -11.2047  -19.4972   20.4763 N.3     1  UNL1       -0.2972
     18 H         -12.0520  -19.3129   19.9391 H       1  UNL1        0.1233
     19 C         -11.4749  -19.0439   21.8804 C.3     1  UNL1        0.0461
     20 C         -10.6020  -20.1456   22.4041 C.3     1  UNL1        0.0161
     21 C         -12.3478  -17.9421   21.3566 C.3     1  UNL1        0.0161
     22 C         -11.7451  -18.5905   23.2844 C.3     1  UNL1        0.0408
     23 C          -8.6218  -16.2624   25.5373 C.ar    1  UNL1        0.1387
     24 C          -9.1619  -15.7338   24.2416 C.ar    1  UNL1        0.0366
     25 C         -10.2029  -16.5098   23.4907 C.ar    1  UNL1       -0.0011
     26 C         -10.7040  -17.8145   24.0354 C.ar    1  UNL1       -0.0207
     27 C         -10.1640  -18.3431   25.3311 C.ar    1  UNL1       -0.0011
     28 C          -9.1229  -17.5671   26.0821 C.ar    1  UNL1        0.0366
     29 C          -7.0044  -16.0387   27.5582 C.3     1  UNL1        0.2525
     30 O          -7.5807  -15.4864   26.2883 O.3     1  UNL1       -0.4714
@<TRIPOS>BOND
     1    29    30    1
     2    30    23    1
     3    23    24   ar
     4    24    25   ar
     5    25    26   ar
     6    26    22    1
     7    22    19    1
     8    19    20    1
     9    19    21    1
    10    19    17    1
    11    17     1    1
    12     1     2    1
    13     2     3    1
    14     2     5    1
    15     5     6    1
    16     6     7    1
    17     7     8   ar
    18     8     9   ar
    19     9    10   ar
    20    10    11   ar
    21    11    12    2
    22    12    13    1
    23    13    14    2
    24    13    15    1
    25    15    16    2
    26    26    27   ar
    27    27    28   ar
    28    28    23   ar
    29    16     7   ar
    30    16    11   ar
    31    17    18    1
    32     3     4    1
@<TRIPOS>MOLECULE
*****
 30 32 0 0 0
SMALL
GASTEIGER

@<TRIPOS>ATOM
      1 C          -5.3497  -15.7851   25.9651 C.3     1  UNL1        0.1020
      2 C          -4.5583  -16.7867   25.1774 C.3     1  UNL1        0.1697
      3 O          -3.7545  -17.8344   25.8891 O.3     1  UNL1       -0.3793
      4 H          -3.8555  -17.7238   26.8475 H       1  UNL1        0.2106
      5 C          -4.5707  -16.7408   23.6782 C.3     1  UNL1        0.2358
      6 O          -5.5456  -17.5831   22.9101 O.3     1  UNL1       -0.4714
      7 C          -5.0467  -18.5869   21.9132 C.ar    1  UNL1        0.1552
      8 C          -5.8667  -19.8029   21.5988 C.ar    1  UNL1        0.0383
      9 C          -5.3679  -20.8066   20.6020 C.ar    1  UNL1        0.0045
     10 C          -4.0490  -20.5944   19.9196 C.ar    1  UNL1        0.0182
     11 C          -3.2290  -19.3784   20.2341 C.ar    1  UNL1        0.0933
     12 N          -1.9005  -18.9042   19.7241 N.am    1  UNL1       -0.1593
     13 C          -1.5782  -17.6075   20.4057 C.2     1  UNL1        0.3479
     14 O          -0.3433  -16.7828   20.1932 O.2     1  UNL1       -0.2484
     15 N          -2.7076  -17.2801   21.3369 N.am    1  UNL1       -0.1563
     16 C          -3.7279  -18.3746   21.2309 C.ar    1  UNL1        0.1241
     17 N          -6.3178  -14.8772   25.2661 N.3     1  UNL1       -0.2972
     18 H          -6.3062  -13.9904   25.7699 H       1  UNL1        0.1233
     19 C          -7.7567  -15.2782   25.1285 C.3     1  UNL1        0.0461
     20 C          -7.7812  -15.6854   26.5720 C.3     1  UNL1        0.0161
     21 C          -7.7321  -14.8711   23.6850 C.3     1  UNL1        0.0161
     22 C          -9.1955  -15.6793   24.9909 C.3     1  UNL1        0.0408
     23 C         -10.4138  -18.6382   21.8269 C.ar    1  UNL1        0.1387
     24 C         -11.1570  -17.3430   21.9685 C.ar    1  UNL1        0.0366
     25 C         -10.7509  -16.3567   23.0232 C.ar    1  UNL1       -0.0011
     26 C          -9.6016  -16.6657   23.9362 C.ar    1  UNL1       -0.0207
     27 C          -8.8584  -17.9608   23.7946 C.ar    1  UNL1       -0.0011
     28 C          -9.2645  -18.9472   22.7399 C.ar    1  UNL1        0.0366
     29 C         -10.0824  -19.6731   19.4670 C.3     1  UNL1        0.2525
     30 O         -10.8199  -19.6245   20.7722 O.3     1  UNL1       -0.4714
@<TRIPOS>BOND
     1    29    30    1
     2    30    23    1
     3    23    24   ar
     4    24    25   ar
     5    25    26   ar
     6    26    22    1
     7    22    19    1
     8    19    20    1
     9    19    21    1
    10    19    17    1
    11    17     1    1
    12     1     2    1
    13     2     3    1
    14     2     5    1
    15     5     6    1
    16     6     7    1
    17     7     8   ar
    18     8     9   ar
    19     9    10   ar
    20    10    11   ar
    21    11    12    2
    22    12    13    1
    23    13    14    2
    24    13    15    1
    25    15    16    2
    26    26    27   ar
    27    27    28   ar
    28    28    23   ar
    29    16     7   ar
    30    16    11   ar
    31    17    18    1
    32     3     4    1
@<TRIPOS>MOLECULE
*****
 30 32 0 0 0
SMALL
GASTEIGER

@<TRIPOS>ATOM
      1 C          -9.8888  -19.1087   19.7517 C.3     1  UNL1        0.1020
      2 C          -8.7782  -19.9547   19.2033 C.3     1  UNL1        0.1697
      3 O          -8.9903  -20.7502   17.9494 O.3     1  UNL1       -0.3793
      4 H          -9.8926  -20.6061   17.6238 H       1  UNL1        0.2106
      5 C          -7.4554  -20.0052   19.9088 C.3     1  UNL1        0.2358
      6 O          -6.5265  -18.8292   19.8460 O.3     1  UNL1       -0.4714
      7 C          -5.7430  -18.4266   21.0602 C.ar    1  UNL1        0.1552
      8 C          -6.4575  -17.9449   22.2880 C.ar    1  UNL1        0.0383
      9 C          -5.6740  -17.5423   23.5021 C.ar    1  UNL1        0.0045
     10 C          -4.1762  -17.6214   23.4884 C.ar    1  UNL1        0.0182
     11 C          -3.4617  -18.1030   22.2606 C.ar    1  UNL1        0.0933
     12 N          -2.0049  -18.2865   21.9540 N.am    1  UNL1       -0.1593
     13 C          -1.8880  -18.8024   20.5504 C.2     1  UNL1        0.3479
     14 O          -0.6107  -19.1262   19.8336 O.2     1  UNL1       -0.2484
     15 N          -3.2725  -18.9379   19.9895 N.am    1  UNL1       -0.1563
     16 C          -4.2452  -18.5056   21.0465 C.ar    1  UNL1        0.1241
     17 N         -10.9522  -19.7300   20.6080 N.3     1  UNL1       -0.2972
     18 H         -11.8204  -19.6911   20.0740 H       1  UNL1        0.1233
     19 C         -11.2515  -19.1607   21.9631 C.3     1  UNL1        0.0461
     20 C         -10.3089  -20.1474   22.5859 C.3     1  UNL1        0.0161
     21 C         -12.1942  -18.1739   21.3403 C.3     1  UNL1        0.0161
     22 C         -11.5509  -18.5913   23.3182 C.3     1  UNL1        0.0408
     23 C          -8.4352  -16.1673   25.4785 C.ar    1  UNL1        0.1387
     24 C          -8.9610  -15.7024   24.1528 C.ar    1  UNL1        0.0366
     25 C          -9.9995  -16.5104   23.4327 C.ar    1  UNL1       -0.0011
     26 C         -10.5123  -17.7833   24.0383 C.ar    1  UNL1       -0.0207
     27 C          -9.9865  -18.2482   25.3640 C.ar    1  UNL1       -0.0011
     28 C          -8.9479  -17.4402   26.0841 C.ar    1  UNL1        0.0366
     29 C          -6.7233  -15.9181   27.4169 C.3     1  UNL1        0.2525
     30 O          -7.3966  -15.3592   26.1986 O.3     1  UNL1       -0.4714
@<TRIPOS>BOND
     1    29    30    1
     2    30    23    1
     3    23    24   ar
     4    24    25   ar
     5    25    26   ar
     6    26    22    1
     7    22    19    1
     8    19    20    1
     9    19    21    1
    10    19    17    1
    11    17     1    1
    12     1     2    1
    13     2     3    1
    14     2     5    1
    15     5     6    1
    16     6     7    1
    17     7     8   ar
    18     8     9   ar
    19     9    10   ar
    20    10    11   ar
    21    11    12    2
    22    12    13    1
    23    13    14    2
    24    13    15    1
    25    15    16    2
    26    26    27   ar
    27    27    28   ar
    28    28    23   ar
    29    16     7   ar
    30    16    11   ar
    31    17    18    1
    32     3     4    1
@<TRIPOS>MOLECULE
*****
 30 32 0 0 0
SMALL
GASTEIGER

@<TRIPOS>ATOM
      1 C           6.6429   -3.6547   21.7126 C.3     1  UNL1        0.1020
      2 C           5.6634   -3.6489   22.8486 C.3     1  UNL1        0.1697
      3 O           4.1984   -3.8218   22.5766 O.3     1  UNL1       -0.3793
      4 H           4.0566   -3.9241   21.6225 H       1  UNL1        0.2106
      5 C           6.1488   -3.4701   24.2566 C.3     1  UNL1        0.2358
      6 O           7.5722   -3.7896   24.6055 O.3     1  UNL1       -0.4714
      7 C           7.9615   -5.1957   24.9538 C.ar    1  UNL1        0.1552
      8 C           8.4897   -6.1129   23.8908 C.ar    1  UNL1        0.0383
      9 C           8.8790   -7.5189   24.2392 C.ar    1  UNL1        0.0045
     10 C           8.7401   -8.0079   25.6505 C.ar    1  UNL1        0.0182
     11 C           8.2120   -7.0907   26.7134 C.ar    1  UNL1        0.0933
     12 N           7.9660   -7.2900   28.1796 N.am    1  UNL1       -0.1593
     13 C           7.4247   -6.0072   28.7374 C.2     1  UNL1        0.3479
     14 O           7.0395   -5.7599   30.1660 O.2     1  UNL1       -0.2484
     15 N           7.3361   -5.0149   27.6160 N.am    1  UNL1       -0.1563
     16 C           7.8227   -5.6847   26.3650 C.ar    1  UNL1        0.1241
     17 N           6.3047   -4.3630   20.4343 N.3     1  UNL1       -0.2972
     18 H           7.1823   -4.7146   20.0514 H       1  UNL1        0.1233
     19 C           5.6147   -3.6231   19.3269 C.3     1  UNL1        0.0461
     20 C           4.6909   -4.7875   19.1246 C.3     1  UNL1        0.0161
     21 C           6.5384   -2.4587   19.5292 C.3     1  UNL1        0.0161
     22 C           4.9246   -2.8832   18.2195 C.3     1  UNL1        0.0408
     23 C           1.9392    0.3420   19.1870 C.ar    1  UNL1        0.1387
     24 C           2.8213    0.4738   17.9809 C.ar    1  UNL1        0.0366
     25 C           3.8164   -0.6013   17.6584 C.ar    1  UNL1       -0.0011
     26 C           3.9294   -1.8081   18.5420 C.ar    1  UNL1       -0.0207
     27 C           3.0474   -1.9400   19.7480 C.ar    1  UNL1       -0.0011
     28 C           2.0522   -0.8649   20.0705 C.ar    1  UNL1        0.0366
     29 C          -0.0375    1.2199   20.6264 C.3     1  UNL1        0.2525
     30 O           0.9441    1.4171   19.5094 O.3     1  UNL1       -0.4714
@<TRIPOS>BOND
     1    29    30    1
     2    30    23    1
     3    23    24   ar
     4    24    25   ar
     5    25    26   ar
     6    26    22    1
     7    22    19    1
     8    19    20    1
     9    19    21    1
    10    19    17    1
    11    17     1    1
    12     1     2    1
    13     2     3    1
    14     2     5    1
    15     5     6    1
    16     6     7    1
    17     7     8   ar
    18     8     9   ar
    19     9    10   ar
    20    10    11   ar
    21    11    12    2
    22    12    13    1
    23    13    14    2
    24    13    15    1
    25    15    16    2
    26    26    27   ar
    27    27    28   ar
    28    28    23   ar
    29    16     7   ar
    30    16    11   ar
    31    17    18    1
    32     3     4    1
@<TRIPOS>MOLECULE
*****
 30 32 0 0 0
SMALL
GASTEIGER

@<TRIPOS>ATOM
      1 C           4.0160    0.6328   18.3924 C.3     1  UNL1        0.1020
      2 C           4.6646   -0.1628   17.2986 C.3     1  UNL1        0.1697
      3 O           3.8273   -1.0239   16.3999 O.3     1  UNL1       -0.3793
      4 H           2.8956   -0.9525   16.6599 H       1  UNL1        0.2106
      5 C           6.1504   -0.0972   17.1034 C.3     1  UNL1        0.2358
      6 O           6.9728   -1.3494   17.1795 O.3     1  UNL1       -0.4714
      7 C           7.1623   -2.0433   18.4959 C.ar    1  UNL1        0.1552
      8 C           8.4131   -1.8141   19.2913 C.ar    1  UNL1        0.0383
      9 C           8.6026   -2.5080   20.6076 C.ar    1  UNL1        0.0045
     10 C           7.5412   -3.4312   21.1283 C.ar    1  UNL1        0.0182
     11 C           6.2904   -3.6605   20.3328 C.ar    1  UNL1        0.0933
     12 N           5.0793   -4.5077   20.5887 N.am    1  UNL1       -0.1593
     13 C           4.1414   -4.3374   19.4305 C.2     1  UNL1        0.3479
     14 O           2.8064   -5.0029   19.2719 O.2     1  UNL1       -0.2484
     15 N           4.7727   -3.3849   18.4589 N.am    1  UNL1       -0.1563
     16 C           6.1009   -2.9666   19.0166 C.ar    1  UNL1        0.1241
     17 N           2.5874    0.3687   18.7659 N.3     1  UNL1       -0.2972
     18 H           2.0296    1.1073   18.3371 H       1  UNL1        0.1233
     19 C           2.1888    0.3084   20.2107 C.3     1  UNL1        0.0461
     20 C           3.1047    1.4577   20.5113 C.3     1  UNL1        0.0161
     21 C           1.2729   -0.8408   19.9100 C.3     1  UNL1        0.0161
     22 C           1.7902    0.2481   21.6555 C.3     1  UNL1        0.0408
     23 C           4.5370   -1.6541   24.6699 C.ar    1  UNL1        0.1387
     24 C           3.6557   -0.5100   25.0753 C.ar    1  UNL1        0.0366
     25 C           2.7401    0.1241   24.0705 C.ar    1  UNL1       -0.0011
     26 C           2.7058   -0.3860   22.6603 C.ar    1  UNL1       -0.0207
     27 C           3.5871   -1.5300   22.2549 C.ar    1  UNL1       -0.0011
     28 C           4.5027   -2.1641   23.2597 C.ar    1  UNL1        0.0366
     29 C           5.2816   -1.9943   27.1356 C.3     1  UNL1        0.2525
     30 O           5.4526   -2.2881   25.6747 O.3     1  UNL1       -0.4714
@<TRIPOS>BOND
     1    29    30    1
     2    30    23    1
     3    23    24   ar
     4    24    25   ar
     5    25    26   ar
     6    26    22    1
     7    22    19    1
     8    19    20    1
     9    19    21    1
    10    19    17    1
    11    17     1    1
    12     1     2    1
    13     2     3    1
    14     2     5    1
    15     5     6    1
    16     6     7    1
    17     7     8   ar
    18     8     9   ar
    19     9    10   ar
    20    10    11   ar
    21    11    12    2
    22    12    13    1
    23    13    14    2
    24    13    15    1
    25    15    16    2
    26    26    27   ar
    27    27    28   ar
    28    28    23   ar
    29    16     7   ar
    30    16    11   ar
    31    17    18    1
    32     3     4    1
@<TRIPOS>MOLECULE
*****
 30 32 0 0 0
SMALL
GASTEIGER

@<TRIPOS>ATOM
      1 C           7.0217   -3.7937   21.4773 C.3     1  UNL1        0.1020
      2 C           7.6696   -4.6236   22.5457 C.3     1  UNL1        0.1697
      3 O           8.3693   -5.8999   22.1830 O.3     1  UNL1       -0.3793
      4 H           8.3103   -6.0400   21.2250 H       1  UNL1        0.2106
      5 C           7.6178   -4.1772   23.9768 C.3     1  UNL1        0.2358
      6 O           6.7091   -4.8723   24.9469 O.3     1  UNL1       -0.4714
      7 C           7.2651   -5.8900   25.8983 C.ar    1  UNL1        0.1552
      8 C           7.8952   -7.1447   25.3705 C.ar    1  UNL1        0.0383
      9 C           8.4512   -8.1623   26.3220 C.ar    1  UNL1        0.0045
     10 C           8.3772   -7.9251   27.8013 C.ar    1  UNL1        0.0182
     11 C           7.7471   -6.6704   28.3291 C.ar    1  UNL1        0.0933
     12 N           7.5323   -6.1657   29.7252 N.am    1  UNL1       -0.1593
     13 C           6.8435   -4.8361   29.6365 C.2     1  UNL1        0.3479
     14 O           6.4369   -3.9747   30.7954 O.2     1  UNL1       -0.2484
     15 N           6.6326   -4.5191   28.1857 N.am    1  UNL1       -0.1563
     16 C           7.1911   -5.6528   27.3776 C.ar    1  UNL1        0.1241
     17 N           6.0848   -4.4331   20.4958 N.3     1  UNL1       -0.2972
     18 H           6.5960   -5.1985   20.0564 H       1  UNL1        0.1233
     19 C           5.4890   -3.6174   19.3869 C.3     1  UNL1        0.0461
     20 C           4.6074   -4.7715   19.0116 C.3     1  UNL1        0.0161
     21 C           6.3705   -2.4633   19.7623 C.3     1  UNL1        0.0161
     22 C           4.8932   -2.8017   18.2781 C.3     1  UNL1        0.0408
     23 C           1.7763    0.3109   19.1989 C.ar    1  UNL1        0.1387
     24 C           1.8736   -0.9257   20.0424 C.ar    1  UNL1        0.0366
     25 C           2.9125   -1.9631   19.7355 C.ar    1  UNL1       -0.0011
     26 C           3.8542   -1.7641   18.5850 C.ar    1  UNL1       -0.0207
     27 C           3.7570   -0.5276   17.7415 C.ar    1  UNL1       -0.0011
     28 C           2.7180    0.5100   18.0484 C.ar    1  UNL1        0.0366
     29 C           0.4134    2.4075   18.4943 C.3     1  UNL1        0.2525
     30 O           0.7374    1.3484   19.5059 O.3     1  UNL1       -0.4714
@<TRIPOS>BOND
     1    29    30    1
     2    30    23    1
     3    23    24   ar
     4    24    25   ar
     5    25    26   ar
     6    26    22    1
     7    22    19    1
     8    19    20    1
     9    19    21    1
    10    19    17    1
    11    17     1    1
    12     1     2    1
    13     2     3    1
    14     2     5    1
    15     5     6    1
    16     6     7    1
    17     7     8   ar
    18     8     9   ar
    19     9    10   ar
    20    10    11   ar
    21    11    12    2
    22    12    13    1
    23    13    14    2
    24    13    15    1
    25    15    16    2
    26    26    27   ar
    27    27    28   ar
    28    28    23   ar
    29    16     7   ar
    30    16    11   ar
    31    17    18    1
    32     3     4    1
