@<TRIPOS>MOLECULE
*****
 22 25 0 0 0
SMALL
GASTEIGER

@<TRIPOS>ATOM
      1 O          -5.5902  -14.7376   24.8985 O.2     1  UNL1       -0.2638
      2 C          -5.5543  -15.9446   24.0086 C.2     1  UNL1        0.3160
      3 N          -4.2450  -16.4414   23.4711 N.am    1  UNL1       -0.1720
      4 C          -4.2090  -17.6484   22.5811 C.ar    1  UNL1        0.0783
      5 C          -2.8997  -18.1451   22.0437 C.ar    1  UNL1        0.0281
      6 C          -2.8638  -19.3521   21.1538 C.ar    1  UNL1        0.0590
      7 CL         -1.5545  -19.8489   20.6162 Cl      1  UNL1       -0.0822
      8 C          -4.1372  -20.0622   20.8013 C.ar    1  UNL1        0.0116
      9 C          -5.4465  -19.5654   21.3388 C.ar    1  UNL1        0.0060
     10 C          -5.4824  -18.3585   22.2287 C.ar    1  UNL1        0.0623
     11 C          -6.7917  -17.8616   22.7662 C.2     1  UNL1        0.2419
     12 N          -8.1987  -18.3518   22.5928 N.2     1  UNL1       -0.0302
     13 C          -9.1043  -17.4477   23.3755 C.2     1  UNL1        0.3765
     14 N          -8.2569  -16.3989   24.0327 N.2     1  UNL1       -0.0256
     15 C          -6.8277  -16.6547   23.6561 C.2     1  UNL1        0.2907
     16 C         -10.5954  -17.5709   23.4823 C.ar    1  UNL1        0.0989
     17 C         -11.4822  -16.6603   22.6858 C.ar    1  UNL1        0.0085
     18 C         -12.9732  -16.7835   22.7927 C.ar    1  UNL1        0.0003
     19 C         -13.5776  -17.8173   23.6960 C.ar    1  UNL1        0.0009
     20 C         -12.6908  -18.7279   24.4925 C.ar    1  UNL1        0.0116
     21 C         -11.1998  -18.6047   24.3857 C.ar    1  UNL1        0.0651
     22 CL        -10.3129  -19.5153   25.1822 Cl      1  UNL1       -0.0820
@<TRIPOS>BOND
     1     1     2    2
     2     2     3    1
     3     3     4    2
     4     4     5   ar
     5     5     6   ar
     6     6     7    1
     7     6     8   ar
     8     8     9   ar
     9     9    10   ar
    10    10    11    2
    11    11    12    1
    12    12    13    2
    13    13    16    1
    14    16    17   ar
    15    17    18   ar
    16    18    19   ar
    17    19    20   ar
    18    20    21   ar
    19    21    22    1
    20    13    14    1
    21    14    15    2
    22    15     2    1
    23    10     4   ar
    24    15    11    1
    25    21    16   ar
@<TRIPOS>MOLECULE
*****
 22 25 0 0 0
SMALL
GASTEIGER

@<TRIPOS>ATOM
      1 O         -10.0112  -14.9604   20.1128 O.2     1  UNL1       -0.2638
      2 C         -10.2799  -15.9608   21.1978 C.2     1  UNL1        0.3160
      3 N         -11.6681  -16.1214   21.7428 N.am    1  UNL1       -0.1720
      4 C         -11.9368  -17.1217   22.8279 C.ar    1  UNL1        0.0783
      5 C         -13.3250  -17.2824   23.3729 C.ar    1  UNL1        0.0281
      6 C         -13.5936  -18.2826   24.4578 C.ar    1  UNL1        0.0590
      7 CL        -14.9819  -18.4433   25.0029 Cl      1  UNL1       -0.0822
      8 C         -12.4741  -19.1223   24.9978 C.ar    1  UNL1        0.0116
      9 C         -11.0859  -18.9617   24.4528 C.ar    1  UNL1        0.0060
     10 C         -10.8172  -17.9614   23.3678 C.ar    1  UNL1        0.0623
     11 C          -9.4290  -17.8007   22.8228 C.2     1  UNL1        0.2419
     12 N          -8.1351  -18.4827   23.1553 N.2     1  UNL1       -0.0302
     13 C          -7.0666  -17.9039   22.2758 C.2     1  UNL1        0.3765
     14 N          -7.7003  -16.8642   21.3998 N.2     1  UNL1       -0.0256
     15 C          -9.1603  -16.8004   21.7378 C.2     1  UNL1        0.2907
     16 C          -5.6187  -18.2959   22.2729 C.ar    1  UNL1        0.0989
     17 C          -4.6466  -17.5819   23.1646 C.ar    1  UNL1        0.0085
     18 C          -3.1988  -17.9740   23.1616 C.ar    1  UNL1        0.0003
     19 C          -2.7231  -19.0801   22.2671 C.ar    1  UNL1        0.0009
     20 C          -3.6953  -19.7941   21.3754 C.ar    1  UNL1        0.0116
     21 C          -5.1431  -19.4021   21.3783 C.ar    1  UNL1        0.0651
     22 CL         -6.1153  -20.1161   20.4867 Cl      1  UNL1       -0.0820
@<TRIPOS>BOND
     1     1     2    2
     2     2     3    1
     3     3     4    2
     4     4     5   ar
     5     5     6   ar
     6     6     7    1
     7     6     8   ar
     8     8     9   ar
     9     9    10   ar
    10    10    11    2
    11    11    12    1
    12    12    13    2
    13    13    16    1
    14    16    17   ar
    15    17    18   ar
    16    18    19   ar
    17    19    20   ar
    18    20    21   ar
    19    21    22    1
    20    13    14    1
    21    14    15    2
    22    15     2    1
    23    10     4   ar
    24    15    11    1
    25    21    16   ar
@<TRIPOS>MOLECULE
*****
 22 25 0 0 0
SMALL
GASTEIGER

@<TRIPOS>ATOM
      1 O          -9.1637  -20.7963   17.8720 O.2     1  UNL1       -0.2638
      2 C          -9.2195  -20.0016   19.1430 C.2     1  UNL1        0.3160
      3 N         -10.5414  -19.7175   19.7924 N.am    1  UNL1       -0.1720
      4 C         -10.5972  -18.9228   21.0634 C.ar    1  UNL1        0.0783
      5 C         -11.9191  -18.6386   21.7129 C.ar    1  UNL1        0.0281
      6 C         -11.9748  -17.8440   22.9838 C.ar    1  UNL1        0.0590
      7 CL        -13.2968  -17.5598   23.6334 Cl      1  UNL1       -0.0822
      8 C         -10.7087  -17.3334   23.6053 C.ar    1  UNL1        0.0116
      9 C          -9.3868  -17.6175   22.9559 C.ar    1  UNL1        0.0060
     10 C          -9.3310  -18.4122   21.6849 C.ar    1  UNL1        0.0623
     11 C          -8.0091  -18.6964   21.0354 C.2     1  UNL1        0.2419
     12 N          -6.6053  -18.3265   21.4128 N.2     1  UNL1       -0.0302
     13 C          -5.6819  -18.8926   20.3751 C.2     1  UNL1        0.3765
     14 N          -6.5150  -19.6123   19.3564 N.2     1  UNL1       -0.0256
     15 C          -7.9533  -19.4910   19.7645 C.2     1  UNL1        0.2907
     16 C          -4.1876  -18.7618   20.3590 C.ar    1  UNL1        0.0989
     17 C          -3.4849  -18.3436   19.1015 C.ar    1  UNL1        0.0085
     18 C          -1.9907  -18.2129   19.0854 C.ar    1  UNL1        0.0003
     19 C          -1.1993  -18.5004   20.3268 C.ar    1  UNL1        0.0009
     20 C          -1.9020  -18.9186   21.5842 C.ar    1  UNL1        0.0116
     21 C          -3.3962  -19.0493   21.6003 C.ar    1  UNL1        0.0651
     22 CL         -4.0990  -19.4676   22.8578 Cl      1  UNL1       -0.0820
@<TRIPOS>BOND
     1     1     2    2
     2     2     3    1
     3     3     4    2
     4     4     5   ar
     5     5     6   ar
     6     6     7    1
     7     6     8   ar
     8     8     9   ar
     9     9    10   ar
    10    10    11    2
    11    11    12    1
    12    12    13    2
    13    13    16    1
    14    16    17   ar
    15    17    18   ar
    16    18    19   ar
    17    19    20   ar
    18    20    21   ar
    19    21    22    1
    20    13    14    1
    21    14    15    2
    22    15     2    1
    23    10     4   ar
    24    15    11    1
    25    21    16   ar
@<TRIPOS>MOLECULE
*****
 22 25 0 0 0
SMALL
GASTEIGER

@<TRIPOS>ATOM
      1 O          -5.3142  -15.5862   25.5697 O.2     1  UNL1       -0.2638
      2 C          -5.3238  -16.5428   24.4143 C.2     1  UNL1        0.3160
      3 N          -4.0310  -16.9812   23.7927 N.am    1  UNL1       -0.1720
      4 C          -4.0406  -17.9378   22.6373 C.ar    1  UNL1        0.0783
      5 C          -2.7478  -18.3762   22.0158 C.ar    1  UNL1        0.0281
      6 C          -2.7575  -19.3327   20.8604 C.ar    1  UNL1        0.0590
      7 CL         -1.4646  -19.7712   20.2388 Cl      1  UNL1       -0.0822
      8 C          -4.0600  -19.8508   20.3265 C.ar    1  UNL1        0.0116
      9 C          -5.3529  -19.4124   20.9481 C.ar    1  UNL1        0.0060
     10 C          -5.3432  -18.4559   22.1034 C.ar    1  UNL1        0.0623
     11 C          -6.6360  -18.0174   22.7250 C.2     1  UNL1        0.2419
     12 N          -8.0641  -18.3568   22.4161 N.2     1  UNL1       -0.0302
     13 C          -8.9370  -17.6100   23.3806 C.2     1  UNL1        0.3765
     14 N          -8.0485  -16.8091   24.2856 N.2     1  UNL1       -0.0256
     15 C          -6.6263  -17.0609   23.8804 C.2     1  UNL1        0.2907
     16 C         -10.4355  -17.6560   23.4312 C.ar    1  UNL1        0.0989
     17 C         -11.1255  -18.5668   24.4030 C.ar    1  UNL1        0.0085
     18 C         -12.6239  -18.6128   24.4535 C.ar    1  UNL1        0.0003
     19 C         -13.4323  -17.7480   23.5324 C.ar    1  UNL1        0.0009
     20 C         -12.7424  -16.8372   22.5606 C.ar    1  UNL1        0.0116
     21 C         -11.2439  -16.7912   22.5100 C.ar    1  UNL1        0.0651
     22 CL        -10.5539  -15.8804   21.5383 Cl      1  UNL1       -0.0820
@<TRIPOS>BOND
     1     1     2    2
     2     2     3    1
     3     3     4    2
     4     4     5   ar
     5     5     6   ar
     6     6     7    1
     7     6     8   ar
     8     8     9   ar
     9     9    10   ar
    10    10    11    2
    11    11    12    1
    12    12    13    2
    13    13    16    1
    14    16    17   ar
    15    17    18   ar
    16    18    19   ar
    17    19    20   ar
    18    20    21   ar
    19    21    22    1
    20    13    14    1
    21    14    15    2
    22    15     2    1
    23    10     4   ar
    24    15    11    1
    25    21    16   ar
@<TRIPOS>MOLECULE
*****
 22 25 0 0 0
SMALL
GASTEIGER

@<TRIPOS>ATOM
      1 O          -9.6104   -6.1243   19.3570 O.2     1  UNL1       -0.2638
      2 C         -10.6865   -5.1568   18.9619 C.2     1  UNL1        0.3160
      3 N         -10.3498   -3.7134   18.7319 N.am    1  UNL1       -0.1720
      4 C         -11.4260   -2.7459   18.3369 C.ar    1  UNL1        0.0783
      5 C         -11.0893   -1.3024   18.1069 C.ar    1  UNL1        0.0281
      6 C         -12.1655   -0.3351   17.7118 C.ar    1  UNL1        0.0590
      7 CL        -11.8288    1.1085   17.4818 Cl      1  UNL1       -0.0822
      8 C         -13.5783   -0.8112   17.5468 C.ar    1  UNL1        0.0116
      9 C         -13.9150   -2.2547   17.7768 C.ar    1  UNL1        0.0060
     10 C         -12.8388   -3.2220   18.1718 C.ar    1  UNL1        0.0623
     11 C         -13.1755   -4.6656   18.4018 C.2     1  UNL1        0.2419
     12 N         -14.4687   -5.4207   18.3154 N.2     1  UNL1       -0.0302
     13 C         -14.1918   -6.8548   18.6570 C.2     1  UNL1        0.3765
     14 N         -12.7275   -6.9860   18.9546 N.2     1  UNL1       -0.0256
     15 C         -12.0994   -5.6330   18.7968 C.2     1  UNL1        0.2907
     16 C         -15.2019   -7.9631   18.6945 C.ar    1  UNL1        0.0989
     17 C         -14.8355   -9.3290   18.1945 C.ar    1  UNL1        0.0085
     18 C         -15.8456  -10.4372   18.2320 C.ar    1  UNL1        0.0003
     19 C         -17.2221  -10.1796   18.7695 C.ar    1  UNL1        0.0009
     20 C         -17.5885   -8.8137   19.2695 C.ar    1  UNL1        0.0116
     21 C         -16.5784   -7.7054   19.2320 C.ar    1  UNL1        0.0651
     22 CL        -16.9447   -6.3394   19.7320 Cl      1  UNL1       -0.0820
@<TRIPOS>BOND
     1     1     2    2
     2     2     3    1
     3     3     4    2
     4     4     5   ar
     5     5     6   ar
     6     6     7    1
     7     6     8   ar
     8     8     9   ar
     9     9    10   ar
    10    10    11    2
    11    11    12    1
    12    12    13    2
    13    13    16    1
    14    16    17   ar
    15    17    18   ar
    16    18    19   ar
    17    19    20   ar
    18    20    21   ar
    19    21    22    1
    20    13    14    1
    21    14    15    2
    22    15     2    1
    23    10     4   ar
    24    15    11    1
    25    21    16   ar
@<TRIPOS>MOLECULE
*****
 22 25 0 0 0
SMALL
GASTEIGER

@<TRIPOS>ATOM
      1 O          -9.7842   -5.7564   19.3551 O.2     1  UNL1       -0.2638
      2 C         -10.8538   -4.7856   18.9505 C.2     1  UNL1        0.3160
      3 N         -10.4939   -3.3667   18.6233 N.am    1  UNL1       -0.1720
      4 C         -11.5634   -2.3958   18.2188 C.ar    1  UNL1        0.0783
      5 C         -11.2036   -0.9769   17.8916 C.ar    1  UNL1        0.0281
      6 C         -12.2731   -0.0061   17.4870 C.ar    1  UNL1        0.0590
      7 CL        -11.9133    1.4129   17.1598 Cl      1  UNL1       -0.0822
      8 C         -13.7025   -0.4543   17.4097 C.ar    1  UNL1        0.0116
      9 C         -14.0624   -1.8732   17.7369 C.ar    1  UNL1        0.0060
     10 C         -12.9928   -2.8440   18.1414 C.ar    1  UNL1        0.0623
     11 C         -13.3527   -4.2630   18.4686 C.2     1  UNL1        0.2419
     12 N         -14.6656   -4.9882   18.4808 N.2     1  UNL1       -0.0302
     13 C         -14.4076   -6.4072   18.8929 C.2     1  UNL1        0.3765
     14 N         -12.9351   -6.5589   19.1354 N.2     1  UNL1       -0.0256
     15 C         -12.2832   -5.2337   18.8732 C.2     1  UNL1        0.2907
     16 C         -15.4407   -7.4852   19.0371 C.ar    1  UNL1        0.0989
     17 C         -16.5779   -7.3102   19.9994 C.ar    1  UNL1        0.0085
     18 C         -17.6109   -8.3882   20.1436 C.ar    1  UNL1        0.0003
     19 C         -17.5067   -9.6411   19.3255 C.ar    1  UNL1        0.0009
     20 C         -16.3694   -9.8161   18.3633 C.ar    1  UNL1        0.0116
     21 C         -15.3364   -8.7382   18.2191 C.ar    1  UNL1        0.0651
     22 CL        -14.1991   -8.9131   17.2568 Cl      1  UNL1       -0.0820
@<TRIPOS>BOND
     1     1     2    2
     2     2     3    1
     3     3     4    2
     4     4     5   ar
     5     5     6   ar
     6     6     7    1
     7     6     8   ar
     8     8     9   ar
     9     9    10   ar
    10    10    11    2
    11    11    12    1
    12    12    13    2
    13    13    16    1
    14    16    17   ar
    15    17    18   ar
    16    18    19   ar
    17    19    20   ar
    18    20    21   ar
    19    21    22    1
    20    13    14    1
    21    14    15    2
    22    15     2    1
    23    10     4   ar
    24    15    11    1
    25    21    16   ar
@<TRIPOS>MOLECULE
*****
 22 25 0 0 0
SMALL
GASTEIGER

@<TRIPOS>ATOM
      1 O           4.9969   -0.7746   26.2029 O.2     1  UNL1       -0.2638
      2 C           4.7240   -1.2878   24.8200 C.2     1  UNL1        0.3160
      3 N           3.7824   -0.5470   23.9174 N.am    1  UNL1       -0.1720
      4 C           3.5095   -1.0602   22.5345 C.ar    1  UNL1        0.0783
      5 C           2.5679   -0.3194   21.6319 C.ar    1  UNL1        0.0281
      6 C           2.2950   -0.8326   20.2492 C.ar    1  UNL1        0.0590
      7 CL          1.3534   -0.0919   19.3465 Cl      1  UNL1       -0.0822
      8 C           2.9636   -2.0866   19.7690 C.ar    1  UNL1        0.0116
      9 C           3.9052   -2.8274   20.6716 C.ar    1  UNL1        0.0060
     10 C           4.1781   -2.3142   22.0544 C.ar    1  UNL1        0.0623
     11 C           5.1197   -3.0549   22.9571 C.2     1  UNL1        0.2419
     12 N           5.9194   -4.3088   22.7617 N.2     1  UNL1       -0.0302
     13 C           6.6866   -4.5705   24.0238 C.2     1  UNL1        0.3765
     14 N           6.3610   -3.4784   24.9991 N.2     1  UNL1       -0.0256
     15 C           5.3926   -2.5417   24.3399 C.2     1  UNL1        0.2907
     16 C           7.6163   -5.7222   24.2677 C.ar    1  UNL1        0.0989
     17 C           8.6037   -6.1254   23.2130 C.ar    1  UNL1        0.0085
     18 C           9.5333   -7.2770   23.4570 C.ar    1  UNL1        0.0003
     19 C           9.4755   -8.0255   24.7556 C.ar    1  UNL1        0.0009
     20 C           8.4881   -7.6223   25.8103 C.ar    1  UNL1        0.0116
     21 C           7.5585   -6.4707   25.5664 C.ar    1  UNL1        0.0651
     22 CL          6.5710   -6.0674   26.6211 Cl      1  UNL1       -0.0820
@<TRIPOS>BOND
     1     1     2    2
     2     2     3    1
     3     3     4    2
     4     4     5   ar
     5     5     6   ar
     6     6     7    1
     7     6     8   ar
     8     8     9   ar
     9     9    10   ar
    10    10    11    2
    11    11    12    1
    12    12    13    2
    13    13    16    1
    14    16    17   ar
    15    17    18   ar
    16    18    19   ar
    17    19    20   ar
    18    20    21   ar
    19    21    22    1
    20    13    14    1
    21    14    15    2
    22    15     2    1
    23    10     4   ar
    24    15    11    1
    25    21    16   ar
@<TRIPOS>MOLECULE
*****
 22 25 0 0 0
SMALL
GASTEIGER

@<TRIPOS>ATOM
      1 O           5.8060   -1.9353   26.3725 O.2     1  UNL1       -0.2638
      2 C           6.4290   -3.2309   25.9442 C.2     1  UNL1        0.3160
      3 N           6.8715   -4.2271   26.9746 N.am    1  UNL1       -0.1720
      4 C           7.4945   -5.5227   26.5463 C.ar    1  UNL1        0.0783
      5 C           7.9369   -6.5189   27.5766 C.ar    1  UNL1        0.0281
      6 C           8.5599   -7.8145   27.1483 C.ar    1  UNL1        0.0590
      7 CL          9.0024   -8.8108   28.1787 Cl      1  UNL1       -0.0822
      8 C           8.7403   -8.1138   25.6896 C.ar    1  UNL1        0.0116
      9 C           8.2978   -7.1176   24.6592 C.ar    1  UNL1        0.0060
     10 C           7.6749   -5.8221   25.0875 C.ar    1  UNL1        0.0623
     11 C           7.2323   -4.8258   24.0571 C.2     1  UNL1        0.2419
     12 N           7.2810   -4.8435   22.5581 N.2     1  UNL1       -0.0302
     13 C           6.6880   -3.5589   22.0599 C.2     1  UNL1        0.3765
     14 N           6.2730   -2.7473   23.2511 N.2     1  UNL1       -0.0256
     15 C           6.6094   -3.5303   24.4855 C.2     1  UNL1        0.2907
     16 C           6.5367   -3.1565   20.6227 C.ar    1  UNL1        0.0989
     17 C           7.6259   -2.3816   19.9422 C.ar    1  UNL1        0.0085
     18 C           7.4745   -1.9793   18.5051 C.ar    1  UNL1        0.0003
     19 C           6.2341   -2.3519   17.7486 C.ar    1  UNL1        0.0009
     20 C           5.1449   -3.1269   18.4292 C.ar    1  UNL1        0.0116
     21 C           5.2962   -3.5292   19.8662 C.ar    1  UNL1        0.0651
     22 CL          4.2071   -4.3041   20.5468 Cl      1  UNL1       -0.0820
@<TRIPOS>BOND
     1     1     2    2
     2     2     3    1
     3     3     4    2
     4     4     5   ar
     5     5     6   ar
     6     6     7    1
     7     6     8   ar
     8     8     9   ar
     9     9    10   ar
    10    10    11    2
    11    11    12    1
    12    12    13    2
    13    13    16    1
    14    16    17   ar
    15    17    18   ar
    16    18    19   ar
    17    19    20   ar
    18    20    21   ar
    19    21    22    1
    20    13    14    1
    21    14    15    2
    22    15     2    1
    23    10     4   ar
    24    15    11    1
    25    21    16   ar
