@<TRIPOS>MOLECULE
*****
 33 37 0 0 0
SMALL
GASTEIGER

@<TRIPOS>ATOM
      1 C          -8.6605  -19.2864   18.9678 C.3     1  UNL1        0.0730
      2 N          -7.6492  -19.5144   20.0521 N.3     1  UNL1       -0.2724
      3 C          -7.9009  -20.2001   21.3623 C.3     1  UNL1        0.0724
      4 C          -6.6161  -20.2062   22.1365 C.3     1  UNL1        0.0214
      5 C          -5.2176  -20.0628   22.6596 C.3     1  UNL1        0.0072
      6 C          -5.5705  -19.5244   21.3046 C.3     1  UNL1        0.0350
      7 C          -6.2090  -19.0969   20.0164 C.3     1  UNL1        0.0761
      8 C          -4.2040  -18.9943   20.9857 C.ar    1  UNL1       -0.0215
      9 C          -3.6786  -19.0702   19.5829 C.ar    1  UNL1       -0.0043
     10 C          -2.3121  -18.5401   19.2640 C.ar    1  UNL1        0.0035
     11 C          -1.4710  -17.9340   20.3481 C.ar    1  UNL1        0.0714
     12 C          -1.9964  -17.8581   21.7510 C.ar    1  UNL1        0.0035
     13 C          -3.3629  -18.3882   22.0699 C.ar    1  UNL1       -0.0043
     14 C          -0.1045  -17.4039   20.0292 C.3     1  UNL1        0.4186
     15 F           1.2620  -16.8738   19.7103 F       1  UNL1       -0.1659
     16 F           0.3346  -18.7797   19.6235 F       1  UNL1       -0.1659
     17 F          -0.5435  -16.0282   20.4349 F       1  UNL1       -0.1659
     18 C         -10.1149  -19.5394   19.2335 C.3     1  UNL1        0.0294
     19 C         -10.9816  -18.4393   19.7706 C.3     1  UNL1        0.0666
     20 S         -11.0472  -18.1898   21.2483 S.3     1  UNL1       -0.0756
     21 C          -8.6313  -16.2112   23.5535 C.ar    1  UNL1        0.1680
     22 N          -8.4255  -15.5069   22.2452 N.ar    1  UNL1       -0.1282
     23 N          -9.3054  -16.1623   21.2224 N.ar    1  UNL1       -0.1221
     24 C         -10.0551  -17.2718   21.8986 C.ar    1  UNL1        0.1932
     25 N          -9.6385  -17.3020   23.3392 N.ar    1  UNL1       -0.2884
     26 C         -10.1408  -18.2555   24.3825 C.3     1  UNL1        0.1340
     27 C          -5.6355  -16.1379   23.6955 C.3     1  UNL1        0.0522
     28 C          -6.4518  -15.8459   24.9196 C.ar    1  UNL1        0.0623
     29 N          -5.7702  -15.5172   26.2148 N.ar    1  UNL1       -0.2480
     30 C          -6.5865  -15.2251   27.4389 C.ar    1  UNL1        0.0984
     31 C          -8.0843  -15.2618   27.3678 C.ar    1  UNL1        0.0208
     32 C          -8.7659  -15.5904   26.0727 C.ar    1  UNL1        0.0058
     33 C          -7.9496  -15.8825   24.8486 C.ar    1  UNL1        0.0495
@<TRIPOS>BOND
     1    27    28    1
     2    28    29   ar
     3    29    30   ar
     4    30    31   ar
     5    31    32   ar
     6    32    33   ar
     7    33    21    1
     8    21    22   ar
     9    22    23   ar
    10    23    24   ar
    11    24    20    1
    12    20    19    1
    13    19    18    1
    14    18     1    1
    15     1     2    1
    16     2     3    1
    17     4     3    1
    18     4     5    1
    19     5     6    1
    20     6     8    1
    21     8     9   ar
    22     9    10   ar
    23    10    11   ar
    24    11    14    1
    25    14    15    1
    26    14    16    1
    27    14    17    1
    28    11    12   ar
    29    12    13   ar
    30     6     7    1
    31    24    25   ar
    32    25    26    1
    33    33    28   ar
    34    25    21   ar
    35     7     2    1
    36     6     4    1
    37    13     8   ar
@<TRIPOS>MOLECULE
*****
 33 37 0 0 0
SMALL
GASTEIGER

@<TRIPOS>ATOM
      1 C         -10.3474  -18.6010   19.6327 C.3     1  UNL1        0.0730
      2 N          -9.3226  -19.1347   20.5894 N.3     1  UNL1       -0.2724
      3 C          -9.6054  -19.9078   21.8435 C.3     1  UNL1        0.0724
      4 C          -8.2929  -20.2399   22.4891 C.3     1  UNL1        0.0214
      5 C          -6.8585  -20.4183   22.8901 C.3     1  UNL1        0.0072
      6 C          -7.1989  -19.6722   21.6340 C.3     1  UNL1        0.0350
      7 C          -7.8354  -18.9892   20.4600 C.3     1  UNL1        0.0761
      8 C          -5.7828  -19.3706   21.2421 C.ar    1  UNL1       -0.0215
      9 C          -4.7809  -18.9837   22.2891 C.ar    1  UNL1       -0.0043
     10 C          -3.3648  -18.6821   21.8972 C.ar    1  UNL1        0.0035
     11 C          -2.9506  -18.7675   20.4580 C.ar    1  UNL1        0.0714
     12 C          -3.9525  -19.1545   19.4109 C.ar    1  UNL1        0.0035
     13 C          -5.3686  -19.4560   19.8029 C.ar    1  UNL1       -0.0043
     14 C          -1.5344  -18.4660   20.0660 C.3     1  UNL1        0.4186
     15 F          -0.1183  -18.1644   19.6740 F       1  UNL1       -0.1659
     16 F          -1.9585  -18.3371   18.6329 F       1  UNL1       -0.1659
     17 F          -1.1103  -18.5949   21.4990 F       1  UNL1       -0.1659
     18 C         -11.3962  -17.6430   20.1146 C.3     1  UNL1        0.0294
     19 C         -12.4021  -18.0839   21.1362 C.3     1  UNL1        0.0666
     20 S         -12.4623  -17.4036   22.4717 S.3     1  UNL1       -0.0756
     21 C          -9.1311  -16.9990   24.4223 C.ar    1  UNL1        0.1680
     22 N          -9.7983  -18.0869   25.2106 N.ar    1  UNL1       -0.1282
     23 N         -11.1274  -18.3709   24.5758 N.ar    1  UNL1       -0.1221
     24 C         -11.2817  -17.4585   23.3952 C.ar    1  UNL1        0.1932
     25 N         -10.0479  -16.6107   23.3003 N.ar    1  UNL1       -0.2884
     26 C          -9.7783  -15.5591   22.2652 C.3     1  UNL1        0.1340
     27 C          -8.5248  -15.8877   27.1421 C.3     1  UNL1        0.0522
     28 C          -7.4806  -15.8483   26.0660 C.ar    1  UNL1        0.0623
     29 N          -6.1333  -15.2533   26.3497 N.ar    1  UNL1       -0.2480
     30 C          -5.0891  -15.2139   25.2736 C.ar    1  UNL1        0.0984
     31 C          -5.3922  -15.7695   23.9137 C.ar    1  UNL1        0.0208
     32 C          -6.7395  -16.3646   23.6300 C.ar    1  UNL1        0.0058
     33 C          -7.7837  -16.4040   24.7061 C.ar    1  UNL1        0.0495
@<TRIPOS>BOND
     1    27    28    1
     2    28    29   ar
     3    29    30   ar
     4    30    31   ar
     5    31    32   ar
     6    32    33   ar
     7    33    21    1
     8    21    22   ar
     9    22    23   ar
    10    23    24   ar
    11    24    20    1
    12    20    19    1
    13    19    18    1
    14    18     1    1
    15     1     2    1
    16     2     3    1
    17     4     3    1
    18     4     5    1
    19     5     6    1
    20     6     8    1
    21     8     9   ar
    22     9    10   ar
    23    10    11   ar
    24    11    14    1
    25    14    15    1
    26    14    16    1
    27    14    17    1
    28    11    12   ar
    29    12    13   ar
    30     6     7    1
    31    24    25   ar
    32    25    26    1
    33    33    28   ar
    34    25    21   ar
    35     7     2    1
    36     6     4    1
    37    13     8   ar
@<TRIPOS>MOLECULE
*****
 33 37 0 0 0
SMALL
GASTEIGER

@<TRIPOS>ATOM
      1 C          -3.0678  -20.0845   21.3897 C.3     1  UNL1        0.0730
      2 N          -3.1018  -18.6288   21.7502 N.3     1  UNL1       -0.2724
      3 C          -2.2224  -17.5576   21.1763 C.3     1  UNL1        0.0724
      4 C          -2.5983  -16.2555   21.8192 C.3     1  UNL1        0.0214
      5 C          -3.1836  -15.1281   22.6170 C.3     1  UNL1        0.0072
      6 C          -3.7100  -16.5220   22.7905 C.3     1  UNL1        0.0350
      7 C          -4.0212  -17.9888   22.7477 C.3     1  UNL1        0.0761
      8 C          -4.7394  -16.1734   23.8243 C.ar    1  UNL1       -0.0215
      9 C          -6.0235  -15.5166   23.4125 C.ar    1  UNL1       -0.0043
     10 C          -7.0529  -15.1680   24.4463 C.ar    1  UNL1        0.0035
     11 C          -6.7981  -15.4763   25.8921 C.ar    1  UNL1        0.0714
     12 C          -5.5140  -16.1331   26.3039 C.ar    1  UNL1        0.0035
     13 C          -4.4846  -16.4817   25.2700 C.ar    1  UNL1       -0.0043
     14 C          -7.8274  -15.1277   26.9259 C.3     1  UNL1        0.4186
     15 F          -8.8568  -14.7791   27.9598 F       1  UNL1       -0.1659
     16 F          -6.7415  -14.9368   27.9430 F       1  UNL1       -0.1659
     17 F          -8.9134  -15.3186   25.9090 F       1  UNL1       -0.1659
     18 C          -3.8903  -20.5925   20.2428 C.3     1  UNL1        0.0294
     19 C          -5.3876  -20.5861   20.3329 C.3     1  UNL1        0.0666
     20 S          -6.1661  -19.4209   19.7980 S.3     1  UNL1       -0.0756
     21 C          -9.8743  -18.9769   20.8552 C.ar    1  UNL1        0.1680
     22 N         -10.0308  -19.6603   19.5292 N.ar    1  UNL1       -0.1282
     23 N          -8.6608  -19.9097   18.9717 N.ar    1  UNL1       -0.1221
     24 C          -7.6575  -19.3806   19.9533 C.ar    1  UNL1        0.1932
     25 N          -8.4075  -18.8041   21.1173 N.ar    1  UNL1       -0.2884
     26 C          -7.7977  -18.1666   22.3305 C.3     1  UNL1        0.1340
     27 C         -11.6800  -16.7252   20.0372 C.3     1  UNL1        0.0522
     28 C         -11.8917  -17.4168   21.3514 C.ar    1  UNL1        0.0623
     29 N         -13.0062  -16.9826   22.2565 N.ar    1  UNL1       -0.2480
     30 C         -13.2178  -17.6742   23.5706 C.ar    1  UNL1        0.0984
     31 C         -12.3150  -18.8000   23.9796 C.ar    1  UNL1        0.0208
     32 C         -11.2005  -19.2342   23.0745 C.ar    1  UNL1        0.0058
     33 C         -10.9888  -18.5426   21.7604 C.ar    1  UNL1        0.0495
@<TRIPOS>BOND
     1    27    28    1
     2    28    29   ar
     3    29    30   ar
     4    30    31   ar
     5    31    32   ar
     6    32    33   ar
     7    33    21    1
     8    21    22   ar
     9    22    23   ar
    10    23    24   ar
    11    24    20    1
    12    20    19    1
    13    19    18    1
    14    18     1    1
    15     1     2    1
    16     2     3    1
    17     4     3    1
    18     4     5    1
    19     5     6    1
    20     6     8    1
    21     8     9   ar
    22     9    10   ar
    23    10    11   ar
    24    11    14    1
    25    14    15    1
    26    14    16    1
    27    14    17    1
    28    11    12   ar
    29    12    13   ar
    30     6     7    1
    31    24    25   ar
    32    25    26    1
    33    33    28   ar
    34    25    21   ar
    35     7     2    1
    36     6     4    1
    37    13     8   ar
@<TRIPOS>MOLECULE
*****
 33 37 0 0 0
SMALL
GASTEIGER

@<TRIPOS>ATOM
      1 C          -8.5801  -15.5025   25.3172 C.3     1  UNL1        0.0730
      2 N          -9.0687  -16.8928   25.0368 N.3     1  UNL1       -0.2724
      3 C          -9.6310  -17.8499   26.0456 C.3     1  UNL1        0.0724
      4 C          -9.9906  -19.1186   25.3307 C.3     1  UNL1        0.0214
      5 C         -10.2437  -20.2360   24.3625 C.3     1  UNL1        0.0072
      6 C          -9.6505  -18.9455   23.8799 C.3     1  UNL1        0.0350
      7 C          -9.0808  -17.5698   23.6983 C.3     1  UNL1        0.0761
      8 C          -9.5386  -19.3528   22.4407 C.ar    1  UNL1       -0.0215
      9 C          -8.1874  -19.5450   21.8185 C.ar    1  UNL1       -0.0043
     10 C          -8.0754  -19.9523   20.3792 C.ar    1  UNL1        0.0035
     11 C          -9.3149  -20.1673   19.5621 C.ar    1  UNL1        0.0714
     12 C         -10.6661  -19.9751   20.1842 C.ar    1  UNL1        0.0035
     13 C         -10.7780  -19.5678   21.6235 C.ar    1  UNL1       -0.0043
     14 C          -9.2029  -20.5746   18.1228 C.3     1  UNL1        0.4186
     15 F          -9.0910  -20.9819   16.6835 F       1  UNL1       -0.1659
     16 F          -7.8894  -21.2385   18.4127 F       1  UNL1       -0.1659
     17 F         -10.5164  -19.9108   17.8328 F       1  UNL1       -0.1659
     18 C          -8.1440  -15.1259   26.7021 C.3     1  UNL1        0.0294
     19 C          -6.7588  -15.4617   27.1695 C.3     1  UNL1        0.0666
     20 S          -5.5744  -15.1094   26.3192 S.3     1  UNL1       -0.0756
     21 C          -4.0445  -17.5806   23.7467 C.ar    1  UNL1        0.1680
     22 N          -3.4390  -18.0809   25.0246 N.ar    1  UNL1       -0.1282
     23 N          -3.9384  -17.2160   26.1438 N.ar    1  UNL1       -0.1221
     24 C          -4.8526  -16.1813   25.5576 C.ar    1  UNL1        0.1932
     25 N          -4.9181  -16.4066   24.0761 N.ar    1  UNL1       -0.2884
     26 C          -5.7170  -15.5996   23.0961 C.3     1  UNL1        0.1340
     27 C          -2.1074  -16.2638   21.8721 C.3     1  UNL1        0.0522
     28 C          -2.8479  -17.4953   21.4421 C.ar    1  UNL1        0.0623
     29 N          -2.6199  -18.0685   20.0748 N.ar    1  UNL1       -0.2480
     30 C          -3.3604  -19.3000   19.6448 C.ar    1  UNL1        0.0984
     31 C          -4.3289  -19.9584   20.5820 C.ar    1  UNL1        0.0208
     32 C          -4.5569  -19.3853   21.9493 C.ar    1  UNL1        0.0058
     33 C          -3.8164  -18.1538   22.3793 C.ar    1  UNL1        0.0495
@<TRIPOS>BOND
     1    27    28    1
     2    28    29   ar
     3    29    30   ar
     4    30    31   ar
     5    31    32   ar
     6    32    33   ar
     7    33    21    1
     8    21    22   ar
     9    22    23   ar
    10    23    24   ar
    11    24    20    1
    12    20    19    1
    13    19    18    1
    14    18     1    1
    15     1     2    1
    16     2     3    1
    17     4     3    1
    18     4     5    1
    19     5     6    1
    20     6     8    1
    21     8     9   ar
    22     9    10   ar
    23    10    11   ar
    24    11    14    1
    25    14    15    1
    26    14    16    1
    27    14    17    1
    28    11    12   ar
    29    12    13   ar
    30     6     7    1
    31    24    25   ar
    32    25    26    1
    33    33    28   ar
    34    25    21   ar
    35     7     2    1
    36     6     4    1
    37    13     8   ar
@<TRIPOS>MOLECULE
*****
 33 37 0 0 0
SMALL
GASTEIGER

@<TRIPOS>ATOM
      1 C           7.7446   -4.5106   22.0277 C.3     1  UNL1        0.0730
      2 N           8.1079   -5.5288   23.0677 N.3     1  UNL1       -0.2724
      3 C           8.7735   -6.8490   22.8142 C.3     1  UNL1        0.0724
      4 C           8.9464   -7.5417   24.1334 C.3     1  UNL1        0.0214
      5 C           8.9817   -7.9774   25.5683 C.3     1  UNL1        0.0072
      6 C           8.3877   -6.6495   25.2021 C.3     1  UNL1        0.0350
      7 C           7.8695   -5.4055   24.5434 C.3     1  UNL1        0.0761
      8 C           8.0252   -6.2486   26.6014 C.ar    1  UNL1       -0.0215
      9 C           9.0768   -6.2234   27.6707 C.ar    1  UNL1       -0.0043
     10 C           8.7142   -5.8225   29.0699 C.ar    1  UNL1        0.0035
     11 C           7.2999   -5.4469   29.3998 C.ar    1  UNL1        0.0714
     12 C           6.2484   -5.4721   28.3305 C.ar    1  UNL1        0.0035
     13 C           6.6109   -5.8730   26.9313 C.ar    1  UNL1       -0.0043
     14 C           6.9374   -5.0460   30.7990 C.3     1  UNL1        0.4186
     15 F           6.5748   -4.6452   32.1982 F       1  UNL1       -0.1659
     16 F           7.5803   -6.2956   31.3237 F       1  UNL1       -0.1659
     17 F           6.2945   -3.7964   30.2744 F       1  UNL1       -0.1659
     18 C           8.7602   -3.5025   21.5780 C.3     1  UNL1        0.0294
     19 C           9.0834   -3.3626   20.1200 C.3     1  UNL1        0.0666
     20 S           8.7582   -2.0883   19.3986 S.3     1  UNL1       -0.0756
     21 C           5.0438   -1.1449   18.7832 C.ar    1  UNL1        0.1680
     22 N           5.3992   -1.7904   17.4767 N.ar    1  UNL1       -0.1282
     23 N           6.8339   -2.2224   17.5482 N.ar    1  UNL1       -0.1221
     24 C           7.3652   -1.8438   18.8989 C.ar    1  UNL1        0.1932
     25 N           6.2588   -1.1779   19.6622 N.ar    1  UNL1       -0.2884
     26 C           6.3513   -0.6395   21.0591 C.3     1  UNL1        0.1340
     27 C           4.4409    1.7330   18.1881 C.3     1  UNL1        0.0522
     28 C           3.4065    0.8712   18.8494 C.ar    1  UNL1        0.0623
     29 N           2.0706    1.4484   19.2131 N.ar    1  UNL1       -0.2480
     30 C           1.0362    0.5866   19.8743 C.ar    1  UNL1        0.0984
     31 C           1.3376   -0.8523   20.1718 C.ar    1  UNL1        0.0208
     32 C           2.6734   -1.4295   19.8081 C.ar    1  UNL1        0.0058
     33 C           3.7079   -0.5677   19.1469 C.ar    1  UNL1        0.0495
@<TRIPOS>BOND
     1    27    28    1
     2    28    29   ar
     3    29    30   ar
     4    30    31   ar
     5    31    32   ar
     6    32    33   ar
     7    33    21    1
     8    21    22   ar
     9    22    23   ar
    10    23    24   ar
    11    24    20    1
    12    20    19    1
    13    19    18    1
    14    18     1    1
    15     1     2    1
    16     2     3    1
    17     4     3    1
    18     4     5    1
    19     5     6    1
    20     6     8    1
    21     8     9   ar
    22     9    10   ar
    23    10    11   ar
    24    11    14    1
    25    14    15    1
    26    14    16    1
    27    14    17    1
    28    11    12   ar
    29    12    13   ar
    30     6     7    1
    31    24    25   ar
    32    25    26    1
    33    33    28   ar
    34    25    21   ar
    35     7     2    1
    36     6     4    1
    37    13     8   ar
@<TRIPOS>MOLECULE
*****
 33 37 0 0 0
SMALL
GASTEIGER

@<TRIPOS>ATOM
      1 C          -8.8948  -15.3273   25.1811 C.3     1  UNL1        0.0730
      2 N          -9.2026  -16.7778   24.9537 N.3     1  UNL1       -0.2724
      3 C          -9.5826  -17.7743   26.0085 C.3     1  UNL1        0.0724
      4 C          -9.7993  -19.0987   25.3383 C.3     1  UNL1        0.0214
      5 C          -9.9428  -20.2657   24.4070 C.3     1  UNL1        0.0072
      6 C          -9.5532  -18.9206   23.8693 C.3     1  UNL1        0.0350
      7 C          -9.1844  -17.4862   23.6317 C.3     1  UNL1        0.0761
      8 C          -9.4535  -19.3478   22.4349 C.ar    1  UNL1       -0.0215
      9 C         -10.6991  -19.5442   21.6226 C.ar    1  UNL1       -0.0043
     10 C         -10.5995  -19.9714   20.1882 C.ar    1  UNL1        0.0035
     11 C          -9.2541  -20.2023   19.5661 C.ar    1  UNL1        0.0714
     12 C          -8.0086  -20.0059   20.3785 C.ar    1  UNL1        0.0035
     13 C          -8.1082  -19.5787   21.8129 C.ar    1  UNL1       -0.0043
     14 C          -9.1545  -20.6295   18.1317 C.3     1  UNL1        0.4186
     15 F          -9.0549  -21.0568   16.6973 F       1  UNL1       -0.1659
     16 F         -10.4515  -19.9366   17.8352 F       1  UNL1       -0.1659
     17 F          -7.8576  -21.3224   18.4282 F       1  UNL1       -0.1659
     18 C          -7.5163  -14.8017   24.9102 C.3     1  UNL1        0.0294
     19 C          -6.3527  -15.2978   25.7163 C.3     1  UNL1        0.0666
     20 S          -5.4646  -16.3747   25.1670 S.3     1  UNL1       -0.0756
     21 C          -3.1469  -16.4299   22.0541 C.ar    1  UNL1        0.1680
     22 N          -3.6122  -15.0039   22.0437 N.ar    1  UNL1       -0.1282
     23 N          -4.5371  -14.8097   23.2085 N.ar    1  UNL1       -0.1221
     24 C          -4.6434  -16.1156   23.9389 C.ar    1  UNL1        0.1932
     25 N          -3.7841  -17.1169   23.2254 N.ar    1  UNL1       -0.2884
     26 C          -3.5953  -18.5531   23.6148 C.3     1  UNL1        0.1340
     27 C          -4.1509  -18.5236   20.1545 C.3     1  UNL1        0.0522
     28 C          -2.7109  -18.1053   20.1168 C.ar    1  UNL1        0.0623
     29 N          -1.7730  -18.7338   19.1294 N.ar    1  UNL1       -0.2480
     30 C          -0.3329  -18.3156   19.0917 C.ar    1  UNL1        0.0984
     31 C           0.1691  -17.2687   20.0414 C.ar    1  UNL1        0.0208
     32 C          -0.7689  -16.6402   21.0289 C.ar    1  UNL1        0.0058
     33 C          -2.2089  -17.0585   21.0666 C.ar    1  UNL1        0.0495
@<TRIPOS>BOND
     1    27    28    1
     2    28    29   ar
     3    29    30   ar
     4    30    31   ar
     5    31    32   ar
     6    32    33   ar
     7    33    21    1
     8    21    22   ar
     9    22    23   ar
    10    23    24   ar
    11    24    20    1
    12    20    19    1
    13    19    18    1
    14    18     1    1
    15     1     2    1
    16     2     3    1
    17     4     3    1
    18     4     5    1
    19     5     6    1
    20     6     8    1
    21     8     9   ar
    22     9    10   ar
    23    10    11   ar
    24    11    14    1
    25    14    15    1
    26    14    16    1
    27    14    17    1
    28    11    12   ar
    29    12    13   ar
    30     6     7    1
    31    24    25   ar
    32    25    26    1
    33    33    28   ar
    34    25    21   ar
    35     7     2    1
    36     6     4    1
    37    13     8   ar
@<TRIPOS>MOLECULE
*****
 33 37 0 0 0
SMALL
GASTEIGER

@<TRIPOS>ATOM
      1 C           3.7003    3.5367   18.4875 C.3     1  UNL1        0.0730
      2 N           3.0090    2.3356   19.0618 N.3     1  UNL1       -0.2724
      3 C           2.6468    1.0860   18.3152 C.3     1  UNL1        0.0724
      4 C           1.9725    0.1514   19.2753 C.3     1  UNL1        0.0214
      5 C           1.3466   -0.5527   20.4426 C.3     1  UNL1        0.0072
      6 C           1.9180    0.8235   20.6153 C.3     1  UNL1        0.0350
      7 C           2.5586    2.1734   20.4833 C.3     1  UNL1        0.0761
      8 C           1.5871    0.9490   22.0729 C.ar    1  UNL1       -0.0215
      9 C           0.3876    1.7396   22.5044 C.ar    1  UNL1       -0.0043
     10 C           0.0567    1.8651   23.9620 C.ar    1  UNL1        0.0035
     11 C           0.9252    1.1998   24.9883 C.ar    1  UNL1        0.0714
     12 C           2.1246    0.4091   24.5568 C.ar    1  UNL1        0.0035
     13 C           2.4556    0.2837   23.0992 C.ar    1  UNL1       -0.0043
     14 C           0.5942    1.3252   26.4459 C.3     1  UNL1        0.4186
     15 F           0.2633    1.4507   27.9035 F       1  UNL1       -0.1659
     16 F          -0.7761    1.8223   26.0920 F       1  UNL1       -0.1659
     17 F           1.9645    0.8282   26.7998 F       1  UNL1       -0.1659
     18 C           5.0131    3.3791   17.7792 C.3     1  UNL1        0.0294
     19 C           6.2965    3.6324   18.5133 C.3     1  UNL1        0.0666
     20 S           7.2822    2.5185   18.7069 S.3     1  UNL1       -0.0756
     21 C           6.0193   -1.1439   18.4672 C.ar    1  UNL1        0.1680
     22 N           6.6319   -0.9592   17.1105 N.ar    1  UNL1       -0.1282
     23 N           7.1796    0.4352   17.0352 N.ar    1  UNL1       -0.1221
     24 C           6.9054    1.1124   18.3453 C.ar    1  UNL1        0.1932
     25 N           6.1883    0.1364   19.2303 N.ar    1  UNL1       -0.2884
     26 C           5.7221    0.3953   20.6323 C.3     1  UNL1        0.1340
     27 C           7.5549   -3.0795   20.1687 C.3     1  UNL1        0.0522
     28 C           6.1221   -3.3578   19.8229 C.ar    1  UNL1        0.0623
     29 N           5.4572   -4.6040   20.3277 N.ar    1  UNL1       -0.2480
     30 C           4.0244   -4.8823   19.9819 C.ar    1  UNL1        0.0984
     31 C           3.2566   -3.9146   19.1311 C.ar    1  UNL1        0.0208
     32 C           3.9215   -2.6684   18.6262 C.ar    1  UNL1        0.0058
     33 C           5.3543   -2.3901   18.9721 C.ar    1  UNL1        0.0495
@<TRIPOS>BOND
     1    27    28    1
     2    28    29   ar
     3    29    30   ar
     4    30    31   ar
     5    31    32   ar
     6    32    33   ar
     7    33    21    1
     8    21    22   ar
     9    22    23   ar
    10    23    24   ar
    11    24    20    1
    12    20    19    1
    13    19    18    1
    14    18     1    1
    15     1     2    1
    16     2     3    1
    17     4     3    1
    18     4     5    1
    19     5     6    1
    20     6     8    1
    21     8     9   ar
    22     9    10   ar
    23    10    11   ar
    24    11    14    1
    25    14    15    1
    26    14    16    1
    27    14    17    1
    28    11    12   ar
    29    12    13   ar
    30     6     7    1
    31    24    25   ar
    32    25    26    1
    33    33    28   ar
    34    25    21   ar
    35     7     2    1
    36     6     4    1
    37    13     8   ar
@<TRIPOS>MOLECULE
*****
 33 37 0 0 0
SMALL
GASTEIGER

@<TRIPOS>ATOM
      1 C          -1.6273    5.1933   17.3353 C.3     1  UNL1        0.0730
      2 N          -2.9233    4.6228   17.8303 N.3     1  UNL1       -0.2724
      3 C          -3.9590    3.9318   16.9937 C.3     1  UNL1        0.0724
      4 C          -5.0869    3.5250   17.8951 C.3     1  UNL1        0.0214
      5 C          -6.0399    3.2507   19.0206 C.3     1  UNL1        0.0072
      6 C          -4.7481    3.9646   19.2887 C.3     1  UNL1        0.0350
      7 C          -3.4110    4.6431   19.2487 C.3     1  UNL1        0.0761
      8 C          -4.9658    4.1341   20.7631 C.ar    1  UNL1       -0.0215
      9 C          -5.4744    5.4387   21.3011 C.ar    1  UNL1       -0.0043
     10 C          -5.6921    5.6082   22.7755 C.ar    1  UNL1        0.0035
     11 C          -5.4011    4.4731   23.7120 C.ar    1  UNL1        0.0714
     12 C          -4.8925    3.1685   23.1740 C.ar    1  UNL1        0.0035
     13 C          -4.6748    2.9990   21.6996 C.ar    1  UNL1       -0.0043
     14 C          -5.6188    4.6426   25.1864 C.3     1  UNL1        0.4186
     15 F          -5.8364    4.8121   26.6608 F       1  UNL1       -0.1659
     16 F          -4.7692    3.4349   25.4507 F       1  UNL1       -0.1659
     17 F          -6.4684    5.8502   24.9221 F       1  UNL1       -0.1659
     18 C          -0.4253    4.3079   17.1889 C.3     1  UNL1        0.0294
     19 C          -0.2761    3.0958   18.0598 C.3     1  UNL1        0.0666
     20 S           1.0722    2.7222   18.6005 S.3     1  UNL1       -0.0756
     21 C           2.3593   -0.7520   19.7576 C.ar    1  UNL1        0.1680
     22 N           0.9527   -0.7760   20.2779 N.ar    1  UNL1       -0.1282
     23 N           0.2993    0.5225   19.9078 N.ar    1  UNL1       -0.1221
     24 C           1.3022    1.3491   19.1587 C.ar    1  UNL1        0.1932
     25 N           2.5753    0.5614   19.0659 N.ar    1  UNL1       -0.2884
     26 C           3.8420    1.0086   18.3985 C.3     1  UNL1        0.1340
     27 C           3.6001   -1.3022   22.4330 C.3     1  UNL1        0.0522
     28 C           3.9926   -2.1238   21.2411 C.ar    1  UNL1        0.0623
     29 N           5.0054   -3.2205   21.3868 N.ar    1  UNL1       -0.2480
     30 C           5.3979   -4.0422   20.1948 C.ar    1  UNL1        0.0984
     31 C           4.7776   -3.7671   18.8571 C.ar    1  UNL1        0.0208
     32 C           3.7647   -2.6704   18.7114 C.ar    1  UNL1        0.0058
     33 C           3.3722   -1.8488   19.9034 C.ar    1  UNL1        0.0495
@<TRIPOS>BOND
     1    27    28    1
     2    28    29   ar
     3    29    30   ar
     4    30    31   ar
     5    31    32   ar
     6    32    33   ar
     7    33    21    1
     8    21    22   ar
     9    22    23   ar
    10    23    24   ar
    11    24    20    1
    12    20    19    1
    13    19    18    1
    14    18     1    1
    15     1     2    1
    16     2     3    1
    17     4     3    1
    18     4     5    1
    19     5     6    1
    20     6     8    1
    21     8     9   ar
    22     9    10   ar
    23    10    11   ar
    24    11    14    1
    25    14    15    1
    26    14    16    1
    27    14    17    1
    28    11    12   ar
    29    12    13   ar
    30     6     7    1
    31    24    25   ar
    32    25    26    1
    33    33    28   ar
    34    25    21   ar
    35     7     2    1
    36     6     4    1
    37    13     8   ar
@<TRIPOS>MOLECULE
*****
 33 37 0 0 0
SMALL
GASTEIGER

@<TRIPOS>ATOM
      1 C           3.4828    4.3556   21.9211 C.3     1  UNL1        0.0730
      2 N           2.8051    3.5744   20.8345 N.3     1  UNL1       -0.2724
      3 C           1.6998    4.0706   19.9499 C.3     1  UNL1        0.0724
      4 C           1.3253    2.9627   19.0106 C.3     1  UNL1        0.0214
      5 C           1.1752    1.6958   18.2216 C.3     1  UNL1        0.0072
      6 C           2.1990    1.7819   19.3146 C.3     1  UNL1        0.0350
      7 C           3.1135    2.1600   20.4419 C.3     1  UNL1        0.0761
      8 C           2.7215    0.3855   19.1505 C.ar    1  UNL1       -0.0215
      9 C           3.6263    0.0534   18.0011 C.ar    1  UNL1       -0.0043
     10 C           4.1488   -1.3430   17.8370 C.ar    1  UNL1        0.0035
     11 C           3.7665   -2.4074   18.8223 C.ar    1  UNL1        0.0714
     12 C           2.8617   -2.0754   19.9717 C.ar    1  UNL1        0.0035
     13 C           2.3392   -0.6790   20.1358 C.ar    1  UNL1       -0.0043
     14 C           4.2890   -3.8039   18.6581 C.3     1  UNL1        0.4186
     15 F           4.8115   -5.2003   18.4940 F       1  UNL1       -0.1659
     16 F           5.4975   -3.2684   17.9490 F       1  UNL1       -0.1659
     17 F           3.0806   -4.3394   19.3673 F       1  UNL1       -0.1659
     18 C           2.9934    4.2534   23.3353 C.3     1  UNL1        0.0294
     19 C           1.8928    5.1526   23.8149 C.3     1  UNL1        0.0666
     20 S           0.5280    4.5905   24.0823 S.3     1  UNL1       -0.0756
     21 C          -1.7328    3.3943   21.1628 C.ar    1  UNL1        0.1680
     22 N          -0.9761    2.1379   21.4770 N.ar    1  UNL1       -0.1282
     23 N          -0.0371    2.4330   22.6088 N.ar    1  UNL1       -0.1221
     24 C          -0.2134    3.8719   22.9942 C.ar    1  UNL1        0.1932
     25 N          -1.2615    4.4660   22.1005 N.ar    1  UNL1       -0.2884
     26 C          -1.7520    5.8830   22.1380 C.3     1  UNL1        0.1340
     27 C          -4.6303    3.0027   21.8345 C.3     1  UNL1        0.0522
     28 C          -4.2262    3.3557   20.4337 C.ar    1  UNL1        0.0623
     29 N          -5.2708    3.5129   19.3688 N.ar    1  UNL1       -0.2480
     30 C          -4.8667    3.8659   17.9681 C.ar    1  UNL1        0.0984
     31 C          -3.4180    4.0617   17.6322 C.ar    1  UNL1        0.0208
     32 C          -2.3734    3.9045   18.6971 C.ar    1  UNL1        0.0058
     33 C          -2.7775    3.5515   20.0979 C.ar    1  UNL1        0.0495
@<TRIPOS>BOND
     1    27    28    1
     2    28    29   ar
     3    29    30   ar
     4    30    31   ar
     5    31    32   ar
     6    32    33   ar
     7    33    21    1
     8    21    22   ar
     9    22    23   ar
    10    23    24   ar
    11    24    20    1
    12    20    19    1
    13    19    18    1
    14    18     1    1
    15     1     2    1
    16     2     3    1
    17     4     3    1
    18     4     5    1
    19     5     6    1
    20     6     8    1
    21     8     9   ar
    22     9    10   ar
    23    10    11   ar
    24    11    14    1
    25    14    15    1
    26    14    16    1
    27    14    17    1
    28    11    12   ar
    29    12    13   ar
    30     6     7    1
    31    24    25   ar
    32    25    26    1
    33    33    28   ar
    34    25    21   ar
    35     7     2    1
    36     6     4    1
    37    13     8   ar
