@<TRIPOS>MOLECULE
*****
 19 21 0 0 0
SMALL
GASTEIGER

@<TRIPOS>ATOM
      1 C          -5.8463  -21.1773   19.8047 C.3     1  UNL1        0.0310
      2 C          -6.6041  -20.1527   20.5959 C.ar    1  UNL1       -0.0221
      3 C          -5.9954  -19.5584   21.8313 C.ar    1  UNL1       -0.0046
      4 C          -6.7532  -18.5338   22.6224 C.ar    1  UNL1       -0.0045
      5 C          -8.1198  -18.1035   22.1782 C.ar    1  UNL1       -0.0197
      6 C          -8.7285  -18.6979   20.9428 C.ar    1  UNL1       -0.0101
      7 C          -7.9707  -19.7224   20.1517 C.ar    1  UNL1       -0.0075
      8 C         -10.0951  -18.2676   20.4985 C.3     1  UNL1        0.0989
      9 N         -10.8529  -17.2430   21.2897 N.3     1  UNL1       -0.2671
     10 C         -12.2195  -16.8127   20.8454 C.3     1  UNL1        0.0899
     11 C         -10.2441  -16.6487   22.5251 C.3     1  UNL1        0.0811
     12 C          -8.8776  -17.0790   22.9693 C.3     1  UNL1        0.0602
     13 C          -8.2689  -16.4846   24.2047 C.ar    1  UNL1       -0.0169
     14 C          -7.0439  -15.6255   24.0985 C.ar    1  UNL1       -0.0016
     15 C          -6.4352  -15.0311   25.3340 C.ar    1  UNL1        0.0293
     16 C          -7.0515  -15.2960   26.6756 C.ar    1  UNL1        0.1401
     17 F          -6.4428  -14.7017   27.9111 F       1  UNL1       -0.2042
     18 C          -8.2764  -16.1552   26.7818 C.ar    1  UNL1        0.0293
     19 C          -8.8851  -16.7495   25.5465 C.ar    1  UNL1       -0.0016
@<TRIPOS>BOND
     1     1     2    1
     2     2     3   ar
     3     3     4   ar
     4     4     5   ar
     5     5     6   ar
     6     6     7   ar
     7     6     8    1
     8     8     9    1
     9     9    10    1
    10     9    11    1
    11    11    12    1
    12    12    13    1
    13    13    14   ar
    14    14    15   ar
    15    15    16   ar
    16    16    17    1
    17    16    18   ar
    18    18    19   ar
    19     7     2   ar
    20    19    13   ar
    21    12     5    1
@<TRIPOS>MOLECULE
*****
 19 21 0 0 0
SMALL
GASTEIGER

@<TRIPOS>ATOM
      1 C          -8.7631  -20.6140   18.2985 C.3     1  UNL1        0.0310
      2 C          -9.0045  -19.8126   19.5433 C.ar    1  UNL1       -0.0221
      3 C          -7.8587  -19.1312   20.2307 C.ar    1  UNL1       -0.0046
      4 C          -8.1001  -18.3298   21.4755 C.ar    1  UNL1       -0.0045
      5 C          -9.4875  -18.2099   22.0329 C.ar    1  UNL1       -0.0197
      6 C         -10.6334  -18.8913   21.3455 C.ar    1  UNL1       -0.0101
      7 C         -10.3919  -19.6927   20.1007 C.ar    1  UNL1       -0.0075
      8 C         -12.0209  -18.7713   21.9029 C.3     1  UNL1        0.0989
      9 N         -12.2624  -17.9699   23.1476 N.3     1  UNL1       -0.2671
     10 C         -13.6498  -17.8500   23.7050 C.3     1  UNL1        0.0899
     11 C         -11.1164  -17.2885   23.8350 C.3     1  UNL1        0.0811
     12 C          -9.7290  -17.4085   23.2776 C.3     1  UNL1        0.0602
     13 C          -8.5831  -16.7270   23.9650 C.ar    1  UNL1       -0.0169
     14 C          -7.3892  -16.2841   23.1723 C.ar    1  UNL1       -0.0016
     15 C          -6.2433  -15.6026   23.8598 C.ar    1  UNL1        0.0293
     16 C          -6.2913  -15.3642   25.3399 C.ar    1  UNL1        0.1401
     17 F          -5.1454  -14.6827   26.0273 F       1  UNL1       -0.2042
     18 C          -7.4852  -15.8071   26.1326 C.ar    1  UNL1        0.0293
     19 C          -8.6311  -16.4886   25.4452 C.ar    1  UNL1       -0.0016
@<TRIPOS>BOND
     1     1     2    1
     2     2     3   ar
     3     3     4   ar
     4     4     5   ar
     5     5     6   ar
     6     6     7   ar
     7     6     8    1
     8     8     9    1
     9     9    10    1
    10     9    11    1
    11    11    12    1
    12    12    13    1
    13    13    14   ar
    14    14    15   ar
    15    15    16   ar
    16    16    17    1
    17    16    18   ar
    18    18    19   ar
    19     7     2   ar
    20    19    13   ar
    21    12     5    1
@<TRIPOS>MOLECULE
*****
 19 21 0 0 0
SMALL
GASTEIGER

@<TRIPOS>ATOM
      1 C         -11.6764  -16.3044   22.7306 C.3     1  UNL1        0.0310
      2 C         -10.5632  -17.0874   22.1000 C.ar    1  UNL1       -0.0221
      3 C          -9.1583  -16.9306   22.6014 C.ar    1  UNL1       -0.0046
      4 C          -8.0451  -17.7137   21.9708 C.ar    1  UNL1       -0.0045
      5 C          -8.3368  -18.6535   20.8388 C.ar    1  UNL1       -0.0197
      6 C          -9.7418  -18.8103   20.3374 C.ar    1  UNL1       -0.0101
      7 C         -10.8550  -18.0273   20.9680 C.ar    1  UNL1       -0.0075
      8 C         -10.0336  -19.7502   19.2053 C.3     1  UNL1        0.0989
      9 N          -8.9204  -20.5333   18.5747 N.3     1  UNL1       -0.2671
     10 C          -9.2121  -21.4732   17.4427 C.3     1  UNL1        0.0899
     11 C          -7.5154  -20.3764   19.0762 C.3     1  UNL1        0.0811
     12 C          -7.2236  -19.4366   20.2082 C.3     1  UNL1        0.0602
     13 C          -5.8187  -19.2798   20.7096 C.ar    1  UNL1       -0.0169
     14 C          -4.7167  -18.9269   19.7551 C.ar    1  UNL1       -0.0016
     15 C          -3.3116  -18.7701   20.2566 C.ar    1  UNL1        0.0293
     16 C          -3.0087  -18.9661   21.7126 C.ar    1  UNL1        0.1401
     17 F          -1.6037  -18.8093   22.2141 F       1  UNL1       -0.2042
     18 C          -4.1107  -19.3190   22.6670 C.ar    1  UNL1        0.0293
     19 C          -5.5157  -19.4758   22.1656 C.ar    1  UNL1       -0.0016
@<TRIPOS>BOND
     1     1     2    1
     2     2     3   ar
     3     3     4   ar
     4     4     5   ar
     5     5     6   ar
     6     6     7   ar
     7     6     8    1
     8     8     9    1
     9     9    10    1
    10     9    11    1
    11    11    12    1
    12    12    13    1
    13    13    14   ar
    14    14    15   ar
    15    15    16   ar
    16    16    17    1
    17    16    18   ar
    18    18    19   ar
    19     7     2   ar
    20    19    13   ar
    21    12     5    1
@<TRIPOS>MOLECULE
*****
 19 21 0 0 0
SMALL
GASTEIGER

@<TRIPOS>ATOM
      1 C          -8.8557  -15.1635   25.5207 C.3     1  UNL1        0.0310
      2 C          -8.3531  -16.0569   24.4256 C.ar    1  UNL1       -0.0221
      3 C          -6.8784  -16.2562   24.2376 C.ar    1  UNL1       -0.0046
      4 C          -6.3758  -17.1495   23.1425 C.ar    1  UNL1       -0.0045
      5 C          -7.3480  -17.8436   22.2353 C.ar    1  UNL1       -0.0197
      6 C          -8.8228  -17.6443   22.4232 C.ar    1  UNL1       -0.0101
      7 C          -9.3253  -16.7509   23.5183 C.ar    1  UNL1       -0.0075
      8 C          -9.7950  -18.3384   21.5160 C.3     1  UNL1        0.0989
      9 N          -9.2925  -19.2317   20.4208 N.3     1  UNL1       -0.2671
     10 C         -10.2647  -19.9258   19.5136 C.3     1  UNL1        0.0899
     11 C          -7.8177  -19.4310   20.2329 C.3     1  UNL1        0.0811
     12 C          -6.8455  -18.7370   21.1401 C.3     1  UNL1        0.0602
     13 C          -5.3707  -18.9363   20.9522 C.ar    1  UNL1       -0.0169
     14 C          -4.5212  -19.3819   22.1053 C.ar    1  UNL1       -0.0016
     15 C          -3.0463  -19.5812   21.9173 C.ar    1  UNL1        0.0293
     16 C          -2.4212  -19.3349   20.5763 C.ar    1  UNL1        0.1401
     17 F          -0.9463  -19.5342   20.3883 F       1  UNL1       -0.2042
     18 C          -3.2707  -18.8893   19.4232 C.ar    1  UNL1        0.0293
     19 C          -4.7455  -18.6900   19.6111 C.ar    1  UNL1       -0.0016
@<TRIPOS>BOND
     1     1     2    1
     2     2     3   ar
     3     3     4   ar
     4     4     5   ar
     5     5     6   ar
     6     6     7   ar
     7     6     8    1
     8     8     9    1
     9     9    10    1
    10     9    11    1
    11    11    12    1
    12    12    13    1
    13    13    14   ar
    14    14    15   ar
    15    15    16   ar
    16    16    17    1
    17    16    18   ar
    18    18    19   ar
    19     7     2   ar
    20    19    13   ar
    21    12     5    1
@<TRIPOS>MOLECULE
*****
 19 21 0 0 0
SMALL
GASTEIGER

@<TRIPOS>ATOM
      1 C         -17.0889  -11.0390   18.6073 C.3     1  UNL1        0.0310
      2 C         -16.4359   -9.6890   18.6406 C.ar    1  UNL1       -0.0221
      3 C         -15.0021   -9.5390   18.2267 C.ar    1  UNL1       -0.0046
      4 C         -14.3491   -8.1890   18.2600 C.ar    1  UNL1       -0.0045
      5 C         -15.1300   -6.9890   18.7074 C.ar    1  UNL1       -0.0197
      6 C         -16.5639   -7.1390   19.1213 C.ar    1  UNL1       -0.0101
      7 C         -17.2169   -8.4890   19.0880 C.ar    1  UNL1       -0.0075
      8 C         -17.3449   -5.9390   19.5687 C.3     1  UNL1        0.0989
      9 N         -16.6920   -4.5890   19.6021 N.3     1  UNL1       -0.2671
     10 C         -17.4729   -3.3890   20.0494 C.3     1  UNL1        0.0899
     11 C         -15.2580   -4.4390   19.1881 C.3     1  UNL1        0.0811
     12 C         -14.4771   -5.6390   18.7407 C.3     1  UNL1        0.0602
     13 C         -13.0432   -5.4889   18.3268 C.ar    1  UNL1       -0.0169
     14 C         -11.9547   -5.5507   19.3570 C.ar    1  UNL1       -0.0016
     15 C         -10.5208   -5.4006   18.9430 C.ar    1  UNL1        0.0293
     16 C         -10.1754   -5.1888   17.4987 C.ar    1  UNL1        0.1401
     17 F          -8.7414   -5.0388   17.0847 F       1  UNL1       -0.2042
     18 C         -11.2639   -5.1271   16.4685 C.ar    1  UNL1        0.0293
     19 C         -12.6977   -5.2772   16.8825 C.ar    1  UNL1       -0.0016
@<TRIPOS>BOND
     1     1     2    1
     2     2     3   ar
     3     3     4   ar
     4     4     5   ar
     5     5     6   ar
     6     6     7   ar
     7     6     8    1
     8     8     9    1
     9     9    10    1
    10     9    11    1
    11    11    12    1
    12    12    13    1
    13    13    14   ar
    14    14    15   ar
    15    15    16   ar
    16    16    17    1
    17    16    18   ar
    18    18    19   ar
    19     7     2   ar
    20    19    13   ar
    21    12     5    1
@<TRIPOS>MOLECULE
*****
 19 21 0 0 0
SMALL
GASTEIGER

@<TRIPOS>ATOM
      1 C           4.8223   -1.6911   26.0894 C.3     1  UNL1        0.0310
      2 C           4.3710   -1.6394   24.6598 C.ar    1  UNL1       -0.0221
      3 C           3.5527   -0.4803   24.1732 C.ar    1  UNL1       -0.0046
      4 C           3.1013   -0.4286   22.7437 C.ar    1  UNL1       -0.0045
      5 C           3.4682   -1.5359   21.8008 C.ar    1  UNL1       -0.0197
      6 C           4.2866   -2.6950   22.2874 C.ar    1  UNL1       -0.0101
      7 C           4.7379   -2.7467   23.7169 C.ar    1  UNL1       -0.0075
      8 C           4.6535   -3.8024   21.3445 C.3     1  UNL1        0.0989
      9 N           4.2022   -3.7507   19.9149 N.3     1  UNL1       -0.2671
     10 C           4.5691   -4.8580   18.9720 C.3     1  UNL1        0.0899
     11 C           3.3838   -2.5915   19.4283 C.3     1  UNL1        0.0811
     12 C           3.0169   -1.4842   20.3712 C.3     1  UNL1        0.0602
     13 C           2.1986   -0.3251   19.8846 C.ar    1  UNL1       -0.0169
     14 C           0.7791   -0.1646   20.3421 C.ar    1  UNL1       -0.0016
     15 C          -0.0392    0.9946   19.8554 C.ar    1  UNL1        0.0293
     16 C           0.5619    1.9931   18.9112 C.ar    1  UNL1        0.1401
     17 F          -0.2564    3.1523   18.4245 F       1  UNL1       -0.2042
     18 C           1.9814    1.8326   18.4537 C.ar    1  UNL1        0.0293
     19 C           2.7997    0.6735   18.9403 C.ar    1  UNL1       -0.0016
@<TRIPOS>BOND
     1     1     2    1
     2     2     3   ar
     3     3     4   ar
     4     4     5   ar
     5     5     6   ar
     6     6     7   ar
     7     6     8    1
     8     8     9    1
     9     9    10    1
    10     9    11    1
    11    11    12    1
    12    12    13    1
    13    13    14   ar
    14    14    15   ar
    15    15    16   ar
    16    16    17    1
    17    16    18   ar
    18    18    19   ar
    19     7     2   ar
    20    19    13   ar
    21    12     5    1
@<TRIPOS>MOLECULE
*****
 19 21 0 0 0
SMALL
GASTEIGER

@<TRIPOS>ATOM
      1 C           4.6615   -5.2793   18.9480 C.3     1  UNL1        0.0310
      2 C           4.2037   -4.0616   19.6948 C.ar    1  UNL1       -0.0221
      3 C           3.4310   -2.9913   18.9826 C.ar    1  UNL1       -0.0046
      4 C           2.9732   -1.7737   19.7294 C.ar    1  UNL1       -0.0045
      5 C           3.2881   -1.6264   21.1885 C.ar    1  UNL1       -0.0197
      6 C           4.0607   -2.6967   21.9008 C.ar    1  UNL1       -0.0101
      7 C           4.5185   -3.9143   21.1540 C.ar    1  UNL1       -0.0075
      8 C           4.3756   -2.5494   23.3600 C.3     1  UNL1        0.0989
      9 N           3.9178   -1.3318   24.1069 N.3     1  UNL1       -0.2671
     10 C           4.2326   -1.1845   25.5660 C.3     1  UNL1        0.0899
     11 C           3.1451   -0.2614   23.3945 C.3     1  UNL1        0.0811
     12 C           2.8303   -0.4088   21.9354 C.3     1  UNL1        0.0602
     13 C           2.0576    0.6616   21.2231 C.ar    1  UNL1       -0.0169
     14 C           2.7838    1.7820   20.5396 C.ar    1  UNL1       -0.0016
     15 C           2.0111    2.8523   19.8273 C.ar    1  UNL1        0.0293
     16 C           0.5122    2.8022   19.7985 C.ar    1  UNL1        0.1401
     17 F          -0.2605    3.8726   19.0862 F       1  UNL1       -0.2042
     18 C          -0.2140    1.6818   20.4821 C.ar    1  UNL1        0.0293
     19 C           0.5587    0.6115   21.1944 C.ar    1  UNL1       -0.0016
@<TRIPOS>BOND
     1     1     2    1
     2     2     3   ar
     3     3     4   ar
     4     4     5   ar
     5     5     6   ar
     6     6     7   ar
     7     6     8    1
     8     8     9    1
     9     9    10    1
    10     9    11    1
    11    11    12    1
    12    12    13    1
    13    13    14   ar
    14    14    15   ar
    15    15    16   ar
    16    16    17    1
    17    16    18   ar
    18    18    19   ar
    19     7     2   ar
    20    19    13   ar
    21    12     5    1
@<TRIPOS>MOLECULE
*****
 19 21 0 0 0
SMALL
GASTEIGER

@<TRIPOS>ATOM
      1 C           7.4601    1.6272   16.2565 C.3     1  UNL1        0.0310
      2 C           6.4625    0.9243   17.1287 C.ar    1  UNL1       -0.0221
      3 C           5.4907    1.7203   17.9485 C.ar    1  UNL1       -0.0046
      4 C           4.4931    1.0174   18.8207 C.ar    1  UNL1       -0.0045
      5 C           4.4672   -0.4815   18.8730 C.ar    1  UNL1       -0.0197
      6 C           5.4390   -1.2774   18.0532 C.ar    1  UNL1       -0.0101
      7 C           6.4366   -0.5745   17.1810 C.ar    1  UNL1       -0.0075
      8 C           5.4131   -2.7763   18.1055 C.3     1  UNL1        0.0989
      9 N           4.4155   -3.4792   18.9776 N.3     1  UNL1       -0.2671
     10 C           4.3896   -4.9781   19.0300 C.3     1  UNL1        0.0899
     11 C           3.4437   -2.6832   19.7975 C.3     1  UNL1        0.0811
     12 C           3.4696   -1.1844   19.7452 C.3     1  UNL1        0.0602
     13 C           2.4979   -0.3885   20.5650 C.ar    1  UNL1       -0.0169
     14 C           1.1646   -0.0110   19.9905 C.ar    1  UNL1       -0.0016
     15 C           0.1929    0.7850   20.8105 C.ar    1  UNL1        0.0293
     16 C           0.5544    1.2034   22.2048 C.ar    1  UNL1        0.1401
     17 F          -0.4174    1.9994   23.0247 F       1  UNL1       -0.2042
     18 C           1.8876    0.8260   22.7792 C.ar    1  UNL1        0.0293
     19 C           2.8593    0.0301   21.9594 C.ar    1  UNL1       -0.0016
@<TRIPOS>BOND
     1     1     2    1
     2     2     3   ar
     3     3     4   ar
     4     4     5   ar
     5     5     6   ar
     6     6     7   ar
     7     6     8    1
     8     8     9    1
     9     9    10    1
    10     9    11    1
    11    11    12    1
    12    12    13    1
    13    13    14   ar
    14    14    15   ar
    15    15    16   ar
    16    16    17    1
    17    16    18   ar
    18    18    19   ar
    19     7     2   ar
    20    19    13   ar
    21    12     5    1
@<TRIPOS>MOLECULE
*****
 19 21 0 0 0
SMALL
GASTEIGER

@<TRIPOS>ATOM
      1 C          -7.0417  -14.4220   27.8664 C.3     1  UNL1        0.0310
      2 C          -7.0213  -15.2118   26.5913 C.ar    1  UNL1       -0.0221
      3 C          -5.7379  -15.8162   26.1039 C.ar    1  UNL1       -0.0046
      4 C          -5.7174  -16.6060   24.8288 C.ar    1  UNL1       -0.0045
      5 C          -6.9804  -16.7914   24.0412 C.ar    1  UNL1       -0.0197
      6 C          -8.2638  -16.1871   24.5286 C.ar    1  UNL1       -0.0101
      7 C          -8.2842  -15.3973   25.8036 C.ar    1  UNL1       -0.0075
      8 C          -9.5269  -16.3725   23.7409 C.3     1  UNL1        0.0989
      9 N          -9.5064  -17.1623   22.4658 N.3     1  UNL1       -0.2671
     10 C         -10.7694  -17.3478   21.6781 C.3     1  UNL1        0.0899
     11 C          -8.2229  -17.7667   21.9784 C.3     1  UNL1        0.0811
     12 C          -6.9600  -17.5812   22.7661 C.3     1  UNL1        0.0602
     13 C          -5.6766  -18.1856   22.2787 C.ar    1  UNL1       -0.0169
     14 C          -4.3779  -17.8159   22.9319 C.ar    1  UNL1       -0.0016
     15 C          -3.0944  -18.4203   22.4444 C.ar    1  UNL1        0.0293
     16 C          -3.1097  -19.3944   21.3039 C.ar    1  UNL1        0.1401
     17 F          -1.8263  -19.9988   20.8164 F       1  UNL1       -0.2042
     18 C          -4.4085  -19.7640   20.6507 C.ar    1  UNL1        0.0293
     19 C          -5.6919  -19.1597   21.1381 C.ar    1  UNL1       -0.0016
@<TRIPOS>BOND
     1     1     2    1
     2     2     3   ar
     3     3     4   ar
     4     4     5   ar
     5     5     6   ar
     6     6     7   ar
     7     6     8    1
     8     8     9    1
     9     9    10    1
    10     9    11    1
    11    11    12    1
    12    12    13    1
    13    13    14   ar
    14    14    15   ar
    15    15    16   ar
    16    16    17    1
    17    16    18   ar
    18    18    19   ar
    19     7     2   ar
    20    19    13   ar
    21    12     5    1
