@<TRIPOS>MOLECULE
*****
 36 40 0 0 0
SMALL
GASTEIGER

@<TRIPOS>ATOM
      1 C          -3.8082  -18.8333   21.2248 C.3     1  UNL1        0.2246
      2 C          -3.0724  -18.2611   22.4000 C.2     1  UNL1        0.0436
      3 C          -1.5741  -18.1904   22.3846 C.2     1  UNL1        0.0288
      4 C          -0.8117  -18.6917   21.1941 C.2     1  UNL1        0.0896
      5 N          -1.5475  -19.2639   20.0189 N.am    1  UNL1       -0.1770
      6 C          -3.0458  -19.3346   20.0343 C.2     1  UNL1        0.2627
      7 O          -3.7816  -19.9068   18.8591 O.2     1  UNL1       -0.2719
      8 C          -8.8791  -20.3077   18.5422 C.3     1  UNL1        0.0312
      9 C          -8.8943  -19.6910   19.9095 C.2     1  UNL1        0.0136
     10 C         -10.1994  -19.4440   20.6063 C.2     1  UNL1        0.0107
     11 C         -10.2147  -18.8274   21.9736 C.2     1  UNL1        0.0510
     12 C          -8.9247  -18.4577   22.6441 C.2     1  UNL1        0.0613
     13 C          -7.6196  -18.7047   21.9472 C.2     1  UNL1        0.2246
     14 N          -6.1994  -18.4468   22.3552 N.2     1  UNL1       -0.0378
     15 C          -5.3065  -18.9041   21.2401 C.2     1  UNL1        0.3605
     16 N          -6.1748  -19.4446   20.1429 N.2     1  UNL1       -0.0547
     17 C          -7.6044  -19.3214   20.5799 C.3     1  UNL1        0.2976
     18 N         -11.5199  -18.5803   22.6705 N.pl3   1  UNL1       -0.3027
     19 C         -12.6773  -18.0016   21.9119 C.3     1  UNL1        0.1231
     20 C         -13.9824  -17.7545   22.6088 C.3     1  UNL1        0.1636
     21 O         -14.1301  -18.0863   24.0642 O.3     1  UNL1       -0.3501
     22 C         -12.9727  -18.6650   24.8227 C.3     1  UNL1        0.1636
     23 C         -11.6675  -18.9121   24.1258 C.3     1  UNL1        0.1231
     24 N          -3.8347  -17.7598   23.5906 N.pl3   1  UNL1       -0.3329
     25 H          -4.4206  -18.3709   24.0929 H       1  UNL1        0.1466
     26 C          -3.7044  -16.3272   24.0157 C.3     1  UNL1        0.1211
     27 C          -4.8484  -15.3781   23.8145 C.3     1  UNL1        0.1522
     28 O          -4.8068  -14.3799   22.6956 O.3     1  UNL1       -0.3783
     29 H          -3.9778  -14.4816   22.2022 H       1  UNL1        0.2109
     30 C          -6.0339  -15.4272   24.7321 C.ar    1  UNL1        0.0067
     31 C          -5.8356  -15.3657   26.2176 C.ar    1  UNL1       -0.0018
     32 C          -7.0211  -15.4148   27.1353 C.ar    1  UNL1        0.0006
     33 C          -8.4051  -15.5254   26.5674 C.ar    1  UNL1        0.0114
     34 C          -8.6034  -15.5868   25.0818 C.ar    1  UNL1        0.0574
     35 CL         -9.9873  -15.6973   24.5139 Cl      1  UNL1       -0.0823
     36 C          -7.4178  -15.5377   24.1642 C.ar    1  UNL1        0.0095
@<TRIPOS>BOND
     1     8     9    1
     2     9    10    2
     3    10    11    1
     4    11    18    1
     5    18    19    1
     6    19    20    1
     7    20    21    1
     8    21    22    1
     9    22    23    1
    10    11    12    2
    11    12    13    1
    12    13    14    2
    13    14    15    1
    14    15     1    1
    15     1     2    1
    16     2    24    1
    17    24    26    1
    18    26    27    1
    19    27    28    1
    20    27    30    1
    21    30    31   ar
    22    31    32   ar
    23    32    33   ar
    24    33    34   ar
    25    34    35    1
    26    34    36   ar
    27     2     3    2
    28     3     4    1
    29     4     5    2
    30     5     6    1
    31     6     7    2
    32    15    16    2
    33    16    17    1
    34    17     9    1
    35    23    18    1
    36    17    13    1
    37     6     1    1
    38    36    30   ar
    39    24    25    1
    40    28    29    1
@<TRIPOS>MOLECULE
*****
 36 40 0 0 0
SMALL
GASTEIGER

@<TRIPOS>ATOM
      1 C          -5.5625  -19.4432   21.3881 C.3     1  UNL1        0.2246
      2 C          -4.3900  -18.9617   22.1902 C.2     1  UNL1        0.0436
      3 C          -3.0061  -19.4313   21.8518 C.2     1  UNL1        0.0288
      4 C          -2.7948  -20.3824   20.7114 C.2     1  UNL1        0.0896
      5 N          -3.9672  -20.8640   19.9093 N.am    1  UNL1       -0.1770
      6 C          -5.3511  -20.3944   20.2477 C.2     1  UNL1        0.2627
      7 O          -6.5235  -20.8759   19.4455 O.2     1  UNL1       -0.2719
      8 C          -9.8087  -15.3356   20.9622 C.3     1  UNL1        0.0312
      9 C         -10.0415  -16.5900   21.7511 C.2     1  UNL1        0.0136
     10 C         -11.3563  -16.8105   22.4386 C.2     1  UNL1        0.0107
     11 C         -11.5891  -18.0648   23.2274 C.2     1  UNL1        0.0510
     12 C         -10.5070  -19.0987   23.3289 C.2     1  UNL1        0.0613
     13 C          -9.1922  -18.8782   22.6415 C.2     1  UNL1        0.2246
     14 N          -7.9480  -19.7125   22.5635 N.2     1  UNL1       -0.0378
     15 C          -6.9463  -18.9736   21.7264 C.2     1  UNL1        0.3605
     16 N          -7.5714  -17.6828   21.2870 N.2     1  UNL1       -0.0547
     17 C          -8.9594  -17.6238   21.8526 C.3     1  UNL1        0.2976
     18 N         -12.9040  -18.2853   23.9149 N.pl3   1  UNL1       -0.3027
     19 C         -12.9483  -18.4939   25.3996 C.3     1  UNL1        0.1231
     20 C         -14.2632  -18.7144   26.0871 C.3     1  UNL1        0.1636
     21 O         -15.5336  -18.7264   25.2897 O.3     1  UNL1       -0.3501
     22 C         -15.4893  -18.5178   23.8050 C.3     1  UNL1        0.1636
     23 C         -14.1745  -18.2973   23.1175 C.3     1  UNL1        0.1231
     24 N          -4.6013  -18.0106   23.3307 N.pl3   1  UNL1       -0.3329
     25 H          -5.1687  -18.2725   24.0914 H       1  UNL1        0.1466
     26 C          -3.9481  -16.6604   23.3122 C.3     1  UNL1        0.1211
     27 C          -4.7681  -15.4273   23.5511 C.3     1  UNL1        0.1522
     28 O          -4.5738  -14.2180   22.6850 O.3     1  UNL1       -0.3783
     29 H          -3.8863  -14.3998   22.0253 H       1  UNL1        0.2109
     30 C          -5.7822  -15.4034   24.6560 C.ar    1  UNL1        0.0067
     31 C          -5.3424  -15.1848   26.0732 C.ar    1  UNL1       -0.0018
     32 C          -6.3565  -15.1610   27.1782 C.ar    1  UNL1        0.0006
     33 C          -7.8107  -15.3556   26.8658 C.ar    1  UNL1        0.0114
     34 C          -8.2506  -15.5741   25.4485 C.ar    1  UNL1        0.0574
     35 CL         -9.7047  -15.7688   25.1362 Cl      1  UNL1       -0.0823
     36 C          -7.2364  -15.5980   24.3436 C.ar    1  UNL1        0.0095
@<TRIPOS>BOND
     1     8     9    1
     2     9    10    2
     3    10    11    1
     4    11    18    1
     5    18    19    1
     6    19    20    1
     7    20    21    1
     8    21    22    1
     9    22    23    1
    10    11    12    2
    11    12    13    1
    12    13    14    2
    13    14    15    1
    14    15     1    1
    15     1     2    1
    16     2    24    1
    17    24    26    1
    18    26    27    1
    19    27    28    1
    20    27    30    1
    21    30    31   ar
    22    31    32   ar
    23    32    33   ar
    24    33    34   ar
    25    34    35    1
    26    34    36   ar
    27     2     3    2
    28     3     4    1
    29     4     5    2
    30     5     6    1
    31     6     7    2
    32    15    16    2
    33    16    17    1
    34    17     9    1
    35    23    18    1
    36    17    13    1
    37     6     1    1
    38    36    30   ar
    39    24    25    1
    40    28    29    1
@<TRIPOS>MOLECULE
*****
 36 40 0 0 0
SMALL
GASTEIGER

@<TRIPOS>ATOM
      1 C          -0.5044    3.5418   19.8387 C.3     1  UNL1        0.2246
      2 C           0.1533    3.0748   18.5740 C.2     1  UNL1        0.0436
      3 C          -0.3970    3.4948   17.2433 C.2     1  UNL1        0.0288
      4 C          -1.6048    4.3819   17.1771 C.2     1  UNL1        0.0896
      5 N          -2.2624    4.8489   18.4418 N.am    1  UNL1       -0.1770
      6 C          -1.7121    4.4289   19.7726 C.2     1  UNL1        0.2627
      7 O          -2.3698    4.8959   21.0372 O.2     1  UNL1       -0.2719
      8 C           4.1019    3.0164   23.5253 C.3     1  UNL1        0.0312
      9 C           2.7354    2.5642   23.9475 C.2     1  UNL1        0.0136
     10 C           2.5286    1.9743   25.3111 C.2     1  UNL1        0.0107
     11 C           1.1622    1.5221   25.7333 C.2     1  UNL1        0.0510
     12 C           0.0025    1.6597   24.7919 C.2     1  UNL1        0.0613
     13 C           0.2092    2.2495   23.4283 C.2     1  UNL1        0.2246
     14 N          -0.7363    2.5091   22.2932 N.2     1  UNL1       -0.0378
     15 C           0.0458    3.1219   21.1694 C.2     1  UNL1        0.3605
     16 N           1.4747    3.2409   21.6100 N.2     1  UNL1       -0.0547
     17 C           1.5757    2.7017   23.0061 C.3     1  UNL1        0.2976
     18 N           0.9555    0.9322   27.0969 N.pl3   1  UNL1       -0.3027
     19 C           2.1296    0.4250   27.8805 C.3     1  UNL1        0.1231
     20 C           1.9229   -0.1649   29.2441 C.3     1  UNL1        0.1636
     21 O           0.5420   -0.2474   29.8240 O.3     1  UNL1       -0.3501
     22 C          -0.6321    0.2598   29.0404 C.3     1  UNL1        0.1636
     23 C          -0.4254    0.8497   27.6768 C.3     1  UNL1        0.1231
     24 N           1.3610    2.1878   18.6400 N.pl3   1  UNL1       -0.3329
     25 H           2.2598    2.5841   18.7070 H       1  UNL1        0.1466
     26 C           1.1996    0.6969   18.6040 C.3     1  UNL1        0.1211
     27 C           0.9595   -0.0623   19.8752 C.3     1  UNL1        0.1522
     28 O          -0.3965   -0.0420   20.5162 O.3     1  UNL1       -0.3783
     29 H          -0.9971    0.5041   19.9851 H       1  UNL1        0.2109
     30 C           2.0753   -0.8419   20.5053 C.ar    1  UNL1        0.0067
     31 C           2.8342   -1.8522   19.6971 C.ar    1  UNL1       -0.0018
     32 C           3.9500   -2.6318   20.3272 C.ar    1  UNL1        0.0006
     33 C           4.3071   -2.4011   21.7657 C.ar    1  UNL1        0.0114
     34 C           3.5482   -1.3908   22.5740 C.ar    1  UNL1        0.0574
     35 CL          3.9053   -1.1601   24.0125 Cl      1  UNL1       -0.0823
     36 C           2.4324   -0.6112   21.9439 C.ar    1  UNL1        0.0095
@<TRIPOS>BOND
     1     8     9    1
     2     9    10    2
     3    10    11    1
     4    11    18    1
     5    18    19    1
     6    19    20    1
     7    20    21    1
     8    21    22    1
     9    22    23    1
    10    11    12    2
    11    12    13    1
    12    13    14    2
    13    14    15    1
    14    15     1    1
    15     1     2    1
    16     2    24    1
    17    24    26    1
    18    26    27    1
    19    27    28    1
    20    27    30    1
    21    30    31   ar
    22    31    32   ar
    23    32    33   ar
    24    33    34   ar
    25    34    35    1
    26    34    36   ar
    27     2     3    2
    28     3     4    1
    29     4     5    2
    30     5     6    1
    31     6     7    2
    32    15    16    2
    33    16    17    1
    34    17     9    1
    35    23    18    1
    36    17    13    1
    37     6     1    1
    38    36    30   ar
    39    24    25    1
    40    28    29    1
@<TRIPOS>MOLECULE
*****
 36 40 0 0 0
SMALL
GASTEIGER

@<TRIPOS>ATOM
      1 C           2.4640    0.6373   21.8135 C.3     1  UNL1        0.2246
      2 C           2.3575    1.0876   20.3866 C.2     1  UNL1        0.0436
      3 C           1.2311    1.9842   19.9652 C.2     1  UNL1        0.0288
      4 C           0.2113    2.4304   20.9706 C.2     1  UNL1        0.0896
      5 N           0.3178    1.9802   22.3974 N.am    1  UNL1       -0.1770
      6 C           1.4442    1.0836   22.8188 C.2     1  UNL1        0.2627
      7 O           1.5506    0.6333   24.2457 O.2     1  UNL1       -0.2719
      8 C           8.2803   -0.3701   22.3041 C.3     1  UNL1        0.0312
      9 C           7.2896   -1.3926   22.7763 C.2     1  UNL1        0.0136
     10 C           7.7697   -2.6803   23.3775 C.2     1  UNL1        0.0107
     11 C           6.7791   -3.7028   23.8497 C.2     1  UNL1        0.0510
     12 C           5.3083   -3.4377   23.7208 C.2     1  UNL1        0.0613
     13 C           4.8282   -2.1500   23.1197 C.2     1  UNL1        0.2246
     14 N           3.4509   -1.6134   22.8648 N.2     1  UNL1       -0.0378
     15 C           3.5903   -0.2592   22.2350 C.2     1  UNL1        0.3605
     16 N           5.0538    0.0411   22.1006 N.2     1  UNL1       -0.0547
     17 C           5.8189   -1.1275   22.6474 C.3     1  UNL1        0.2976
     18 N           7.2592   -4.9906   24.4508 N.pl3   1  UNL1       -0.3027
     19 C           6.9412   -5.3155   25.8803 C.3     1  UNL1        0.1231
     20 C           7.4212   -6.6032   26.4814 C.3     1  UNL1        0.1636
     21 O           8.2194   -7.5659   25.6532 O.3     1  UNL1       -0.3501
     22 C           8.5374   -7.2410   24.2237 C.3     1  UNL1        0.1636
     23 C           8.0574   -5.9533   23.6226 C.3     1  UNL1        0.1231
     24 N           3.3773    0.6414   19.3812 N.pl3   1  UNL1       -0.3329
     25 H           4.3370    0.7500   19.5721 H       1  UNL1        0.1466
     26 C           2.9349    0.0297   18.0850 C.3     1  UNL1        0.1211
     27 C           3.7125   -1.1053   17.4874 C.3     1  UNL1        0.1522
     28 O           3.7037   -1.3210   16.0030 O.3     1  UNL1       -0.3783
     29 H           3.1513   -0.6443   15.5813 H       1  UNL1        0.2109
     30 C           4.4988   -2.0247   18.3742 C.ar    1  UNL1        0.0067
     31 C           3.7958   -3.0913   19.1604 C.ar    1  UNL1       -0.0018
     32 C           4.5822   -4.0107   20.0472 C.ar    1  UNL1        0.0006
     33 C           6.0715   -3.8635   20.1478 C.ar    1  UNL1        0.0114
     34 C           6.7745   -2.7969   19.3617 C.ar    1  UNL1        0.0574
     35 CL          8.2638   -2.6497   19.4623 Cl      1  UNL1       -0.0823
     36 C           5.9882   -1.8775   18.4749 C.ar    1  UNL1        0.0095
@<TRIPOS>BOND
     1     8     9    1
     2     9    10    2
     3    10    11    1
     4    11    18    1
     5    18    19    1
     6    19    20    1
     7    20    21    1
     8    21    22    1
     9    22    23    1
    10    11    12    2
    11    12    13    1
    12    13    14    2
    13    14    15    1
    14    15     1    1
    15     1     2    1
    16     2    24    1
    17    24    26    1
    18    26    27    1
    19    27    28    1
    20    27    30    1
    21    30    31   ar
    22    31    32   ar
    23    32    33   ar
    24    33    34   ar
    25    34    35    1
    26    34    36   ar
    27     2     3    2
    28     3     4    1
    29     4     5    2
    30     5     6    1
    31     6     7    2
    32    15    16    2
    33    16    17    1
    34    17     9    1
    35    23    18    1
    36    17    13    1
    37     6     1    1
    38    36    30   ar
    39    24    25    1
    40    28    29    1
@<TRIPOS>MOLECULE
*****
 36 40 0 0 0
SMALL
GASTEIGER

@<TRIPOS>ATOM
      1 C           5.8691   -2.8723   20.7140 C.3     1  UNL1        0.2246
      2 C           5.8480   -1.3752   20.6225 C.2     1  UNL1        0.0436
      3 C           5.3984   -0.7075   19.3568 C.2     1  UNL1        0.0288
      4 C           4.9699   -1.5367   18.1826 C.2     1  UNL1        0.0896
      5 N           4.9910   -3.0337   18.2740 N.am    1  UNL1       -0.1770
      6 C           5.4406   -3.7015   19.5398 C.2     1  UNL1        0.2627
      7 O           5.4617   -5.1985   19.6312 O.2     1  UNL1       -0.2719
      8 C           8.8715   -7.2061   23.4136 C.3     1  UNL1        0.0312
      9 C           8.1357   -6.1761   24.2185 C.2     1  UNL1        0.0136
     10 C           8.1571   -6.2395   25.7170 C.2     1  UNL1        0.0107
     11 C           7.4213   -5.2096   26.5218 C.2     1  UNL1        0.0510
     12 C           6.6640   -4.1162   25.8281 C.2     1  UNL1        0.0613
     13 C           6.6426   -4.0528   24.3296 C.2     1  UNL1        0.2246
     14 N           5.9876   -3.0994   23.3747 N.2     1  UNL1       -0.0378
     15 C           6.3187   -3.5401   21.9796 C.2     1  UNL1        0.3605
     16 N           7.1782   -4.7659   22.0724 N.2     1  UNL1       -0.0547
     17 C           7.3784   -5.0828   23.5248 C.3     1  UNL1        0.2976
     18 N           7.4427   -5.2730   28.0204 N.pl3   1  UNL1       -0.3027
     19 C           8.2045   -6.3632   28.7141 C.3     1  UNL1        0.1231
     20 C           8.2259   -6.4266   30.2126 C.3     1  UNL1        0.1636
     21 O           7.4856   -5.3999   31.0173 O.3     1  UNL1       -0.3501
     22 C           6.7239   -4.3097   30.3236 C.3     1  UNL1        0.1636
     23 C           6.7024   -4.2463   28.8251 C.3     1  UNL1        0.1231
     24 N           6.2764   -0.5459   21.7967 N.pl3   1  UNL1       -0.3329
     25 H           7.2198   -0.5415   22.0781 H       1  UNL1        0.1466
     26 C           5.2676    0.2766   22.5420 C.3     1  UNL1        0.1211
     27 C           3.9599   -0.3323   22.9533 C.3     1  UNL1        0.1522
     28 O           3.8875   -1.1991   24.1753 O.3     1  UNL1       -0.3783
     29 H           4.7671   -1.2624   24.5794 H       1  UNL1        0.2109
     30 C           2.7245   -0.0743   22.1426 C.ar    1  UNL1        0.0067
     31 C           2.3787   -0.9761   20.9949 C.ar    1  UNL1       -0.0018
     32 C           1.1434   -0.7181   20.1841 C.ar    1  UNL1        0.0006
     33 C           0.2537    0.4416   20.5210 C.ar    1  UNL1        0.0114
     34 C           0.5995    1.3434   21.6687 C.ar    1  UNL1        0.0574
     35 CL         -0.2901    2.5031   22.0057 Cl      1  UNL1       -0.0823
     36 C           1.8349    1.0854   22.4795 C.ar    1  UNL1        0.0095
@<TRIPOS>BOND
     1     8     9    1
     2     9    10    2
     3    10    11    1
     4    11    18    1
     5    18    19    1
     6    19    20    1
     7    20    21    1
     8    21    22    1
     9    22    23    1
    10    11    12    2
    11    12    13    1
    12    13    14    2
    13    14    15    1
    14    15     1    1
    15     1     2    1
    16     2    24    1
    17    24    26    1
    18    26    27    1
    19    27    28    1
    20    27    30    1
    21    30    31   ar
    22    31    32   ar
    23    32    33   ar
    24    33    34   ar
    25    34    35    1
    26    34    36   ar
    27     2     3    2
    28     3     4    1
    29     4     5    2
    30     5     6    1
    31     6     7    2
    32    15    16    2
    33    16    17    1
    34    17     9    1
    35    23    18    1
    36    17    13    1
    37     6     1    1
    38    36    30   ar
    39    24    25    1
    40    28    29    1
@<TRIPOS>MOLECULE
*****
 36 40 0 0 0
SMALL
GASTEIGER

@<TRIPOS>ATOM
      1 C           6.9824   -3.2876   20.6582 C.3     1  UNL1        0.2246
      2 C           5.6460   -3.2764   19.9772 C.2     1  UNL1        0.0436
      3 C           5.5227   -2.7550   18.5761 C.2     1  UNL1        0.0288
      4 C           6.7357   -2.2449   17.8561 C.2     1  UNL1        0.0896
      5 N           8.0721   -2.2561   18.5372 N.am    1  UNL1       -0.1770
      6 C           8.1954   -2.7775   19.9382 C.2     1  UNL1        0.2627
      7 O           9.5318   -2.7887   20.6193 O.2     1  UNL1       -0.2719
      8 C           8.5803   -7.6133   24.3757 C.3     1  UNL1        0.0312
      9 C           7.9915   -6.3381   24.9022 C.2     1  UNL1        0.0136
     10 C           7.8040   -6.1520   26.3787 C.2     1  UNL1        0.0107
     11 C           7.2153   -4.8768   26.9051 C.2     1  UNL1        0.0510
     12 C           6.8139   -3.7876   25.9550 C.2     1  UNL1        0.0613
     13 C           7.0014   -3.9737   24.4784 C.2     1  UNL1        0.2246
     14 N           6.7021   -3.0838   23.3087 N.2     1  UNL1       -0.0378
     15 C           7.1059   -3.8090   22.0593 C.2     1  UNL1        0.3605
     16 N           7.6548   -5.1472   22.4569 N.2     1  UNL1       -0.0547
     17 C           7.5902   -5.2490   23.9520 C.3     1  UNL1        0.2976
     18 N           7.0278   -4.6907   28.3817 N.pl3   1  UNL1       -0.3027
     19 C           6.6271   -3.3507   28.9239 C.3     1  UNL1        0.1231
     20 C           6.4396   -3.1646   30.4004 C.3     1  UNL1        0.1636
     21 O           6.6528   -4.3185   31.3348 O.3     1  UNL1       -0.3501
     22 C           7.0534   -5.6585   30.7927 C.3     1  UNL1        0.1636
     23 C           7.2409   -5.8446   29.3161 C.3     1  UNL1        0.1231
     24 N           4.4330   -3.7865   20.6971 N.pl3   1  UNL1       -0.3329
     25 H           4.1715   -4.7319   20.6121 H       1  UNL1        0.1466
     26 C           3.6184   -2.8564   21.5464 C.3     1  UNL1        0.1211
     27 C           3.9150   -1.3861   21.5452 C.3     1  UNL1        0.1522
     28 O           4.8989   -0.8186   22.5249 O.3     1  UNL1       -0.3783
     29 H           5.2486   -1.5317   23.0818 H       1  UNL1        0.2109
     30 C           3.2277   -0.4832   20.5642 C.ar    1  UNL1        0.0067
     31 C           1.7554   -0.6273   20.3162 C.ar    1  UNL1       -0.0018
     32 C           1.0681    0.2756   19.3353 C.ar    1  UNL1        0.0006
     33 C           1.8530    1.3227   18.6022 C.ar    1  UNL1        0.0114
     34 C           3.3253    1.4668   18.8502 C.ar    1  UNL1        0.0574
     35 CL          4.1103    2.5140   18.1171 Cl      1  UNL1       -0.0823
     36 C           4.0127    0.5639   19.8311 C.ar    1  UNL1        0.0095
@<TRIPOS>BOND
     1     8     9    1
     2     9    10    2
     3    10    11    1
     4    11    18    1
     5    18    19    1
     6    19    20    1
     7    20    21    1
     8    21    22    1
     9    22    23    1
    10    11    12    2
    11    12    13    1
    12    13    14    2
    13    14    15    1
    14    15     1    1
    15     1     2    1
    16     2    24    1
    17    24    26    1
    18    26    27    1
    19    27    28    1
    20    27    30    1
    21    30    31   ar
    22    31    32   ar
    23    32    33   ar
    24    33    34   ar
    25    34    35    1
    26    34    36   ar
    27     2     3    2
    28     3     4    1
    29     4     5    2
    30     5     6    1
    31     6     7    2
    32    15    16    2
    33    16    17    1
    34    17     9    1
    35    23    18    1
    36    17    13    1
    37     6     1    1
    38    36    30   ar
    39    24    25    1
    40    28    29    1
@<TRIPOS>MOLECULE
*****
 36 40 0 0 0
SMALL
GASTEIGER

@<TRIPOS>ATOM
      1 C           6.6355   -3.1119   21.9920 C.3     1  UNL1        0.2246
      2 C           7.3606   -3.2607   20.6874 C.2     1  UNL1        0.0436
      3 C           8.3140   -4.4010   20.4851 C.2     1  UNL1        0.0288
      4 C           8.5424   -5.3923   21.5874 C.2     1  UNL1        0.0896
      5 N           7.8173   -5.2434   22.8921 N.am    1  UNL1       -0.1770
      6 C           6.8639   -4.1032   23.0944 C.2     1  UNL1        0.2627
      7 O           6.1388   -3.9543   24.3990 O.2     1  UNL1       -0.2719
      8 C           5.1866    2.5580   21.0764 C.3     1  UNL1        0.0312
      9 C           4.2880    1.6642   21.8787 C.2     1  UNL1        0.0136
     10 C           3.0130    2.2047   22.4551 C.2     1  UNL1        0.0107
     11 C           2.1144    1.3110   23.2573 C.2     1  UNL1        0.0510
     12 C           2.4907   -0.1234   23.4832 C.2     1  UNL1        0.0613
     13 C           3.7657   -0.6639   22.9069 C.2     1  UNL1        0.2246
     14 N           4.3947   -2.0245   22.9624 N.2     1  UNL1       -0.0378
     15 C           5.6821   -1.9717   22.1944 C.2     1  UNL1        0.3605
     16 N           5.8488   -0.5784   21.6643 N.2     1  UNL1       -0.0547
     17 C           4.6643    0.2298   22.1046 C.3     1  UNL1        0.2976
     18 N           0.8393    1.8516   23.8337 N.pl3   1  UNL1       -0.3027
     19 C           0.4473    1.5082   25.2402 C.3     1  UNL1        0.1231
     20 C          -0.8277    2.0488   25.8166 C.3     1  UNL1        0.1636
     21 O          -1.7106    2.9327   24.9864 O.3     1  UNL1       -0.3501
     22 C          -1.3185    3.2760   23.5798 C.3     1  UNL1        0.1636
     23 C          -0.0436    2.7355   23.0035 C.3     1  UNL1        0.1231
     24 N           7.1323   -2.2695   19.5851 N.pl3   1  UNL1       -0.3329
     25 H           7.5456   -1.3772   19.6320 H       1  UNL1        0.1466
     26 C           6.2742   -2.6376   18.4111 C.3     1  UNL1        0.1211
     27 C           4.7928   -2.7961   18.5853 C.3     1  UNL1        0.1522
     28 O           4.1824   -4.1662   18.6060 O.3     1  UNL1       -0.3783
     29 H           4.8789   -4.8321   18.4951 H       1  UNL1        0.2109
     30 C           3.9218   -1.5846   18.7389 C.ar    1  UNL1        0.0067
     31 C           4.3083   -0.2944   18.0785 C.ar    1  UNL1       -0.0018
     32 C           3.4373    0.9171   18.2321 C.ar    1  UNL1        0.0006
     33 C           2.1798    0.8385   19.0460 C.ar    1  UNL1        0.0114
     34 C           1.7933   -0.4517   19.7063 C.ar    1  UNL1        0.0574
     35 CL          0.5358   -0.5303   20.5201 Cl      1  UNL1       -0.0823
     36 C           2.6643   -1.6632   19.5527 C.ar    1  UNL1        0.0095
@<TRIPOS>BOND
     1     8     9    1
     2     9    10    2
     3    10    11    1
     4    11    18    1
     5    18    19    1
     6    19    20    1
     7    20    21    1
     8    21    22    1
     9    22    23    1
    10    11    12    2
    11    12    13    1
    12    13    14    2
    13    14    15    1
    14    15     1    1
    15     1     2    1
    16     2    24    1
    17    24    26    1
    18    26    27    1
    19    27    28    1
    20    27    30    1
    21    30    31   ar
    22    31    32   ar
    23    32    33   ar
    24    33    34   ar
    25    34    35    1
    26    34    36   ar
    27     2     3    2
    28     3     4    1
    29     4     5    2
    30     5     6    1
    31     6     7    2
    32    15    16    2
    33    16    17    1
    34    17     9    1
    35    23    18    1
    36    17    13    1
    37     6     1    1
    38    36    30   ar
    39    24    25    1
    40    28    29    1
@<TRIPOS>MOLECULE
*****
 36 40 0 0 0
SMALL
GASTEIGER

@<TRIPOS>ATOM
      1 C           8.0186   -5.1814   24.5230 C.3     1  UNL1        0.2246
      2 C           8.1571   -4.0963   23.4967 C.2     1  UNL1        0.0436
      3 C           8.4738   -4.4467   22.0729 C.2     1  UNL1        0.0288
      4 C           8.6520   -5.8821   21.6756 C.2     1  UNL1        0.0896
      5 N           8.5136   -6.9671   22.7019 N.am    1  UNL1       -0.1770
      6 C           8.1969   -6.6167   24.1257 C.2     1  UNL1        0.2627
      7 O           8.0585   -7.7018   25.1521 O.2     1  UNL1       -0.2719
      8 C           8.7414   -6.1947   30.3140 C.3     1  UNL1        0.0312
      9 C           7.8409   -5.0917   29.8423 C.2     1  UNL1        0.0136
     10 C           7.1164   -4.2368   30.8394 C.2     1  UNL1        0.0107
     11 C           6.2160   -3.1339   30.3678 C.2     1  UNL1        0.0510
     12 C           6.0399   -2.8857   28.8989 C.2     1  UNL1        0.0613
     13 C           6.7644   -3.7405   27.9018 C.2     1  UNL1        0.2246
     14 N           6.7873   -3.7328   26.4020 N.2     1  UNL1       -0.0378
     15 C           7.7020   -4.8310   25.9468 C.2     1  UNL1        0.3605
     16 N           8.2444   -5.5175   27.1652 N.2     1  UNL1       -0.0547
     17 C           7.6649   -4.8435   28.3735 C.3     1  UNL1        0.2976
     18 N           5.4914   -2.2789   31.3650 N.pl3   1  UNL1       -0.3027
     19 C           5.3512   -2.7391   32.7858 C.3     1  UNL1        0.1231
     20 C           4.6267   -1.8842   33.7829 C.3     1  UNL1        0.1636
     21 O           4.0425   -0.5692   33.3593 O.3     1  UNL1       -0.3501
     22 C           4.1827   -0.1091   31.9385 C.3     1  UNL1        0.1636
     23 C           4.9072   -0.9640   30.9414 C.3     1  UNL1        0.1231
     24 N           7.9788   -2.6609   23.8939 N.pl3   1  UNL1       -0.3329
     25 H           8.5853   -2.2539   24.5540 H       1  UNL1        0.1466
     26 C           6.8766   -1.8456   23.2854 C.3     1  UNL1        0.1211
     27 C           5.4705   -2.3681   23.2836 C.3     1  UNL1        0.1522
     28 O           4.8053   -2.7357   24.5768 O.3     1  UNL1       -0.3783
     29 H           5.4177   -2.5765   25.3121 H       1  UNL1        0.2109
     30 C           4.7297   -2.5229   21.9886 C.ar    1  UNL1        0.0067
     31 C           3.7219   -1.4924   21.5731 C.ar    1  UNL1       -0.0018
     32 C           2.9811   -1.6473   20.2781 C.ar    1  UNL1        0.0006
     33 C           3.2479   -2.8326   19.3984 C.ar    1  UNL1        0.0114
     34 C           4.2557   -3.8630   19.8138 C.ar    1  UNL1        0.0574
     35 CL          4.5225   -5.0483   18.9342 Cl      1  UNL1       -0.0823
     36 C           4.9965   -3.7082   21.1089 C.ar    1  UNL1        0.0095
@<TRIPOS>BOND
     1     8     9    1
     2     9    10    2
     3    10    11    1
     4    11    18    1
     5    18    19    1
     6    19    20    1
     7    20    21    1
     8    21    22    1
     9    22    23    1
    10    11    12    2
    11    12    13    1
    12    13    14    2
    13    14    15    1
    14    15     1    1
    15     1     2    1
    16     2    24    1
    17    24    26    1
    18    26    27    1
    19    27    28    1
    20    27    30    1
    21    30    31   ar
    22    31    32   ar
    23    32    33   ar
    24    33    34   ar
    25    34    35    1
    26    34    36   ar
    27     2     3    2
    28     3     4    1
    29     4     5    2
    30     5     6    1
    31     6     7    2
    32    15    16    2
    33    16    17    1
    34    17     9    1
    35    23    18    1
    36    17    13    1
    37     6     1    1
    38    36    30   ar
    39    24    25    1
    40    28    29    1
@<TRIPOS>MOLECULE
*****
 36 40 0 0 0
SMALL
GASTEIGER

@<TRIPOS>ATOM
      1 C           6.8607   -4.1330   26.7984 C.3     1  UNL1        0.2246
      2 C           6.8424   -5.5046   27.4054 C.2     1  UNL1        0.0436
      3 C           7.2335   -6.6950   26.5806 C.2     1  UNL1        0.0288
      4 C           7.6429   -6.5138   25.1490 C.2     1  UNL1        0.0896
      5 N           7.6612   -5.1422   24.5420 N.am    1  UNL1       -0.1770
      6 C           7.2701   -3.9519   25.3667 C.2     1  UNL1        0.2627
      7 O           7.2885   -2.5803   24.7598 O.2     1  UNL1       -0.2719
      8 C           8.1483    1.2309   28.9559 C.3     1  UNL1        0.0312
      9 C           6.8388    0.5755   29.2810 C.2     1  UNL1        0.0136
     10 C           5.8454    1.2788   30.1576 C.2     1  UNL1        0.0107
     11 C           4.5359    0.6234   30.4827 C.2     1  UNL1        0.0510
     12 C           4.2198   -0.7352   29.9311 C.2     1  UNL1        0.0613
     13 C           5.2132   -1.4385   29.0545 C.2     1  UNL1        0.2246
     14 N           5.1804   -2.7731   28.3707 N.2     1  UNL1       -0.0378
     15 C           6.4697   -2.9426   27.6230 C.2     1  UNL1        0.3605
     16 N           7.2993   -1.7127   27.8447 N.2     1  UNL1       -0.0547
     17 C           6.5227   -0.7831   28.7294 C.3     1  UNL1        0.2976
     18 N           3.5425    1.3267   31.3595 N.pl3   1  UNL1       -0.3027
     19 C           2.0914    1.3496   30.9801 C.3     1  UNL1        0.1231
     20 C           1.0980    2.0528   31.8568 C.3     1  UNL1        0.1636
     21 O           1.5556    2.7332   33.1128 O.3     1  UNL1       -0.3501
     22 C           3.0067    2.7103   33.4922 C.3     1  UNL1        0.1636
     23 C           4.0001    2.0071   32.6155 C.3     1  UNL1        0.1231
     24 N           6.4330   -5.6858   28.8369 N.pl3   1  UNL1       -0.3329
     25 H           5.5006   -5.9123   29.0574 H       1  UNL1        0.1466
     26 C           7.4442   -5.5221   29.9327 C.3     1  UNL1        0.1211
     27 C           6.9940   -5.1981   31.3264 C.3     1  UNL1        0.1522
     28 O           6.5362   -6.2955   32.2408 O.3     1  UNL1       -0.3783
     29 H           6.5933   -7.1464   31.7787 H       1  UNL1        0.2109
     30 C           7.0016   -3.7767   31.8056 C.ar    1  UNL1        0.0067
     31 C           8.1821   -2.8959   31.5221 C.ar    1  UNL1       -0.0018
     32 C           8.1897   -1.4746   32.0013 C.ar    1  UNL1        0.0006
     33 C           7.0167   -0.9340   32.7640 C.ar    1  UNL1        0.0114
     34 C           5.8362   -1.8148   33.0475 C.ar    1  UNL1        0.0574
     35 CL          4.6632   -1.2742   33.8103 Cl      1  UNL1       -0.0823
     36 C           5.8286   -3.2361   32.5683 C.ar    1  UNL1        0.0095
@<TRIPOS>BOND
     1     8     9    1
     2     9    10    2
     3    10    11    1
     4    11    18    1
     5    18    19    1
     6    19    20    1
     7    20    21    1
     8    21    22    1
     9    22    23    1
    10    11    12    2
    11    12    13    1
    12    13    14    2
    13    14    15    1
    14    15     1    1
    15     1     2    1
    16     2    24    1
    17    24    26    1
    18    26    27    1
    19    27    28    1
    20    27    30    1
    21    30    31   ar
    22    31    32   ar
    23    32    33   ar
    24    33    34   ar
    25    34    35    1
    26    34    36   ar
    27     2     3    2
    28     3     4    1
    29     4     5    2
    30     5     6    1
    31     6     7    2
    32    15    16    2
    33    16    17    1
    34    17     9    1
    35    23    18    1
    36    17    13    1
    37     6     1    1
    38    36    30   ar
    39    24    25    1
    40    28    29    1
