@<TRIPOS>MOLECULE
*****
 40 44 0 0 0
SMALL
GASTEIGER

@<TRIPOS>ATOM
      1 C          -1.3142    3.1119   19.8629 C.2     1  UNL1        0.2425
      2 O          -0.6366    3.3903   18.5539 O.2     1  UNL1       -0.2733
      3 N          -0.7452    2.0870   20.7989 N.am    1  UNL1       -0.3018
      4 H          -1.1898    1.9043   21.6580 H       1  UNL1        0.1495
      5 C           0.5014    1.3407   20.4259 C.3     1  UNL1        0.1035
      6 C           1.9324    1.7198   20.1843 C.3     1  UNL1        0.0933
      7 N           2.2642    0.2852   19.8983 N.3     1  UNL1       -0.2711
      8 C           0.8332   -0.0940   20.1399 C.3     1  UNL1        0.0933
      9 C           3.5107   -0.4611   19.5253 C.3     1  UNL1        0.0578
     10 C           3.8542   -0.6727   18.0806 C.3     1  UNL1        0.0187
     11 C           5.1008   -1.4190   17.7076 C.3     1  UNL1        0.0331
     12 C           6.0038   -1.9538   18.7793 C.3     1  UNL1        0.1140
     13 O           6.7511   -2.4056   17.5597 O.3     1  UNL1       -0.3821
     14 C           5.6603   -1.7423   20.2241 C.3     1  UNL1        0.0331
     15 C           4.4138   -0.9959   20.5971 C.3     1  UNL1        0.0187
     16 H           6.2728   -2.1234   16.7644 H       1  UNL1        0.2107
     17 C           7.1664   -2.6455   19.4274 C.ar    1  UNL1        0.0518
     18 C           7.0829   -3.7412   20.4485 C.ar    1  UNL1        0.1039
     19 N           8.4813   -4.1358   20.8204 N.ar    1  UNL1       -0.2350
     20 C           9.4292   -3.2840   20.0292 C.ar    1  UNL1        0.1343
     21 S           8.6165   -2.3630   19.1683 S.2     1  UNL1       -0.0665
     22 C          -2.5607    3.8582   20.2359 C.3     1  UNL1        0.1736
     23 N          -3.8254    3.1068   20.5289 N.pl3   1  UNL1       -0.3252
     24 H          -3.8269    2.1224   20.5179 H       1  UNL1        0.1473
     25 C          -7.2590    5.0346   20.0355 C.ar    1  UNL1        0.1503
     26 C          -5.9966    4.2862   19.7257 C.ar    1  UNL1        0.0440
     27 C          -5.0879    3.8553   20.8386 C.ar    1  UNL1        0.0486
     28 C          -5.4416    4.1730   22.2614 C.ar    1  UNL1        0.0308
     29 C          -4.5329    3.7421   23.3742 C.ar    1  UNL1        0.0066
     30 C          -4.8866    4.0598   24.7969 C.ar    1  UNL1        0.0716
     31 C          -6.1491    4.8083   25.1066 C.ar    1  UNL1        0.0054
     32 C          -7.0578    5.2391   23.9937 C.ar    1  UNL1        0.0191
     33 C          -6.7041    4.9215   22.5711 C.ar    1  UNL1        0.0832
     34 N          -7.6128    5.3523   21.4581 N.ar    1  UNL1       -0.2350
     35 C          -3.9779    3.6290   25.9098 C.3     1  UNL1        0.4186
     36 F          -3.0692    3.1981   27.0227 F       1  UNL1       -0.1659
     37 F          -3.0446    3.0137   24.9096 F       1  UNL1       -0.1659
     38 F          -4.9111    4.2442   26.9101 F       1  UNL1       -0.1659
     39 N          -9.0765    5.8963   17.8096 N.1     1  UNL1       -0.1893
     40 C          -8.1678    5.4655   18.9225 C.1     1  UNL1        0.1198
@<TRIPOS>BOND
     1    39    40    3
     2    40    25    1
     3    25    26   ar
     4    26    27   ar
     5    27    23    1
     6    23    22    1
     7    22     1    1
     8     1     2    2
     9     1     3   am
    10     3     5    1
    11     5     6    1
    12     6     7    1
    13     9     7    1
    14     9    10    1
    15    10    11    1
    16    11    12    1
    17    12    13    1
    18    12    17    1
    19    17    18   ar
    20    18    19   ar
    21    19    20   ar
    22    20    21   ar
    23    12    14    1
    24    14    15    1
    25     7     8    1
    26    27    28   ar
    27    28    29   ar
    28    29    30   ar
    29    30    35    1
    30    35    36    1
    31    35    37    1
    32    35    38    1
    33    30    31   ar
    34    31    32   ar
    35    32    33   ar
    36    33    34   ar
    37    34    25   ar
    38     8     5    1
    39    33    28   ar
    40    15     9    1
    41    21    17   ar
    42    23    24    1
    43     3     4    1
    44    13    16    1
@<TRIPOS>MOLECULE
*****
 40 44 0 0 0
SMALL
GASTEIGER

@<TRIPOS>ATOM
      1 C           3.0868    0.1931   26.5804 C.2     1  UNL1        0.2425
      2 O           3.6415    1.5003   27.0637 O.2     1  UNL1       -0.2733
      3 N           2.8178   -0.9141   27.5559 N.am    1  UNL1       -0.3018
      4 H           2.4538   -1.7721   27.2387 H       1  UNL1        0.1495
      5 C           3.1034   -0.7141   29.0149 C.3     1  UNL1        0.1035
      6 C           2.2641   -0.5489   30.2471 C.3     1  UNL1        0.0933
      7 N           3.5073   -0.4313   31.0781 N.3     1  UNL1       -0.2711
      8 C           4.3466   -0.5966   29.8459 C.3     1  UNL1        0.0933
      9 C           3.7929   -0.2314   32.5370 C.3     1  UNL1        0.0578
     10 C           4.3982   -1.3429   33.3420 C.3     1  UNL1        0.0187
     11 C           4.6838   -1.1429   34.8009 C.3     1  UNL1        0.0331
     12 C           4.3641    0.1686   35.4548 C.3     1  UNL1        0.1140
     13 O           4.9262   -0.5774   36.6285 O.3     1  UNL1       -0.3821
     14 C           3.7587    1.2802   34.6498 C.3     1  UNL1        0.0331
     15 C           3.4731    1.0802   33.1909 C.3     1  UNL1        0.0187
     16 H           5.1849   -1.4699   36.3505 H       1  UNL1        0.2107
     17 C           4.2396    1.2211   36.5164 C.ar    1  UNL1        0.0518
     18 C           3.5252    1.0714   37.8269 C.ar    1  UNL1        0.1039
     19 N           3.6517    2.3657   38.5743 N.ar    1  UNL1       -0.2350
     20 C           4.4441    3.3154   37.7257 C.ar    1  UNL1        0.1343
     21 S           4.8075    2.6079   36.4538 S.2     1  UNL1       -0.0665
     22 C           2.8012   -0.0068   25.1215 C.3     1  UNL1        0.1736
     23 N           3.9302   -0.0452   24.1346 N.pl3   1  UNL1       -0.3252
     24 H           4.3480    0.7933   23.8318 H       1  UNL1        0.1473
     25 C           5.7993   -3.5403   23.9334 C.ar    1  UNL1        0.1503
     26 C           5.3069   -2.2245   24.4590 C.ar    1  UNL1        0.0440
     27 C           4.4226   -1.3610   23.6091 C.ar    1  UNL1        0.0486
     28 C           4.0308   -1.8132   22.2335 C.ar    1  UNL1        0.0308
     29 C           3.1465   -0.9497   21.3836 C.ar    1  UNL1        0.0066
     30 C           2.7547   -1.4020   20.0082 C.ar    1  UNL1        0.0716
     31 C           3.2472   -2.7178   19.4827 C.ar    1  UNL1        0.0054
     32 C           4.1314   -3.5813   20.3326 C.ar    1  UNL1        0.0191
     33 C           4.5232   -3.1290   21.7080 C.ar    1  UNL1        0.0832
     34 N           5.4075   -3.9926   22.5580 N.ar    1  UNL1       -0.2350
     35 C           1.8704   -0.5384   19.1582 C.3     1  UNL1        0.4186
     36 F           0.9862    0.3251   18.3082 F       1  UNL1       -0.1659
     37 F           2.9956   -0.3437   18.1855 F       1  UNL1       -0.1659
     38 F           0.7453   -0.7331   20.1308 F       1  UNL1       -0.1659
     39 N           7.5679   -5.2673   25.6334 N.1     1  UNL1       -0.1893
     40 C           6.6836   -4.4038   24.7834 C.1     1  UNL1        0.1198
@<TRIPOS>BOND
     1    39    40    3
     2    40    25    1
     3    25    26   ar
     4    26    27   ar
     5    27    23    1
     6    23    22    1
     7    22     1    1
     8     1     2    2
     9     1     3   am
    10     3     5    1
    11     5     6    1
    12     6     7    1
    13     9     7    1
    14     9    10    1
    15    10    11    1
    16    11    12    1
    17    12    13    1
    18    12    17    1
    19    17    18   ar
    20    18    19   ar
    21    19    20   ar
    22    20    21   ar
    23    12    14    1
    24    14    15    1
    25     7     8    1
    26    27    28   ar
    27    28    29   ar
    28    29    30   ar
    29    30    35    1
    30    35    36    1
    31    35    37    1
    32    35    38    1
    33    30    31   ar
    34    31    32   ar
    35    32    33   ar
    36    33    34   ar
    37    34    25   ar
    38     8     5    1
    39    33    28   ar
    40    15     9    1
    41    21    17   ar
    42    23    24    1
    43     3     4    1
    44    13    16    1
@<TRIPOS>MOLECULE
*****
 40 44 0 0 0
SMALL
GASTEIGER

@<TRIPOS>ATOM
      1 C           2.5820    0.4264   25.9501 C.2     1  UNL1        0.2425
      2 O           2.8184    1.3988   27.0675 O.2     1  UNL1       -0.2733
      3 N           1.2886    0.4562   25.1909 N.am    1  UNL1       -0.3018
      4 H           1.1335   -0.1820   24.4575 H       1  UNL1        0.1495
      5 C           0.2316    1.4584   25.5492 C.3     1  UNL1        0.1035
      6 C          -0.6733    1.6707   26.7264 C.3     1  UNL1        0.0933
      7 N          -1.2632    2.8757   26.0558 N.3     1  UNL1       -0.2711
      8 C          -0.3582    2.6636   24.8785 C.3     1  UNL1        0.0933
      9 C          -2.3202    3.8779   26.4141 C.3     1  UNL1        0.0578
     10 C          -1.9549    5.1079   27.1910 C.3     1  UNL1        0.0187
     11 C          -3.0119    6.1101   27.5492 C.3     1  UNL1        0.0331
     12 C          -4.4341    5.8823   27.1306 C.3     1  UNL1        0.1140
     13 O          -4.5806    7.1911   27.8487 O.3     1  UNL1       -0.3821
     14 C          -4.7994    4.6523   26.3536 C.3     1  UNL1        0.0331
     15 C          -3.7425    3.6501   25.9953 C.3     1  UNL1        0.0187
     16 H          -3.7159    7.4736   28.1855 H       1  UNL1        0.2107
     17 C          -5.9073    6.1091   26.9613 C.ar    1  UNL1        0.0518
     18 C          -6.8977    6.3320   28.0656 C.ar    1  UNL1        0.1039
     19 N          -8.2510    6.5134   27.4449 N.ar    1  UNL1       -0.2350
     20 C          -8.0971    6.4026   25.9569 C.ar    1  UNL1        0.1343
     21 S          -6.6485    6.1527   25.6580 S.2     1  UNL1       -0.0665
     22 C           3.6390   -0.5758   25.5919 C.3     1  UNL1        0.1736
     23 N           4.3405   -0.4857   24.2691 N.pl3   1  UNL1       -0.3252
     24 H           4.4936    0.3928   23.8519 H       1  UNL1        0.1473
     25 C           6.2611   -3.8882   23.5734 C.ar    1  UNL1        0.1503
     26 C           5.7929   -2.6398   24.2606 C.ar    1  UNL1        0.0440
     27 C           4.8087   -1.7341   23.5818 C.ar    1  UNL1        0.0486
     28 C           4.2925   -2.0767   22.2157 C.ar    1  UNL1        0.0308
     29 C           3.3083   -1.1710   21.5369 C.ar    1  UNL1        0.0066
     30 C           2.7922   -1.5137   20.1708 C.ar    1  UNL1        0.0716
     31 C           3.2604   -2.7621   19.4835 C.ar    1  UNL1        0.0054
     32 C           4.2446   -3.6678   20.1624 C.ar    1  UNL1        0.0191
     33 C           4.7607   -3.3251   21.5284 C.ar    1  UNL1        0.0832
     34 N           5.7451   -4.2309   22.2073 N.ar    1  UNL1       -0.2350
     35 C           1.8078   -0.6080   19.4919 C.3     1  UNL1        0.4186
     36 F           0.8235    0.2977   18.8131 F       1  UNL1       -0.1659
     37 F           0.7830   -0.9392   20.5359 F       1  UNL1       -0.1659
     38 F           2.8326   -0.2767   18.4479 F       1  UNL1       -0.1659
     39 N           8.2297   -5.6996   24.9312 N.1     1  UNL1       -0.1893
     40 C           7.2455   -4.7939   24.2523 C.1     1  UNL1        0.1198
@<TRIPOS>BOND
     1    39    40    3
     2    40    25    1
     3    25    26   ar
     4    26    27   ar
     5    27    23    1
     6    23    22    1
     7    22     1    1
     8     1     2    2
     9     1     3   am
    10     3     5    1
    11     5     6    1
    12     6     7    1
    13     9     7    1
    14     9    10    1
    15    10    11    1
    16    11    12    1
    17    12    13    1
    18    12    17    1
    19    17    18   ar
    20    18    19   ar
    21    19    20   ar
    22    20    21   ar
    23    12    14    1
    24    14    15    1
    25     7     8    1
    26    27    28   ar
    27    28    29   ar
    28    29    30   ar
    29    30    35    1
    30    35    36    1
    31    35    37    1
    32    35    38    1
    33    30    31   ar
    34    31    32   ar
    35    32    33   ar
    36    33    34   ar
    37    34    25   ar
    38     8     5    1
    39    33    28   ar
    40    15     9    1
    41    21    17   ar
    42    23    24    1
    43     3     4    1
    44    13    16    1
@<TRIPOS>MOLECULE
*****
 40 44 0 0 0
SMALL
GASTEIGER

@<TRIPOS>ATOM
      1 C           0.5259    1.1683   19.7407 C.2     1  UNL1        0.2425
      2 O          -0.2358    0.1422   20.5261 O.2     1  UNL1       -0.2733
      3 N           0.0850    2.6020   19.7538 N.am    1  UNL1       -0.3018
      4 H           0.5849    3.2755   19.2384 H       1  UNL1        0.1495
      5 C          -1.1176    3.0096   20.5524 C.3     1  UNL1        0.1035
      6 C          -2.5600    3.2749   20.2373 C.3     1  UNL1        0.0933
      7 N          -2.8184    3.5859   21.6817 N.3     1  UNL1       -0.2711
      8 C          -1.3761    3.3206   21.9969 C.3     1  UNL1        0.0933
      9 C          -4.0210    3.9934   22.4802 C.3     1  UNL1        0.0578
     10 C          -5.3980    3.6777   21.9763 C.3     1  UNL1        0.0187
     11 C          -6.6006    4.0852   22.7749 C.3     1  UNL1        0.0331
     12 C          -6.4262    4.8084   24.0773 C.3     1  UNL1        0.1140
     13 O          -7.9232    4.7351   24.0187 O.3     1  UNL1       -0.3821
     14 C          -5.0491    5.1242   24.5813 C.3     1  UNL1        0.0331
     15 C          -3.8465    4.7167   23.7827 C.3     1  UNL1        0.0187
     16 H          -8.1930    4.2794   23.2060 H       1  UNL1        0.2107
     17 C          -6.7716    5.5062   25.3594 C.ar    1  UNL1        0.0518
     18 C          -8.0498    6.2359   25.6495 C.ar    1  UNL1        0.1039
     19 N          -7.9677    6.7775   27.0459 N.ar    1  UNL1       -0.2350
     20 C          -6.6388    6.3826   27.6188 C.ar    1  UNL1        0.1343
     21 S          -5.8996    5.5969   26.5765 S.2     1  UNL1       -0.0665
     22 C           1.7285    0.7608   18.9422 C.3     1  UNL1        0.1736
     23 N           3.0952    0.8299   19.5564 N.pl3   1  UNL1       -0.3252
     24 H           3.8572    1.1574   19.0260 H       1  UNL1        0.1473
     25 C           3.3124    0.9529   23.5171 C.ar    1  UNL1        0.1503
     26 C           3.1067    1.3829   22.0949 C.ar    1  UNL1        0.0440
     27 C           3.3009    0.3999   20.9786 C.ar    1  UNL1        0.0486
     28 C           3.7008   -1.0131   21.2846 C.ar    1  UNL1        0.0308
     29 C           3.8949   -1.9961   20.1684 C.ar    1  UNL1        0.0066
     30 C           4.2948   -3.4090   20.4744 C.ar    1  UNL1        0.0716
     31 C           4.5005   -3.8390   21.8966 C.ar    1  UNL1        0.0054
     32 C           4.3064   -2.8560   23.0129 C.ar    1  UNL1        0.0191
     33 C           3.9065   -1.4431   22.7069 C.ar    1  UNL1        0.0832
     34 N           3.7123   -0.4600   23.8231 N.ar    1  UNL1       -0.2350
     35 C           4.4890   -4.3921   19.3581 C.3     1  UNL1        0.4186
     36 F           4.6831   -5.3751   18.2419 F       1  UNL1       -0.1659
     37 F           3.0127   -4.3824   19.0929 F       1  UNL1       -0.1659
     38 F           5.9653   -4.4017   19.6234 F       1  UNL1       -0.1659
     39 N           2.9240    2.9189   25.7496 N.1     1  UNL1       -0.1893
     40 C           3.1182    1.9359   24.6334 C.1     1  UNL1        0.1198
@<TRIPOS>BOND
     1    39    40    3
     2    40    25    1
     3    25    26   ar
     4    26    27   ar
     5    27    23    1
     6    23    22    1
     7    22     1    1
     8     1     2    2
     9     1     3   am
    10     3     5    1
    11     5     6    1
    12     6     7    1
    13     9     7    1
    14     9    10    1
    15    10    11    1
    16    11    12    1
    17    12    13    1
    18    12    17    1
    19    17    18   ar
    20    18    19   ar
    21    19    20   ar
    22    20    21   ar
    23    12    14    1
    24    14    15    1
    25     7     8    1
    26    27    28   ar
    27    28    29   ar
    28    29    30   ar
    29    30    35    1
    30    35    36    1
    31    35    37    1
    32    35    38    1
    33    30    31   ar
    34    31    32   ar
    35    32    33   ar
    36    33    34   ar
    37    34    25   ar
    38     8     5    1
    39    33    28   ar
    40    15     9    1
    41    21    17   ar
    42    23    24    1
    43     3     4    1
    44    13    16    1
@<TRIPOS>MOLECULE
*****
 40 44 0 0 0
SMALL
GASTEIGER

@<TRIPOS>ATOM
      1 C           6.5222   -1.9890   26.5679 C.2     1  UNL1        0.2425
      2 O           7.4373   -0.8922   27.0258 O.2     1  UNL1       -0.2733
      3 N           5.6257   -2.6783   27.5534 N.am    1  UNL1       -0.3018
      4 H           5.0252   -3.3981   27.2529 H       1  UNL1        0.1495
      5 C           5.6444   -2.2707   28.9969 C.3     1  UNL1        0.1035
      6 C           5.0570   -1.1392   29.7873 C.3     1  UNL1        0.0933
      7 N           5.6707   -1.6944   31.0382 N.3     1  UNL1       -0.2711
      8 C           6.2582   -2.8259   30.2480 C.3     1  UNL1        0.0933
      9 C           5.6894   -1.2868   32.4817 C.3     1  UNL1        0.0578
     10 C           4.4964   -1.5521   33.3513 C.3     1  UNL1        0.0187
     11 C           4.5150   -1.1445   34.7948 C.3     1  UNL1        0.0331
     12 C           5.7266   -0.4717   35.3686 C.3     1  UNL1        0.1140
     13 O           4.8486   -0.5076   36.5842 O.3     1  UNL1       -0.3821
     14 C           6.9197   -0.2064   34.4989 C.3     1  UNL1        0.0331
     15 C           6.9011   -0.6140   33.0554 C.3     1  UNL1        0.0187
     16 H           4.0035   -0.9280   36.3603 H       1  UNL1        0.2107
     17 C           6.6333    0.1887   36.3645 C.ar    1  UNL1        0.0518
     18 C           8.0436   -0.2158   36.6768 C.ar    1  UNL1        0.1039
     19 N           8.5708    0.7149   37.7283 N.ar    1  UNL1       -0.2350
     20 C           7.4863    1.6947   38.0659 C.ar    1  UNL1        0.1343
     21 S           6.2889    1.3694   37.2231 S.2     1  UNL1       -0.0665
     22 C           6.5036   -2.3966   25.1244 C.3     1  UNL1        0.1736
     23 N           5.2210   -2.8430   24.4876 N.pl3   1  UNL1       -0.3252
     24 H           5.0124   -3.8028   24.4212 H       1  UNL1        0.1473
     25 C           2.7751    0.2773   24.3105 C.ar    1  UNL1        0.1503
     26 C           3.7400   -0.7387   24.8460 C.ar    1  UNL1        0.0440
     27 C           4.2562   -1.8269   23.9521 C.ar    1  UNL1        0.0486
     28 C           3.8075   -1.8993   22.5225 C.ar    1  UNL1        0.0308
     29 C           4.3237   -2.9875   21.6286 C.ar    1  UNL1        0.0066
     30 C           3.8750   -3.0598   20.1991 C.ar    1  UNL1        0.0716
     31 C           2.9102   -2.0438   19.6636 C.ar    1  UNL1        0.0054
     32 C           2.3940   -0.9555   20.5575 C.ar    1  UNL1        0.0191
     33 C           2.8427   -0.8832   21.9870 C.ar    1  UNL1        0.0832
     34 N           2.3265    0.2051   22.8810 N.ar    1  UNL1       -0.2350
     35 C           4.3912   -4.1481   19.3051 C.3     1  UNL1        0.4186
     36 F           4.9073   -5.2364   18.4111 F       1  UNL1       -0.1659
     37 F           2.9894   -4.4533   18.8673 F       1  UNL1       -0.1659
     38 F           5.7930   -3.8430   19.7429 F       1  UNL1       -0.1659
     39 N           1.7428    2.4539   26.0984 N.1     1  UNL1       -0.1893
     40 C           2.2589    1.3657   25.2045 C.1     1  UNL1        0.1198
@<TRIPOS>BOND
     1    39    40    3
     2    40    25    1
     3    25    26   ar
     4    26    27   ar
     5    27    23    1
     6    23    22    1
     7    22     1    1
     8     1     2    2
     9     1     3   am
    10     3     5    1
    11     5     6    1
    12     6     7    1
    13     9     7    1
    14     9    10    1
    15    10    11    1
    16    11    12    1
    17    12    13    1
    18    12    17    1
    19    17    18   ar
    20    18    19   ar
    21    19    20   ar
    22    20    21   ar
    23    12    14    1
    24    14    15    1
    25     7     8    1
    26    27    28   ar
    27    28    29   ar
    28    29    30   ar
    29    30    35    1
    30    35    36    1
    31    35    37    1
    32    35    38    1
    33    30    31   ar
    34    31    32   ar
    35    32    33   ar
    36    33    34   ar
    37    34    25   ar
    38     8     5    1
    39    33    28   ar
    40    15     9    1
    41    21    17   ar
    42    23    24    1
    43     3     4    1
    44    13    16    1
@<TRIPOS>MOLECULE
*****
 40 44 0 0 0
SMALL
GASTEIGER

@<TRIPOS>ATOM
      1 C           1.9864    0.6367   25.2728 C.2     1  UNL1        0.2425
      2 O           1.4261    1.0115   23.9329 O.2     1  UNL1       -0.2733
      3 N           1.2914    1.0786   26.5266 N.am    1  UNL1       -0.3018
      4 H           1.6591    0.8327   27.4061 H       1  UNL1        0.1495
      5 C           0.0361    1.8952   26.4402 C.3     1  UNL1        0.1035
      6 C          -1.2495    1.9490   27.2112 C.3     1  UNL1        0.0933
      7 N          -1.7391    3.0501   26.3181 N.3     1  UNL1       -0.2711
      8 C          -0.4536    2.9964   25.5471 C.3     1  UNL1        0.0933
      9 C          -2.9944    3.8667   26.2318 C.3     1  UNL1        0.0578
     10 C          -3.1612    5.0796   27.0983 C.3     1  UNL1        0.0187
     11 C          -4.4164    5.8962   27.0120 C.3     1  UNL1        0.0331
     12 C          -5.5049    5.4999   26.0591 C.3     1  UNL1        0.1140
     13 O          -6.1245    6.7226   26.6681 O.3     1  UNL1       -0.3821
     14 C          -5.3382    4.2869   25.1925 C.3     1  UNL1        0.0331
     15 C          -4.0829    3.4703   25.2788 C.3     1  UNL1        0.0187
     16 H          -5.5176    7.1002   27.3239 H       1  UNL1        0.2107
     17 C          -6.8086    5.5282   25.3177 C.ar    1  UNL1        0.0518
     18 C          -7.1646    4.6874   24.1275 C.ar    1  UNL1        0.1039
     19 N          -8.5611    5.0418   23.7106 N.ar    1  UNL1       -0.2350
     20 C          -9.0684    6.1017   24.6430 C.ar    1  UNL1        0.1343
     21 S          -7.9852    6.4023   25.6363 S.2     1  UNL1       -0.0665
     22 C           3.2416   -0.1799   25.3592 C.3     1  UNL1        0.1736
     23 N           4.2108   -0.1888   24.2144 N.pl3   1  UNL1       -0.3252
     24 H           4.5495    0.6606   23.8495 H       1  UNL1        0.1473
     25 C           6.0563   -3.6780   23.8031 C.ar    1  UNL1        0.1503
     26 C           5.6032   -2.3750   24.3920 C.ar    1  UNL1        0.0440
     27 C           4.6639   -1.4918   23.6255 C.ar    1  UNL1        0.0486
     28 C           4.1777   -1.9116   22.2699 C.ar    1  UNL1        0.0308
     29 C           3.2384   -1.0284   21.5034 C.ar    1  UNL1        0.0066
     30 C           2.7523   -1.4482   20.1479 C.ar    1  UNL1        0.0716
     31 C           3.2054   -2.7512   19.5590 C.ar    1  UNL1        0.0054
     32 C           4.1447   -3.6344   20.3255 C.ar    1  UNL1        0.0191
     33 C           4.6309   -3.2146   21.6810 C.ar    1  UNL1        0.0832
     34 N           5.5702   -4.0978   22.4476 N.ar    1  UNL1       -0.2350
     35 C           1.8129   -0.5650   19.3812 C.3     1  UNL1        0.4186
     36 F           0.8737    0.3181   18.6146 F       1  UNL1       -0.1659
     37 F           2.9007   -0.2664   18.3926 F       1  UNL1       -0.1659
     38 F           0.7252   -0.8636   20.3699 F       1  UNL1       -0.1659
     39 N           7.9350   -5.4444   25.3364 N.1     1  UNL1       -0.1893
     40 C           6.9957   -4.5612   24.5697 C.1     1  UNL1        0.1198
@<TRIPOS>BOND
     1    39    40    3
     2    40    25    1
     3    25    26   ar
     4    26    27   ar
     5    27    23    1
     6    23    22    1
     7    22     1    1
     8     1     2    2
     9     1     3   am
    10     3     5    1
    11     5     6    1
    12     6     7    1
    13     9     7    1
    14     9    10    1
    15    10    11    1
    16    11    12    1
    17    12    13    1
    18    12    17    1
    19    17    18   ar
    20    18    19   ar
    21    19    20   ar
    22    20    21   ar
    23    12    14    1
    24    14    15    1
    25     7     8    1
    26    27    28   ar
    27    28    29   ar
    28    29    30   ar
    29    30    35    1
    30    35    36    1
    31    35    37    1
    32    35    38    1
    33    30    31   ar
    34    31    32   ar
    35    32    33   ar
    36    33    34   ar
    37    34    25   ar
    38     8     5    1
    39    33    28   ar
    40    15     9    1
    41    21    17   ar
    42    23    24    1
    43     3     4    1
    44    13    16    1
@<TRIPOS>MOLECULE
*****
 40 44 0 0 0
SMALL
GASTEIGER

@<TRIPOS>ATOM
      1 C           3.1762    0.0414   26.6511 C.2     1  UNL1        0.2425
      2 O           3.7768    1.4009   26.4489 O.2     1  UNL1       -0.2733
      3 N           2.1353   -0.1687   27.7107 N.am    1  UNL1       -0.3018
      4 H           1.7411   -1.0610   27.8434 H       1  UNL1        0.1495
      5 C           1.6952    0.9808   28.5680 C.3     1  UNL1        0.1035
      6 C           0.4131    1.7375   28.7509 C.3     1  UNL1        0.0933
      7 N           1.0727    2.6064   29.7804 N.3     1  UNL1       -0.2711
      8 C           2.3549    1.8497   29.5976 C.3     1  UNL1        0.0933
      9 C           0.6325    3.7558   30.6377 C.3     1  UNL1        0.0578
     10 C           0.4614    5.1186   30.0348 C.3     1  UNL1        0.0187
     11 C           0.0212    6.2681   30.8921 C.3     1  UNL1        0.0331
     12 C          -0.2478    6.0548   32.3523 C.3     1  UNL1        0.1140
     13 O          -0.5487    7.5203   32.2435 O.3     1  UNL1       -0.3821
     14 C          -0.0767    4.6920   32.9552 C.3     1  UNL1        0.0331
     15 C           0.3635    3.5425   32.0979 C.3     1  UNL1        0.0187
     16 H          -0.4146    7.8107   31.3277 H       1  UNL1        0.2107
     17 C          -0.6213    6.3504   33.7747 C.ar    1  UNL1        0.0518
     18 C          -1.9827    6.7462   34.2648 C.ar    1  UNL1        0.1039
     19 N          -1.9018    6.9425   35.7496 N.ar    1  UNL1       -0.2350
     20 C          -0.4904    6.6682   36.1773 C.ar    1  UNL1        0.1343
     21 S           0.3009    6.3023   34.9566 S.2     1  UNL1       -0.0665
     22 C           3.6163   -1.1081   25.7938 C.3     1  UNL1        0.1736
     23 N           4.0154   -0.8703   24.3676 N.pl3   1  UNL1       -0.3252
     24 H           3.8789    0.0151   23.9594 H       1  UNL1        0.1473
     25 C           6.2444   -4.0030   23.3841 C.ar    1  UNL1        0.1503
     26 C           5.6375   -2.8918   24.1884 C.ar    1  UNL1        0.0440
     27 C           4.6223   -1.9815   23.5634 C.ar    1  UNL1        0.0486
     28 C           4.2140   -2.1824   22.1340 C.ar    1  UNL1        0.0308
     29 C           3.1988   -1.2721   21.5090 C.ar    1  UNL1        0.0066
     30 C           2.7906   -1.4730   20.0797 C.ar    1  UNL1        0.0716
     31 C           3.3975   -2.5842   19.2754 C.ar    1  UNL1        0.0054
     32 C           4.4127   -3.4945   19.9004 C.ar    1  UNL1        0.0191
     33 C           4.8209   -3.2936   21.3297 C.ar    1  UNL1        0.0832
     34 N           5.8362   -4.2039   21.9548 N.ar    1  UNL1       -0.2350
     35 C           1.7753   -0.5627   19.4546 C.3     1  UNL1        0.4186
     36 F           0.7601    0.3476   18.8295 F       1  UNL1       -0.1659
     37 F           0.7991   -0.9058   20.5405 F       1  UNL1       -0.1659
     38 F           2.7515   -0.2195   18.3687 F       1  UNL1       -0.1659
     39 N           8.2748   -5.8236   24.6343 N.1     1  UNL1       -0.1893
     40 C           7.2596   -4.9133   24.0092 C.1     1  UNL1        0.1198
@<TRIPOS>BOND
     1    39    40    3
     2    40    25    1
     3    25    26   ar
     4    26    27   ar
     5    27    23    1
     6    23    22    1
     7    22     1    1
     8     1     2    2
     9     1     3   am
    10     3     5    1
    11     5     6    1
    12     6     7    1
    13     9     7    1
    14     9    10    1
    15    10    11    1
    16    11    12    1
    17    12    13    1
    18    12    17    1
    19    17    18   ar
    20    18    19   ar
    21    19    20   ar
    22    20    21   ar
    23    12    14    1
    24    14    15    1
    25     7     8    1
    26    27    28   ar
    27    28    29   ar
    28    29    30   ar
    29    30    35    1
    30    35    36    1
    31    35    37    1
    32    35    38    1
    33    30    31   ar
    34    31    32   ar
    35    32    33   ar
    36    33    34   ar
    37    34    25   ar
    38     8     5    1
    39    33    28   ar
    40    15     9    1
    41    21    17   ar
    42    23    24    1
    43     3     4    1
    44    13    16    1
@<TRIPOS>MOLECULE
*****
 40 44 0 0 0
SMALL
GASTEIGER

@<TRIPOS>ATOM
      1 C           8.4070   -0.9530   20.0828 C.2     1  UNL1        0.2425
      2 O           8.1510   -0.2108   21.3608 O.2     1  UNL1       -0.2733
      3 N           8.5264   -2.4483   20.0947 N.am    1  UNL1       -0.3018
      4 H           8.6944   -2.9354   19.2558 H       1  UNL1        0.1495
      5 C           8.3897   -3.2013   21.3848 C.3     1  UNL1        0.1035
      6 C           7.2386   -3.6329   22.2442 C.3     1  UNL1        0.0933
      7 N           8.1965   -4.2661   23.2093 N.3     1  UNL1       -0.2711
      8 C           9.3477   -3.8346   22.3499 C.3     1  UNL1        0.0933
      9 C           8.0598   -5.0191   24.4994 C.3     1  UNL1        0.0578
     10 C           7.8898   -6.5093   24.4836 C.3     1  UNL1        0.0187
     11 C           7.7531   -7.2623   25.7737 C.3     1  UNL1        0.0331
     12 C           7.7865   -6.5250   27.0796 C.3     1  UNL1        0.1140
     13 O           7.6063   -7.9284   27.5774 O.3     1  UNL1       -0.3821
     14 C           7.9565   -5.0347   27.0954 C.3     1  UNL1        0.0331
     15 C           8.0931   -4.2817   25.8053 C.3     1  UNL1        0.0187
     16 H           7.5662   -8.5366   26.8228 H       1  UNL1        0.2107
     17 C           7.7572   -6.2752   28.5584 C.ar    1  UNL1        0.0518
     18 C           6.6927   -5.5276   29.3054 C.ar    1  UNL1        0.1039
     19 N           7.0649   -5.5194   30.7584 N.ar    1  UNL1       -0.2350
     20 C           8.3595   -6.2619   30.9095 C.ar    1  UNL1        0.1343
     21 S           8.7874   -6.7289   29.5497 S.2     1  UNL1       -0.0665
     22 C           8.5437   -0.2001   18.7927 C.3     1  UNL1        0.1736
     23 N           7.3474   -0.0014   17.9099 N.pl3   1  UNL1       -0.3252
     24 H           7.4062   -0.2038   16.9482 H       1  UNL1        0.1473
     25 C           4.5555    2.4879   19.2360 C.ar    1  UNL1        0.1503
     26 C           5.8414    1.9807   18.6536 C.ar    1  UNL1        0.0440
     27 C           6.0615    0.5058   18.4923 C.ar    1  UNL1        0.0486
     28 C           4.9956   -0.4621   18.9133 C.ar    1  UNL1        0.0308
     29 C           5.2157   -1.9370   18.7519 C.ar    1  UNL1        0.0066
     30 C           4.1499   -2.9048   19.1730 C.ar    1  UNL1        0.0716
     31 C           2.8639   -2.3977   19.7554 C.ar    1  UNL1        0.0054
     32 C           2.6438   -0.9227   19.9167 C.ar    1  UNL1        0.0191
     33 C           3.7097    0.0450   19.4957 C.ar    1  UNL1        0.0832
     34 N           3.4896    1.5201   19.6570 N.ar    1  UNL1       -0.2350
     35 C           4.3699   -4.3799   19.0116 C.3     1  UNL1        0.4186
     36 F           4.5899   -5.8548   18.8503 F       1  UNL1       -0.1659
     37 F           2.9042   -4.5705   18.7561 F       1  UNL1       -0.1659
     38 F           5.8356   -4.1892   19.2671 F       1  UNL1       -0.1659
     39 N           4.1153    5.4378   19.5587 N.1     1  UNL1       -0.1893
     40 C           4.3354    3.9629   19.3974 C.1     1  UNL1        0.1198
@<TRIPOS>BOND
     1    39    40    3
     2    40    25    1
     3    25    26   ar
     4    26    27   ar
     5    27    23    1
     6    23    22    1
     7    22     1    1
     8     1     2    2
     9     1     3   am
    10     3     5    1
    11     5     6    1
    12     6     7    1
    13     9     7    1
    14     9    10    1
    15    10    11    1
    16    11    12    1
    17    12    13    1
    18    12    17    1
    19    17    18   ar
    20    18    19   ar
    21    19    20   ar
    22    20    21   ar
    23    12    14    1
    24    14    15    1
    25     7     8    1
    26    27    28   ar
    27    28    29   ar
    28    29    30   ar
    29    30    35    1
    30    35    36    1
    31    35    37    1
    32    35    38    1
    33    30    31   ar
    34    31    32   ar
    35    32    33   ar
    36    33    34   ar
    37    34    25   ar
    38     8     5    1
    39    33    28   ar
    40    15     9    1
    41    21    17   ar
    42    23    24    1
    43     3     4    1
    44    13    16    1
@<TRIPOS>MOLECULE
*****
 40 44 0 0 0
SMALL
GASTEIGER

@<TRIPOS>ATOM
      1 C           3.2453   -0.4400   30.5538 C.2     1  UNL1        0.2425
      2 O           1.8540   -0.5411   30.0024 O.2     1  UNL1       -0.2733
      3 N           4.4241   -0.4788   29.6269 N.am    1  UNL1       -0.3018
      4 H           5.3373   -0.4124   29.9888 H       1  UNL1        0.1495
      5 C           4.2115   -0.6188   28.1487 C.3     1  UNL1        0.1035
      6 C           3.4814   -1.5902   27.2694 C.3     1  UNL1        0.0933
      7 N           3.9109   -0.8168   26.0582 N.3     1  UNL1       -0.2711
      8 C           4.6410    0.1548   26.9374 C.3     1  UNL1        0.0933
      9 C           3.6983   -0.9567   24.5799 C.3     1  UNL1        0.0578
     10 C           4.3792   -2.0599   23.8254 C.3     1  UNL1        0.0187
     11 C           4.1666   -2.1999   22.3472 C.3     1  UNL1        0.0331
     12 C           3.2731   -1.2367   21.6234 C.3     1  UNL1        0.1140
     13 O           3.6945   -2.1108   20.4796 O.3     1  UNL1       -0.3821
     14 C           2.5922   -0.1334   22.3779 C.3     1  UNL1        0.0331
     15 C           2.8048    0.0066   23.8561 C.3     1  UNL1        0.0187
     16 H           4.2932   -2.8016   20.8040 H       1  UNL1        0.2107
     17 C           2.5260   -0.5770   20.5024 C.ar    1  UNL1        0.0518
     18 C           1.0353   -0.4541   20.3884 C.ar    1  UNL1        0.1039
     19 N           0.7264    0.2744   19.1142 N.ar    1  UNL1       -0.2350
     20 C           2.0261    0.6017   18.4406 C.ar    1  UNL1        0.1343
     21 S           3.1383    0.0755   19.2986 S.2     1  UNL1       -0.0665
     22 C           3.4579   -0.3000   32.0321 C.3     1  UNL1        0.1736
     23 N           4.1309   -1.3985   32.8003 N.pl3   1  UNL1       -0.3252
     24 H           3.6214   -2.1985   33.0639 H       1  UNL1        0.1473
     25 C           7.4564   -0.1901   34.5979 C.ar    1  UNL1        0.1503
     26 C           6.0069   -0.3106   34.2311 C.ar    1  UNL1        0.0440
     27 C           5.5804   -1.2780   33.1671 C.ar    1  UNL1        0.0486
     28 C           6.6034   -2.1250   32.4698 C.ar    1  UNL1        0.0308
     29 C           6.1769   -3.0924   31.4058 C.ar    1  UNL1        0.0066
     30 C           7.1999   -3.9394   30.7086 C.ar    1  UNL1        0.0716
     31 C           8.6493   -3.8189   31.0754 C.ar    1  UNL1        0.0054
     32 C           9.0758   -2.8515   32.1394 C.ar    1  UNL1        0.0191
     33 C           8.0529   -2.0045   32.8366 C.ar    1  UNL1        0.0832
     34 N           8.4794   -1.0370   33.9007 N.ar    1  UNL1       -0.2350
     35 C           6.7734   -4.9069   29.6446 C.3     1  UNL1        0.4186
     36 F           6.3469   -5.8743   28.5805 F       1  UNL1       -0.1659
     37 F           6.9058   -3.8282   28.6108 F       1  UNL1       -0.1659
     38 F           6.6410   -5.9856   30.6784 F       1  UNL1       -0.1659
     39 N           8.3094    1.7449   36.7259 N.1     1  UNL1       -0.1893
     40 C           7.8829    0.7774   35.6619 C.1     1  UNL1        0.1198
@<TRIPOS>BOND
     1    39    40    3
     2    40    25    1
     3    25    26   ar
     4    26    27   ar
     5    27    23    1
     6    23    22    1
     7    22     1    1
     8     1     2    2
     9     1     3   am
    10     3     5    1
    11     5     6    1
    12     6     7    1
    13     9     7    1
    14     9    10    1
    15    10    11    1
    16    11    12    1
    17    12    13    1
    18    12    17    1
    19    17    18   ar
    20    18    19   ar
    21    19    20   ar
    22    20    21   ar
    23    12    14    1
    24    14    15    1
    25     7     8    1
    26    27    28   ar
    27    28    29   ar
    28    29    30   ar
    29    30    35    1
    30    35    36    1
    31    35    37    1
    32    35    38    1
    33    30    31   ar
    34    31    32   ar
    35    32    33   ar
    36    33    34   ar
    37    34    25   ar
    38     8     5    1
    39    33    28   ar
    40    15     9    1
    41    21    17   ar
    42    23    24    1
    43     3     4    1
    44    13    16    1
