@<TRIPOS>MOLECULE
*****
 25 27 0 0 0
SMALL
GASTEIGER

@<TRIPOS>ATOM
      1 C          -6.9433  -19.3391   19.8812 C.3     1  UNL1        0.1872
      2 C          -6.8802  -20.5932   22.6058 C.3     1  UNL1        0.0357
      3 C          -8.0828  -19.8108   22.1680 C.2     1  UNL1        0.0331
      4 C          -8.1144  -19.1837   20.8057 C.2     1  UNL1        0.0875
      5 N          -9.3169  -18.4013   20.3678 N.2     1  UNL1       -0.2513
      6 C         -10.4879  -18.2459   21.2923 C.2     1  UNL1        0.0661
      7 C         -11.6904  -17.4634   20.8545 C.3     1  UNL1        0.0718
      8 C         -12.8614  -17.3081   21.7789 C.2     1  UNL1       -0.0198
      9 C         -12.8299  -17.9351   23.1412 C.2     1  UNL1       -0.0040
     10 C         -11.6274  -18.7176   23.5790 C.2     1  UNL1        0.0040
     11 C         -10.4564  -18.8729   22.6546 C.2     1  UNL1        0.0525
     12 C          -9.2538  -19.6554   23.0924 C.2     1  UNL1        0.1940
     13 O          -9.2223  -20.2825   24.4547 O.2     1  UNL1       -0.2868
     14 O          -5.6928  -18.5443   20.1147 O.3     1  UNL1       -0.3474
     15 C          -4.3504  -19.1770   19.8971 C.3     1  UNL1        0.1428
     16 C          -3.4823  -19.5173   21.0721 C.3     1  UNL1        0.0347
     17 C          -3.0890  -18.4486   22.0485 C.3     1  UNL1        0.0346
     18 C          -3.9964  -18.1080   23.1933 C.3     1  UNL1        0.1422
     19 O          -5.1049  -17.1155   23.0021 O.3     1  UNL1       -0.3536
     20 C          -5.2047  -15.9199   23.9025 C.3     1  UNL1        0.1469
     21 C          -6.4018  -15.7470   24.7896 C.3     1  UNL1        0.0820
     22 C          -5.5086  -15.2950   25.9067 C.3     1  UNL1        0.0076
     23 C          -7.2949  -16.1989   23.6725 C.3     1  UNL1        0.1469
     24 O          -8.4920  -16.0259   24.5596 O.3     1  UNL1       -0.3534
     25 C          -7.5988  -15.5740   25.6767 C.3     1  UNL1        0.1469
@<TRIPOS>BOND
     1     2     3    1
     2     3     4    2
     3     4     1    1
     4     1    14    1
     5    14    15    1
     6    15    16    1
     7    16    17    1
     8    17    18    1
     9    18    19    1
    10    19    20    1
    11    20    21    1
    12    21    22    1
    13    21    23    1
    14    23    24    1
    15    24    25    1
    16     4     5    1
    17     5     6    2
    18     6     7    1
    19     7     8    1
    20     8     9    2
    21     9    10    1
    22    10    11    2
    23    11    12    1
    24    12    13    2
    25    12     3    1
    26    25    21    1
    27    11     6    1
@<TRIPOS>MOLECULE
*****
 25 27 0 0 0
SMALL
GASTEIGER

@<TRIPOS>ATOM
      1 C          -9.7868  -18.6906   19.9471 C.3     1  UNL1        0.1872
      2 C         -10.9737  -20.1729   22.2697 C.3     1  UNL1        0.0357
      3 C         -10.1421  -18.9474   22.5080 C.2     1  UNL1        0.0331
      4 C          -9.5486  -18.2063   21.3467 C.2     1  UNL1        0.0875
      5 N          -8.7171  -16.9809   21.5850 N.2     1  UNL1       -0.2513
      6 C          -8.4789  -16.4966   22.9845 C.2     1  UNL1        0.0661
      7 C          -7.6473  -15.2712   23.2228 C.3     1  UNL1        0.0718
      8 C          -7.4091  -14.7869   24.6223 C.2     1  UNL1       -0.0198
      9 C          -8.0026  -15.5280   25.7836 C.2     1  UNL1       -0.0040
     10 C          -8.8342  -16.7534   25.5453 C.2     1  UNL1        0.0040
     11 C          -9.0723  -17.2377   24.1458 C.2     1  UNL1        0.0525
     12 C          -9.9040  -18.4631   23.9075 C.2     1  UNL1        0.1940
     13 O         -10.4974  -19.2043   25.0688 O.2     1  UNL1       -0.2868
     14 O          -8.7388  -19.5033   19.2462 O.3     1  UNL1       -0.3474
     15 C          -7.2924  -19.3313   19.6043 C.3     1  UNL1        0.1428
     16 C          -6.6221  -20.3191   20.5127 C.3     1  UNL1        0.0347
     17 C          -6.3724  -19.9674   21.9493 C.3     1  UNL1        0.0346
     18 C          -5.5514  -18.7604   22.2942 C.3     1  UNL1        0.1422
     19 O          -4.4676  -18.2999   21.3649 O.3     1  UNL1       -0.3536
     20 C          -3.0277  -18.4995   21.7346 C.3     1  UNL1        0.1469
     21 C          -1.9541  -17.7543   20.9985 C.3     1  UNL1        0.0820
     22 C          -2.1663  -16.5673   21.8905 C.3     1  UNL1        0.0076
     23 C          -1.7419  -18.9413   20.1064 C.3     1  UNL1        0.1469
     24 O          -0.6683  -18.1961   19.3702 O.3     1  UNL1       -0.3534
     25 C          -0.8805  -17.0091   20.2623 C.3     1  UNL1        0.1469
@<TRIPOS>BOND
     1     2     3    1
     2     3     4    2
     3     4     1    1
     4     1    14    1
     5    14    15    1
     6    15    16    1
     7    16    17    1
     8    17    18    1
     9    18    19    1
    10    19    20    1
    11    20    21    1
    12    21    22    1
    13    21    23    1
    14    23    24    1
    15    24    25    1
    16     4     5    1
    17     5     6    2
    18     6     7    1
    19     7     8    1
    20     8     9    2
    21     9    10    1
    22    10    11    2
    23    11    12    1
    24    12    13    2
    25    12     3    1
    26    25    21    1
    27    11     6    1
@<TRIPOS>MOLECULE
*****
 25 27 0 0 0
SMALL
GASTEIGER

@<TRIPOS>ATOM
      1 C          -7.1967  -15.0097   23.4396 C.3     1  UNL1        0.1872
      2 C          -8.5636  -16.2942   25.7808 C.3     1  UNL1        0.0357
      3 C          -8.8049  -16.8131   24.3942 C.2     1  UNL1        0.0331
      4 C          -8.1215  -16.1708   23.2236 C.2     1  UNL1        0.0875
      5 N          -8.3627  -16.6897   21.8371 N.2     1  UNL1       -0.2513
      6 C          -9.2875  -17.8509   21.6211 C.2     1  UNL1        0.0661
      7 C          -9.5287  -18.3697   20.2345 C.3     1  UNL1        0.0718
      8 C         -10.4535  -19.5308   20.0186 C.2     1  UNL1       -0.0198
      9 C         -11.1369  -20.1731   21.1893 C.2     1  UNL1       -0.0040
     10 C         -10.8957  -19.6542   22.5758 C.2     1  UNL1        0.0040
     11 C          -9.9710  -18.4931   22.7917 C.2     1  UNL1        0.0525
     12 C          -9.7297  -17.9742   24.1783 C.2     1  UNL1        0.1940
     13 O         -10.4131  -18.6165   25.3490 O.2     1  UNL1       -0.2868
     14 O          -5.7620  -15.1039   23.0120 O.3     1  UNL1       -0.3474
     15 C          -4.7693  -15.8288   23.8715 C.3     1  UNL1        0.1428
     16 C          -4.2809  -17.1888   23.4693 C.3     1  UNL1        0.0347
     17 C          -5.2229  -18.1650   22.8292 C.3     1  UNL1        0.0346
     18 C          -4.7078  -19.4756   22.3124 C.3     1  UNL1        0.1422
     19 O          -3.2370  -19.7685   22.3442 O.3     1  UNL1       -0.3536
     20 C          -2.4629  -19.8615   21.0627 C.3     1  UNL1        0.1469
     21 C          -2.3783  -18.6744   20.1498 C.3     1  UNL1        0.0820
     22 C          -3.4781  -19.2459   19.3049 C.3     1  UNL1        0.0076
     23 C          -1.2786  -18.1030   20.9947 C.3     1  UNL1        0.1469
     24 O          -1.1940  -16.9159   20.0817 O.3     1  UNL1       -0.3534
     25 C          -2.2937  -17.4873   19.2368 C.3     1  UNL1        0.1469
@<TRIPOS>BOND
     1     2     3    1
     2     3     4    2
     3     4     1    1
     4     1    14    1
     5    14    15    1
     6    15    16    1
     7    16    17    1
     8    17    18    1
     9    18    19    1
    10    19    20    1
    11    20    21    1
    12    21    22    1
    13    21    23    1
    14    23    24    1
    15    24    25    1
    16     4     5    1
    17     5     6    2
    18     6     7    1
    19     7     8    1
    20     8     9    2
    21     9    10    1
    22    10    11    2
    23    11    12    1
    24    12    13    2
    25    12     3    1
    26    25    21    1
    27    11     6    1
@<TRIPOS>MOLECULE
*****
 25 27 0 0 0
SMALL
GASTEIGER

@<TRIPOS>ATOM
      1 C          -7.1001  -19.3239   22.5490 C.3     1  UNL1        0.1872
      2 C          -6.1837  -21.1613   20.3617 C.3     1  UNL1        0.0357
      3 C          -5.3127  -20.0201   20.7966 C.2     1  UNL1        0.0331
      4 C          -5.7709  -19.1014   21.8903 C.2     1  UNL1        0.0875
      5 N          -4.9000  -17.9603   22.3252 N.2     1  UNL1       -0.2513
      6 C          -3.5708  -17.7378   21.6665 C.2     1  UNL1        0.0661
      7 C          -2.6999  -16.5966   22.1015 C.3     1  UNL1        0.0718
      8 C          -1.3708  -16.3741   21.4427 C.2     1  UNL1       -0.0198
      9 C          -0.9126  -17.2928   20.3491 C.2     1  UNL1       -0.0040
     10 C          -1.7835  -18.4340   19.9142 C.2     1  UNL1        0.0040
     11 C          -3.1126  -18.6564   20.5729 C.2     1  UNL1        0.0525
     12 C          -3.9836  -19.7977   20.1379 C.2     1  UNL1        0.1940
     13 O          -3.5254  -20.7163   19.0443 O.2     1  UNL1       -0.2868
     14 O          -8.2758  -18.4720   22.1723 O.3     1  UNL1       -0.3474
     15 C          -8.6083  -17.2530   22.9807 C.3     1  UNL1        0.1428
     16 C          -9.1220  -17.3997   24.3823 C.3     1  UNL1        0.0347
     17 C          -9.9028  -18.6201   24.7711 C.3     1  UNL1        0.0346
     18 C         -11.3635  -18.7120   24.4426 C.3     1  UNL1        0.1422
     19 O         -11.7992  -19.0114   23.0388 O.3     1  UNL1       -0.3536
     20 C         -12.5754  -17.9907   22.2606 C.3     1  UNL1        0.1469
     21 C         -11.8525  -16.9741   21.4275 C.3     1  UNL1        0.0820
     22 C         -12.2753  -15.8941   22.3786 C.3     1  UNL1        0.0076
     23 C         -11.4298  -18.0542   20.4764 C.3     1  UNL1        0.1469
     24 O         -10.7070  -17.0377   19.6433 O.3     1  UNL1       -0.3534
     25 C         -11.1297  -15.9576   20.5944 C.3     1  UNL1        0.1469
@<TRIPOS>BOND
     1     2     3    1
     2     3     4    2
     3     4     1    1
     4     1    14    1
     5    14    15    1
     6    15    16    1
     7    16    17    1
     8    17    18    1
     9    18    19    1
    10    19    20    1
    11    20    21    1
    12    21    22    1
    13    21    23    1
    14    23    24    1
    15    24    25    1
    16     4     5    1
    17     5     6    2
    18     6     7    1
    19     7     8    1
    20     8     9    2
    21     9    10    1
    22    10    11    2
    23    11    12    1
    24    12    13    2
    25    12     3    1
    26    25    21    1
    27    11     6    1
@<TRIPOS>MOLECULE
*****
 25 27 0 0 0
SMALL
GASTEIGER

@<TRIPOS>ATOM
      1 C          -7.7442  -19.1543   20.5386 C.3     1  UNL1        0.1872
      2 C          -7.5605  -20.7285   23.0858 C.3     1  UNL1        0.0357
      3 C          -8.7648  -19.8758   22.8163 C.2     1  UNL1        0.0331
      4 C          -8.8567  -19.0887   21.5427 C.2     1  UNL1        0.0875
      5 N         -10.0609  -18.2361   21.2731 N.2     1  UNL1       -0.2513
      6 C         -11.1734  -18.1705   22.2772 C.2     1  UNL1        0.0661
      7 C         -12.3777  -17.3178   22.0077 C.3     1  UNL1        0.0718
      8 C         -13.4901  -17.2523   23.0118 C.2     1  UNL1       -0.0198
      9 C         -13.3982  -18.0394   24.2854 C.2     1  UNL1       -0.0040
     10 C         -12.1940  -18.8920   24.5549 C.2     1  UNL1        0.0040
     11 C         -11.0816  -18.9576   23.5508 C.2     1  UNL1        0.0525
     12 C          -9.8772  -19.8102   23.8203 C.2     1  UNL1        0.1940
     13 O          -9.7854  -20.5973   25.0939 O.2     1  UNL1       -0.2868
     14 O          -6.5166  -18.3123   20.7232 O.3     1  UNL1       -0.3474
     15 C          -5.4884  -18.6991   21.7445 C.3     1  UNL1        0.1428
     16 C          -5.2248  -17.8046   22.9194 C.3     1  UNL1        0.0347
     17 C          -3.8496  -17.7336   23.5142 C.3     1  UNL1        0.0346
     18 C          -2.6509  -17.6160   22.6202 C.3     1  UNL1        0.1422
     19 O          -1.8381  -18.8332   22.2915 O.3     1  UNL1       -0.3536
     20 C          -1.9969  -19.5037   20.9592 C.3     1  UNL1        0.1469
     21 C          -1.8755  -18.7023   19.6971 C.3     1  UNL1        0.0820
     22 C          -3.2902  -19.0502   19.3401 C.3     1  UNL1        0.0076
     23 C          -0.4608  -18.3543   20.0541 C.3     1  UNL1        0.1469
     24 O          -0.3394  -17.5529   18.7919 O.3     1  UNL1       -0.3534
     25 C          -1.7541  -17.9009   18.4349 C.3     1  UNL1        0.1469
@<TRIPOS>BOND
     1     2     3    1
     2     3     4    2
     3     4     1    1
     4     1    14    1
     5    14    15    1
     6    15    16    1
     7    16    17    1
     8    17    18    1
     9    18    19    1
    10    19    20    1
    11    20    21    1
    12    21    22    1
    13    21    23    1
    14    23    24    1
    15    24    25    1
    16     4     5    1
    17     5     6    2
    18     6     7    1
    19     7     8    1
    20     8     9    2
    21     9    10    1
    22    10    11    2
    23    11    12    1
    24    12    13    2
    25    12     3    1
    26    25    21    1
    27    11     6    1
@<TRIPOS>MOLECULE
*****
 25 27 0 0 0
SMALL
GASTEIGER

@<TRIPOS>ATOM
      1 C         -10.3388   -6.9199   18.5933 C.3     1  UNL1        0.1872
      2 C          -9.1211   -4.6874   17.0017 C.3     1  UNL1        0.0357
      3 C         -10.3795   -4.4516   17.7833 C.2     1  UNL1        0.0331
      4 C         -10.9884   -5.5678   18.5791 C.2     1  UNL1        0.0875
      5 N         -12.2468   -5.3321   19.3606 N.2     1  UNL1       -0.2513
      6 C         -12.8964   -3.9801   19.3464 C.2     1  UNL1        0.0661
      7 C         -14.1547   -3.7444   20.1279 C.3     1  UNL1        0.0718
      8 C         -14.8043   -2.3924   20.1137 C.2     1  UNL1       -0.0198
      9 C         -14.1955   -1.2762   19.3178 C.2     1  UNL1       -0.0040
     10 C         -12.9371   -1.5119   18.5363 C.2     1  UNL1        0.0040
     11 C         -12.2875   -2.8639   18.5506 C.2     1  UNL1        0.0525
     12 C         -11.0291   -3.0996   17.7690 C.2     1  UNL1        0.1940
     13 O         -10.4203   -1.9834   16.9732 O.2     1  UNL1       -0.2868
     14 O         -10.6926   -7.9330   17.5453 O.3     1  UNL1       -0.3474
     15 C         -11.5359   -7.5339   16.3708 C.3     1  UNL1        0.1428
     16 C         -12.9505   -8.0211   16.2630 C.3     1  UNL1        0.0347
     17 C         -13.9581   -7.6347   17.3048 C.3     1  UNL1        0.0346
     18 C         -14.0675   -8.4280   18.5731 C.3     1  UNL1        0.1422
     19 O         -15.1696   -9.4324   18.7369 O.3     1  UNL1       -0.3536
     20 C         -16.2759   -9.1786   19.7175 C.3     1  UNL1        0.1469
     21 C         -17.7063   -9.2919   19.2802 C.3     1  UNL1        0.0820
     22 C         -18.0559   -8.0949   20.1138 C.3     1  UNL1        0.0076
     23 C         -17.3567  -10.4889   18.4467 C.3     1  UNL1        0.1469
     24 O         -18.7870  -10.6023   18.0095 O.3     1  UNL1       -0.3534
     25 C         -19.1366   -9.4052   18.8430 C.3     1  UNL1        0.1469
@<TRIPOS>BOND
     1     2     3    1
     2     3     4    2
     3     4     1    1
     4     1    14    1
     5    14    15    1
     6    15    16    1
     7    16    17    1
     8    17    18    1
     9    18    19    1
    10    19    20    1
    11    20    21    1
    12    21    22    1
    13    21    23    1
    14    23    24    1
    15    24    25    1
    16     4     5    1
    17     5     6    2
    18     6     7    1
    19     7     8    1
    20     8     9    2
    21     9    10    1
    22    10    11    2
    23    11    12    1
    24    12    13    2
    25    12     3    1
    26    25    21    1
    27    11     6    1
@<TRIPOS>MOLECULE
*****
 25 27 0 0 0
SMALL
GASTEIGER

@<TRIPOS>ATOM
      1 C         -15.9423   -4.6502   20.1151 C.3     1  UNL1        0.1872
      2 C         -14.6102   -1.9706   19.9017 C.3     1  UNL1        0.0357
      3 C         -13.8216   -3.2222   19.6528 C.2     1  UNL1        0.0331
      4 C         -14.4877   -4.5620   19.7595 C.2     1  UNL1        0.0875
      5 N         -13.6993   -5.8135   19.5106 N.2     1  UNL1       -0.2513
      6 C         -12.2446   -5.7253   19.1550 C.2     1  UNL1        0.0661
      7 C         -11.4562   -6.9768   18.9061 C.3     1  UNL1        0.0718
      8 C         -10.0016   -6.8886   18.5505 C.2     1  UNL1       -0.0198
      9 C          -9.3356   -5.5488   18.4438 C.2     1  UNL1       -0.0040
     10 C         -10.1240   -4.2973   18.6927 C.2     1  UNL1        0.0040
     11 C         -11.5785   -4.3855   19.0483 C.2     1  UNL1        0.0525
     12 C         -12.3671   -3.1340   19.2972 C.2     1  UNL1        0.1940
     13 O         -11.7010   -1.7942   19.1905 O.2     1  UNL1       -0.2868
     14 O         -16.9841   -4.5608   19.0395 O.3     1  UNL1       -0.3474
     15 C         -16.8473   -5.3835   17.7928 C.3     1  UNL1        0.1428
     16 C         -17.9632   -6.2909   17.3668 C.3     1  UNL1        0.0347
     17 C         -19.3103   -6.1794   18.0170 C.3     1  UNL1        0.0346
     18 C         -19.6305   -7.0081   19.2257 C.3     1  UNL1        0.1422
     19 O         -18.5285   -7.6901   19.9809 O.3     1  UNL1       -0.3536
     20 C         -18.2785   -9.1557   19.7821 C.3     1  UNL1        0.1469
     21 C         -17.0973   -9.6129   18.9786 C.3     1  UNL1        0.0820
     22 C         -17.9927  -10.5031   18.1688 C.3     1  UNL1        0.0076
     23 C         -16.2019   -8.7227   19.7883 C.3     1  UNL1        0.1469
     24 O         -15.0207   -9.1798   18.9848 O.3     1  UNL1       -0.3534
     25 C         -15.9161  -10.0700   18.1750 C.3     1  UNL1        0.1469
@<TRIPOS>BOND
     1     2     3    1
     2     3     4    2
     3     4     1    1
     4     1    14    1
     5    14    15    1
     6    15    16    1
     7    16    17    1
     8    17    18    1
     9    18    19    1
    10    19    20    1
    11    20    21    1
    12    21    22    1
    13    21    23    1
    14    23    24    1
    15    24    25    1
    16     4     5    1
    17     5     6    2
    18     6     7    1
    19     7     8    1
    20     8     9    2
    21     9    10    1
    22    10    11    2
    23    11    12    1
    24    12    13    2
    25    12     3    1
    26    25    21    1
    27    11     6    1
@<TRIPOS>MOLECULE
*****
 25 27 0 0 0
SMALL
GASTEIGER

@<TRIPOS>ATOM
      1 C          -7.2875  -14.7918   23.4419 C.3     1  UNL1        0.1872
      2 C          -8.7822  -14.4302   20.8660 C.3     1  UNL1        0.0357
      3 C          -8.9647  -15.6837   21.6695 C.2     1  UNL1        0.0331
      4 C          -8.2174  -15.8646   22.9574 C.2     1  UNL1        0.0875
      5 N          -8.3998  -17.1180   23.7608 N.2     1  UNL1       -0.2513
      6 C          -9.3297  -18.1907   23.2763 C.2     1  UNL1        0.0661
      7 C          -9.5121  -19.4442   24.0797 C.3     1  UNL1        0.0718
      8 C         -10.4419  -20.5169   23.5951 C.2     1  UNL1       -0.0198
      9 C         -11.1893  -20.3360   22.3072 C.2     1  UNL1       -0.0040
     10 C         -11.0069  -19.0826   21.5038 C.2     1  UNL1        0.0040
     11 C         -10.0770  -18.0099   21.9883 C.2     1  UNL1        0.0525
     12 C          -9.8945  -16.7564   21.1849 C.2     1  UNL1        0.1940
     13 O         -10.6419  -16.5756   19.8970 O.2     1  UNL1       -0.2868
     14 O          -5.8089  -15.0417   23.4795 O.3     1  UNL1       -0.3474
     15 C          -5.0774  -15.0185   24.7888 C.3     1  UNL1        0.1428
     16 C          -5.0228  -16.2529   25.6393 C.3     1  UNL1        0.0347
     17 C          -4.0800  -17.3651   25.2873 C.3     1  UNL1        0.0346
     18 C          -3.7091  -17.6088   23.8545 C.3     1  UNL1        0.1422
     19 O          -4.0892  -18.8990   23.1903 O.3     1  UNL1       -0.3536
     20 C          -3.1956  -19.4954   22.1436 C.3     1  UNL1        0.1469
     21 C          -3.2936  -19.0313   20.7206 C.3     1  UNL1        0.0820
     22 C          -1.7999  -18.9096   20.6574 C.3     1  UNL1        0.0076
     23 C          -4.7873  -19.1529   20.7839 C.3     1  UNL1        0.1469
     24 O          -4.8854  -18.6888   19.3609 O.3     1  UNL1       -0.3534
     25 C          -3.3917  -18.5671   19.2976 C.3     1  UNL1        0.1469
@<TRIPOS>BOND
     1     2     3    1
     2     3     4    2
     3     4     1    1
     4     1    14    1
     5    14    15    1
     6    15    16    1
     7    16    17    1
     8    17    18    1
     9    18    19    1
    10    19    20    1
    11    20    21    1
    12    21    22    1
    13    21    23    1
    14    23    24    1
    15    24    25    1
    16     4     5    1
    17     5     6    2
    18     6     7    1
    19     7     8    1
    20     8     9    2
    21     9    10    1
    22    10    11    2
    23    11    12    1
    24    12    13    2
    25    12     3    1
    26    25    21    1
    27    11     6    1
@<TRIPOS>MOLECULE
*****
 25 27 0 0 0
SMALL
GASTEIGER

@<TRIPOS>ATOM
      1 C           6.7008   -3.6989   21.6824 C.3     1  UNL1        0.1872
      2 C           5.8188   -2.2013   24.1277 C.3     1  UNL1        0.0357
      3 C           6.4913   -3.5349   24.2669 C.2     1  UNL1        0.0331
      4 C           6.9323   -4.2837   23.0442 C.2     1  UNL1        0.0875
      5 N           7.6048   -5.6172   23.1833 N.2     1  UNL1       -0.2513
      6 C           7.8364   -6.2020   24.5452 C.2     1  UNL1        0.0661
      7 C           8.5089   -7.5356   24.6843 C.3     1  UNL1        0.0718
      8 C           8.7404   -8.1203   26.0460 C.2     1  UNL1       -0.0198
      9 C           8.2994   -7.3715   27.2687 C.2     1  UNL1       -0.0040
     10 C           7.6269   -6.0380   27.1296 C.2     1  UNL1        0.0040
     11 C           7.3954   -5.4533   25.7678 C.2     1  UNL1        0.0525
     12 C           6.7228   -4.1197   25.6286 C.2     1  UNL1        0.1940
     13 O           6.2818   -3.3709   26.8513 O.2     1  UNL1       -0.2868
     14 O           6.0268   -4.5157   20.6201 O.3     1  UNL1       -0.3474
     15 C           4.6962   -4.0875   20.0760 C.3     1  UNL1        0.1428
     16 C           4.5572   -3.7369   18.6242 C.3     1  UNL1        0.0347
     17 C           4.7061   -2.3122   18.1791 C.3     1  UNL1        0.0346
     18 C           5.5378   -1.3580   18.9839 C.3     1  UNL1        0.1422
     19 O           4.9567   -0.6969   20.1985 O.3     1  UNL1       -0.3536
     20 C           3.9044    0.3610   20.0454 C.3     1  UNL1        0.1469
     21 C           2.4548   -0.0228   20.0087 C.3     1  UNL1        0.0820
     22 C           2.6315   -0.8107   21.2728 C.3     1  UNL1        0.0076
     23 C           2.2781    0.7652   18.7447 C.3     1  UNL1        0.1469
     24 O           0.8286    0.3814   18.7080 O.3     1  UNL1       -0.3534
     25 C           1.0052   -0.4066   19.9721 C.3     1  UNL1        0.1469
@<TRIPOS>BOND
     1     2     3    1
     2     3     4    2
     3     4     1    1
     4     1    14    1
     5    14    15    1
     6    15    16    1
     7    16    17    1
     8    17    18    1
     9    18    19    1
    10    19    20    1
    11    20    21    1
    12    21    22    1
    13    21    23    1
    14    23    24    1
    15    24    25    1
    16     4     5    1
    17     5     6    2
    18     6     7    1
    19     7     8    1
    20     8     9    2
    21     9    10    1
    22    10    11    2
    23    11    12    1
    24    12    13    2
    25    12     3    1
    26    25    21    1
    27    11     6    1
