@<TRIPOS>MOLECULE
*****
 21 22 0 0 0
SMALL
GASTEIGER

@<TRIPOS>ATOM
      1 C          -9.0367  -16.5663   23.8863 C.3     1  UNL1        0.0947
      2 C          -8.6952  -15.1602   24.2814 C.3     1  UNL1        0.0154
      3 C          -8.6614  -16.2560   25.3050 C.3     1  UNL1        0.0287
      4 C          -9.2768  -18.0428   23.9973 C.ar    1  UNL1        0.0149
      5 C         -10.1646  -18.7187   24.9997 C.ar    1  UNL1        0.0031
      6 C         -10.1077  -20.1963   24.7474 C.ar    1  UNL1        0.0072
      7 C          -9.1847  -20.4335   23.5890 C.ar    1  UNL1        0.0351
      8 S          -8.6711  -19.1025   23.1255 S.2     1  UNL1       -0.0903
      9 C          -8.4253  -16.7096   26.7152 C.3     1  UNL1        0.0659
     10 N          -7.2890  -16.1343   27.5077 N.3     1  UNL1       -0.3211
     11 H          -6.4038  -16.4168   27.0871 H       1  UNL1        0.1189
     12 H          -7.3349  -16.4786   28.4668 H       1  UNL1        0.1189
     13 N         -10.7487  -16.2900   21.9517 N.am    1  UNL1       -0.2711
     14 C          -9.3285  -16.3638   22.4290 C.2     1  UNL1        0.2295
     15 O          -8.2002  -16.2351   21.4489 O.2     1  UNL1       -0.2745
     16 C         -11.0405  -16.0875   20.4943 C.3     1  UNL1        0.1202
     17 C         -10.6965  -18.6023   19.9399 C.2     1  UNL1       -0.0031
     18 C         -11.3036  -17.2707   19.6107 C.2     1  UNL1       -0.0047
     19 C         -11.8769  -16.4187   22.9317 C.3     1  UNL1        0.1202
     20 C         -12.8424  -17.5611   22.8182 C.2     1  UNL1       -0.0047
     21 C         -13.7121  -17.9267   23.9842 C.2     1  UNL1       -0.0031
@<TRIPOS>BOND
     1    17    18    2
     2    18    16    1
     3    16    13    1
     4    13    19    1
     5    19    20    1
     6    20    21    2
     7    13    14   am
     8    14    15    2
     9     1    14    1
    10     1     4    1
    11     4     5   ar
    12     5     6   ar
    13     6     7   ar
    14     7     8   ar
    15     1     2    1
    16     2     3    1
    17     3     9    1
    18     9    10    1
    19     3     1    1
    20     8     4   ar
    21    10    11    1
    22    10    12    1
@<TRIPOS>MOLECULE
*****
 21 22 0 0 0
SMALL
GASTEIGER

@<TRIPOS>ATOM
      1 C         -10.1291  -17.0474   22.6098 C.3     1  UNL1        0.0947
      2 C         -10.8394  -15.9384   21.8917 C.3     1  UNL1        0.0154
      3 C         -11.6080  -17.1328   22.3740 C.3     1  UNL1        0.0287
      4 C          -9.9054  -18.3422   23.3332 C.ar    1  UNL1        0.0149
      5 C         -10.3385  -18.6553   24.7348 C.ar    1  UNL1        0.0031
      6 C          -9.9101  -20.0578   25.0499 C.ar    1  UNL1        0.0072
      7 C          -9.2123  -20.6116   23.8431 C.ar    1  UNL1        0.0351
      8 S          -9.2094  -19.5513   22.7821 S.2     1  UNL1       -0.0903
      9 C         -12.9055  -17.8718   22.5163 C.3     1  UNL1        0.0659
     10 N         -13.6656  -17.8107   23.8080 N.3     1  UNL1       -0.3211
     11 H         -13.1262  -18.2700   24.5419 H       1  UNL1        0.1189
     12 H         -14.5620  -18.2847   23.6978 H       1  UNL1        0.1189
     13 N          -8.2120  -15.7270   23.7636 N.am    1  UNL1       -0.2711
     14 C          -8.7279  -16.5122   22.5943 C.2     1  UNL1        0.2295
     15 O          -7.8426  -16.7622   21.4094 O.2     1  UNL1       -0.2745
     16 C          -6.8108  -15.1918   23.7481 C.3     1  UNL1        0.1202
     17 C          -5.0508  -15.7216   25.5844 C.2     1  UNL1       -0.0031
     18 C          -5.6803  -16.0349   24.2594 C.2     1  UNL1       -0.0047
     19 C          -9.0972  -15.4770   24.9484 C.3     1  UNL1        0.1202
     20 C          -8.5008  -15.3663   26.3203 C.2     1  UNL1       -0.0047
     21 C          -8.3718  -16.5866   27.1828 C.2     1  UNL1       -0.0031
@<TRIPOS>BOND
     1    17    18    2
     2    18    16    1
     3    16    13    1
     4    13    19    1
     5    19    20    1
     6    20    21    2
     7    13    14   am
     8    14    15    2
     9     1    14    1
    10     1     4    1
    11     4     5   ar
    12     5     6   ar
    13     6     7   ar
    14     7     8   ar
    15     1     2    1
    16     2     3    1
    17     3     9    1
    18     9    10    1
    19     3     1    1
    20     8     4   ar
    21    10    11    1
    22    10    12    1
@<TRIPOS>MOLECULE
*****
 21 22 0 0 0
SMALL
GASTEIGER

@<TRIPOS>ATOM
      1 C         -10.5212  -18.2283   23.7505 C.3     1  UNL1        0.0947
      2 C         -10.4685  -18.8518   25.1138 C.3     1  UNL1        0.0154
      3 C         -11.7930  -18.5485   24.4786 C.3     1  UNL1        0.0287
      4 C         -11.0835  -17.6456   22.4878 C.ar    1  UNL1        0.0149
      5 C         -11.7574  -16.3121   22.3558 C.ar    1  UNL1        0.0031
      6 C         -12.1609  -16.1366   20.9219 C.ar    1  UNL1        0.0072
      7 C         -11.7365  -17.3617   20.1676 C.ar    1  UNL1        0.0351
      8 S         -11.0706  -18.2944   21.1354 S.2     1  UNL1       -0.0903
      9 C         -13.2920  -18.5582   24.5321 C.3     1  UNL1        0.0659
     10 N         -13.9948  -18.6408   25.8547 N.3     1  UNL1       -0.3211
     11 H         -13.8027  -19.5450   26.2859 H       1  UNL1        0.1189
     12 H         -14.9997  -18.5383   25.7128 H       1  UNL1        0.1189
     13 N          -8.3054  -16.8772   23.8718 N.am    1  UNL1       -0.2711
     14 C          -9.0542  -18.1104   23.4611 C.2     1  UNL1        0.2295
     15 O          -8.3359  -19.2258   22.7610 O.2     1  UNL1       -0.2745
     16 C          -6.8383  -16.7594   23.5823 C.3     1  UNL1        0.1202
     17 C          -5.2308  -15.3966   25.1017 C.2     1  UNL1       -0.0031
     18 C          -6.1130  -15.4834   23.8917 C.2     1  UNL1       -0.0047
     19 C          -9.0237  -15.7619   24.5718 C.3     1  UNL1        0.1202
     20 C          -8.7212  -15.4609   26.0099 C.2     1  UNL1       -0.0047
     21 C          -8.3738  -16.5749   26.9522 C.2     1  UNL1       -0.0031
@<TRIPOS>BOND
     1    17    18    2
     2    18    16    1
     3    16    13    1
     4    13    19    1
     5    19    20    1
     6    20    21    2
     7    13    14   am
     8    14    15    2
     9     1    14    1
    10     1     4    1
    11     4     5   ar
    12     5     6   ar
    13     6     7   ar
    14     7     8   ar
    15     1     2    1
    16     2     3    1
    17     3     9    1
    18     9    10    1
    19     3     1    1
    20     8     4   ar
    21    10    11    1
    22    10    12    1
@<TRIPOS>MOLECULE
*****
 21 22 0 0 0
SMALL
GASTEIGER

@<TRIPOS>ATOM
      1 C          -9.3310  -18.6497   22.6706 C.3     1  UNL1        0.0947
      2 C          -8.1055  -19.5146   22.6737 C.3     1  UNL1        0.0154
      3 C          -8.8384  -19.2571   21.3906 C.3     1  UNL1        0.0287
      4 C         -10.5301  -17.9060   22.1614 C.ar    1  UNL1        0.0149
      5 C         -10.5162  -16.5640   21.4914 C.ar    1  UNL1        0.0031
      6 C         -11.9311  -16.2024   21.1488 C.ar    1  UNL1        0.0072
      7 C         -12.8194  -17.3209   21.6070 C.ar    1  UNL1        0.0351
      8 S         -11.9535  -18.3738   22.2328 S.2     1  UNL1       -0.0903
      9 C          -8.9771  -19.4591   19.9108 C.3     1  UNL1        0.0659
     10 N          -7.8357  -19.1223   18.9976 N.3     1  UNL1       -0.3211
     11 H          -7.6697  -18.1162   19.0177 H       1  UNL1        0.1189
     12 H          -8.0650  -19.4102   18.0463 H       1  UNL1        0.1189
     13 N          -8.7143  -17.0737   24.6418 N.am    1  UNL1       -0.2711
     14 C          -9.4072  -18.3006   24.1273 C.2     1  UNL1        0.2295
     15 O         -10.1764  -19.1784   25.0697 O.2     1  UNL1       -0.2745
     16 C          -8.7906  -16.7246   26.0987 C.3     1  UNL1        0.1202
     17 C          -6.9081  -15.4575   27.3638 C.2     1  UNL1       -0.0031
     18 C          -8.1954  -15.4399   26.5941 C.2     1  UNL1       -0.0047
     19 C          -7.9452  -16.1959   23.6995 C.3     1  UNL1        0.1202
     20 C          -6.4796  -16.4307   23.4830 C.2     1  UNL1       -0.0047
     21 C          -5.4789  -15.4263   23.9724 C.2     1  UNL1       -0.0031
@<TRIPOS>BOND
     1    17    18    2
     2    18    16    1
     3    16    13    1
     4    13    19    1
     5    19    20    1
     6    20    21    2
     7    13    14   am
     8    14    15    2
     9     1    14    1
    10     1     4    1
    11     4     5   ar
    12     5     6   ar
    13     6     7   ar
    14     7     8   ar
    15     1     2    1
    16     2     3    1
    17     3     9    1
    18     9    10    1
    19     3     1    1
    20     8     4   ar
    21    10    11    1
    22    10    12    1
@<TRIPOS>MOLECULE
*****
 21 22 0 0 0
SMALL
GASTEIGER

@<TRIPOS>ATOM
      1 C          -9.1108  -17.7187   21.6609 C.3     1  UNL1        0.0947
      2 C          -7.8795  -18.5731   21.7217 C.3     1  UNL1        0.0154
      3 C          -9.0224  -18.9670   20.8339 C.3     1  UNL1        0.0287
      4 C         -10.4762  -17.2401   21.2650 C.ar    1  UNL1        0.0149
      5 C         -10.7774  -16.0574   20.3929 C.ar    1  UNL1        0.0031
      6 C         -12.2674  -15.9465   20.2608 C.ar    1  UNL1        0.0072
      7 C         -12.8871  -17.0607   21.0512 C.ar    1  UNL1        0.0351
      8 S         -11.7800  -17.8601   21.6719 S.2     1  UNL1       -0.0903
      9 C          -9.6314  -19.9151   19.8438 C.3     1  UNL1        0.0659
     10 N          -8.8763  -20.2915   18.6036 N.3     1  UNL1       -0.3211
     11 H          -8.7681  -19.4699   18.0089 H       1  UNL1        0.1189
     12 H          -9.3912  -21.0121   18.0976 H       1  UNL1        0.1189
     13 N          -9.2714  -16.6472   24.0222 N.am    1  UNL1       -0.2711
     14 C          -8.7249  -16.6366   22.6253 C.2     1  UNL1        0.2295
     15 O          -7.7925  -15.5441   22.1929 O.2     1  UNL1       -0.2745
     16 C          -8.8855  -15.5650   24.9867 C.3     1  UNL1        0.1202
     17 C          -8.2247  -16.2545   27.4029 C.2     1  UNL1       -0.0031
     18 C          -7.8305  -15.8237   26.0212 C.2     1  UNL1       -0.0047
     19 C         -10.2038  -17.7397   24.4546 C.3     1  UNL1        0.1202
     20 C          -9.6547  -19.0037   25.0468 C.2     1  UNL1       -0.0047
     21 C          -9.9257  -20.3218   24.3843 C.2     1  UNL1       -0.0031
@<TRIPOS>BOND
     1    17    18    2
     2    18    16    1
     3    16    13    1
     4    13    19    1
     5    19    20    1
     6    20    21    2
     7    13    14   am
     8    14    15    2
     9     1    14    1
    10     1     4    1
    11     4     5   ar
    12     5     6   ar
    13     6     7   ar
    14     7     8   ar
    15     1     2    1
    16     2     3    1
    17     3     9    1
    18     9    10    1
    19     3     1    1
    20     8     4   ar
    21    10    11    1
    22    10    12    1
@<TRIPOS>MOLECULE
*****
 21 22 0 0 0
SMALL
GASTEIGER

@<TRIPOS>ATOM
      1 C          -9.0815  -17.7265   21.4747 C.3     1  UNL1        0.0947
      2 C         -10.4247  -17.1670   21.1103 C.3     1  UNL1        0.0154
      3 C         -10.0141  -18.5194   20.6079 C.3     1  UNL1        0.0287
      4 C          -7.9224  -18.6758   21.5467 C.ar    1  UNL1        0.0149
      5 C          -7.8304  -19.8901   22.4225 C.ar    1  UNL1        0.0031
      6 C          -6.5029  -20.5423   22.1726 C.ar    1  UNL1        0.0072
      7 C          -5.7745  -19.7311   21.1424 C.ar    1  UNL1        0.0351
      8 S          -6.6518  -18.5775   20.7556 S.2     1  UNL1       -0.0903
      9 C         -10.3155  -19.7580   19.8173 C.3     1  UNL1        0.0659
     10 N          -9.3647  -20.2178   18.7521 N.3     1  UNL1       -0.3211
     11 H          -9.3444  -19.5334   17.9960 H       1  UNL1        0.1189
     12 H          -9.6732  -21.1188   18.3870 H       1  UNL1        0.1189
     13 N          -8.6731  -16.6645   23.8104 N.am    1  UNL1       -0.2711
     14 C          -8.5514  -16.6038   22.3165 C.2     1  UNL1        0.2295
     15 O          -7.8997  -15.4205   21.6645 O.2     1  UNL1       -0.2745
     16 C          -8.1430  -15.5418   24.6522 C.3     1  UNL1        0.1202
     17 C          -7.2149  -15.6412   27.0768 C.2     1  UNL1       -0.0031
     18 C          -8.3770  -15.5403   26.1338 C.2     1  UNL1       -0.0047
     19 C          -9.3247  -17.8478   24.4624 C.3     1  UNL1        0.1202
     20 C         -10.8146  -18.0114   24.4020 C.2     1  UNL1       -0.0047
     21 C         -11.4089  -19.3357   24.0244 C.2     1  UNL1       -0.0031
@<TRIPOS>BOND
     1    17    18    2
     2    18    16    1
     3    16    13    1
     4    13    19    1
     5    19    20    1
     6    20    21    2
     7    13    14   am
     8    14    15    2
     9     1    14    1
    10     1     4    1
    11     4     5   ar
    12     5     6   ar
    13     6     7   ar
    14     7     8   ar
    15     1     2    1
    16     2     3    1
    17     3     9    1
    18     9    10    1
    19     3     1    1
    20     8     4   ar
    21    10    11    1
    22    10    12    1
@<TRIPOS>MOLECULE
*****
 21 22 0 0 0
SMALL
GASTEIGER

@<TRIPOS>ATOM
      1 C          -8.2059  -19.1402   22.0002 C.3     1  UNL1        0.0947
      2 C          -7.8470  -20.4717   22.5902 C.3     1  UNL1        0.0154
      3 C          -8.8648  -19.6018   23.2662 C.3     1  UNL1        0.0287
      4 C          -8.8744  -17.8083   21.8293 C.ar    1  UNL1        0.0149
      5 C         -10.2220  -17.5705   21.2151 C.ar    1  UNL1        0.0031
      6 C         -10.4930  -16.0956   21.2488 C.ar    1  UNL1        0.0072
      7 C          -9.3128  -15.4218   21.8839 C.ar    1  UNL1        0.0351
      8 S          -8.3124  -16.4803   22.2426 S.2     1  UNL1       -0.0903
      9 C          -9.8328  -19.3659   24.3875 C.3     1  UNL1        0.0659
     10 N         -10.1537  -20.4735   25.3468 N.3     1  UNL1       -0.3211
     11 H         -10.6430  -21.2200   24.8530 H       1  UNL1        0.1189
     12 H         -10.7473  -20.1144   26.0945 H       1  UNL1        0.1189
     13 N          -5.8248  -19.1021   20.9615 N.am    1  UNL1       -0.2711
     14 C          -7.3149  -19.1412   20.7935 C.2     1  UNL1        0.2295
     15 O          -7.9139  -19.1813   19.4189 O.2     1  UNL1       -0.2745
     16 C          -4.9338  -19.1032   19.7548 C.3     1  UNL1        0.1202
     17 C          -2.3810  -18.6874   19.5094 C.2     1  UNL1       -0.0031
     18 C          -3.5210  -19.5946   19.8662 C.2     1  UNL1       -0.0047
     19 C          -5.2258  -19.0620   22.3361 C.3     1  UNL1        0.1202
     20 C          -4.6411  -17.7849   22.8625 C.2     1  UNL1       -0.0047
     21 C          -3.1687  -17.6893   23.1320 C.2     1  UNL1       -0.0031
@<TRIPOS>BOND
     1    17    18    2
     2    18    16    1
     3    16    13    1
     4    13    19    1
     5    19    20    1
     6    20    21    2
     7    13    14   am
     8    14    15    2
     9     1    14    1
    10     1     4    1
    11     4     5   ar
    12     5     6   ar
    13     6     7   ar
    14     7     8   ar
    15     1     2    1
    16     2     3    1
    17     3     9    1
    18     9    10    1
    19     3     1    1
    20     8     4   ar
    21    10    11    1
    22    10    12    1
@<TRIPOS>MOLECULE
*****
 21 22 0 0 0
SMALL
GASTEIGER

@<TRIPOS>ATOM
      1 C         -10.4109  -19.0676   21.8214 C.3     1  UNL1        0.0947
      2 C         -10.4057  -20.2407   22.7562 C.3     1  UNL1        0.0154
      3 C         -11.2679  -19.0496   23.0523 C.3     1  UNL1        0.0287
      4 C         -10.7553  -17.7264   21.2446 C.ar    1  UNL1        0.0149
      5 C         -11.8393  -17.4483   20.2458 C.ar    1  UNL1        0.0031
      6 C         -11.8301  -15.9779   19.9492 C.ar    1  UNL1        0.0072
      7 C         -10.7405  -15.3474   20.7647 C.ar    1  UNL1        0.0351
      8 S         -10.0762  -16.4280   21.5653 S.2     1  UNL1       -0.0903
      9 C         -12.2605  -18.3514   23.9340 C.3     1  UNL1        0.0659
     10 N         -13.6153  -17.9917   23.3999 N.3     1  UNL1       -0.3211
     11 H         -13.5162  -17.2905   22.6658 H       1  UNL1        0.1189
     12 H         -14.1893  -17.6153   24.1544 H       1  UNL1        0.1189
     13 N          -7.9625  -19.5188   21.0787 N.am    1  UNL1       -0.2711
     14 C          -9.4343  -19.5514   20.7908 C.2     1  UNL1        0.2295
     15 O          -9.9295  -20.0678   19.4724 O.2     1  UNL1       -0.2745
     16 C          -6.9859  -20.0026   20.0480 C.3     1  UNL1        0.1202
     17 C          -4.4519  -20.5728   20.1092 C.2     1  UNL1       -0.0031
     18 C          -5.8709  -20.9239   20.4456 C.2     1  UNL1       -0.0047
     19 C          -7.4674  -19.0024   22.3970 C.3     1  UNL1        0.1202
     20 C          -6.5583  -17.8101   22.4420 C.2     1  UNL1       -0.0047
     21 C          -6.8677  -16.6652   23.3602 C.2     1  UNL1       -0.0031
@<TRIPOS>BOND
     1    17    18    2
     2    18    16    1
     3    16    13    1
     4    13    19    1
     5    19    20    1
     6    20    21    2
     7    13    14   am
     8    14    15    2
     9     1    14    1
    10     1     4    1
    11     4     5   ar
    12     5     6   ar
    13     6     7   ar
    14     7     8   ar
    15     1     2    1
    16     2     3    1
    17     3     9    1
    18     9    10    1
    19     3     1    1
    20     8     4   ar
    21    10    11    1
    22    10    12    1
@<TRIPOS>MOLECULE
*****
 21 22 0 0 0
SMALL
GASTEIGER

@<TRIPOS>ATOM
      1 C          -9.1713  -17.2393   22.1879 C.3     1  UNL1        0.0947
      2 C          -9.2215  -16.2094   21.0985 C.3     1  UNL1        0.0154
      3 C         -10.4829  -16.6272   21.7942 C.3     1  UNL1        0.0287
      4 C          -9.6322  -18.1688   23.2712 C.ar    1  UNL1        0.0149
      5 C         -10.2499  -19.5207   23.0693 C.ar    1  UNL1        0.0031
      6 C         -10.5559  -20.0969   24.4200 C.ar    1  UNL1        0.0072
      7 C         -10.1273  -19.1011   25.4567 C.ar    1  UNL1        0.0351
      8 S          -9.5564  -17.9094   24.7467 S.2     1  UNL1       -0.0903
      9 C         -11.9685  -16.5150   21.9687 C.3     1  UNL1        0.0659
     10 N         -12.8884  -17.3258   21.1048 N.3     1  UNL1       -0.3211
     11 H         -12.8064  -17.0160   20.1365 H       1  UNL1        0.1189
     12 H         -13.8500  -17.2011   21.4214 H       1  UNL1        0.1189
     13 N          -7.1600  -18.7168   21.4654 N.am    1  UNL1       -0.2711
     14 C          -7.6995  -17.5286   22.2052 C.2     1  UNL1        0.2295
     15 O          -6.7674  -16.6298   22.9623 O.2     1  UNL1       -0.2745
     16 C          -5.6882  -19.0060   21.4828 C.3     1  UNL1        0.1202
     17 C          -3.7638  -20.2546   20.2631 C.2     1  UNL1       -0.0031
     18 C          -4.9828  -19.3820   20.2135 C.2     1  UNL1       -0.0047
     19 C          -8.0921  -19.6156   20.7083 C.3     1  UNL1        0.1202
     20 C          -8.3362  -19.3830   19.2467 C.2     1  UNL1       -0.0047
     21 C          -9.0799  -20.4047   18.4387 C.2     1  UNL1       -0.0031
@<TRIPOS>BOND
     1    17    18    2
     2    18    16    1
     3    16    13    1
     4    13    19    1
     5    19    20    1
     6    20    21    2
     7    13    14   am
     8    14    15    2
     9     1    14    1
    10     1     4    1
    11     4     5   ar
    12     5     6   ar
    13     6     7   ar
    14     7     8   ar
    15     1     2    1
    16     2     3    1
    17     3     9    1
    18     9    10    1
    19     3     1    1
    20     8     4   ar
    21    10    11    1
    22    10    12    1
