@<TRIPOS>MOLECULE
*****
 35 38 0 0 0
SMALL
GASTEIGER

@<TRIPOS>ATOM
      1 C          -5.3527  -19.7512   20.6911 C.3     1  UNL1        0.0757
      2 C          -5.4678  -18.9824   21.9739 C.3     1  UNL1        0.0195
      3 C          -6.7818  -18.3771   22.3702 C.3     1  UNL1        0.0282
      4 C          -7.9807  -18.5406   21.4837 C.3     1  UNL1        0.1420
      5 C          -9.2947  -17.9353   21.8800 C.ar    1  UNL1        0.0616
      6 C          -9.4098  -17.1665   23.1629 C.ar    1  UNL1        0.1407
      7 F          -8.4461  -16.8159   24.2577 F       1  UNL1       -0.2043
      8 C         -10.7238  -16.5612   23.5592 C.ar    1  UNL1        0.0319
      9 C         -11.9226  -16.7247   22.6727 C.ar    1  UNL1        0.0351
     10 C         -11.8075  -17.4935   21.3899 C.ar    1  UNL1        0.1737
     11 F         -13.0064  -17.6571   20.5033 F       1  UNL1       -0.2010
     12 C         -10.4935  -18.0988   20.9935 C.ar    1  UNL1        0.1654
     13 O         -10.3784  -18.8676   19.7106 O.3     1  UNL1       -0.4733
     14 C          -9.0645  -19.4729   19.3143 C.3     1  UNL1        0.2074
     15 C          -7.8656  -19.3094   20.2009 C.3     1  UNL1        0.0698
     16 C          -6.5516  -19.9147   19.8046 C.3     1  UNL1        0.0231
     17 S          -8.0958  -17.7718   22.7665 S.O2    1  UNL1        0.0093
     18 O          -8.4068  -18.1438   23.3993 O.2     1  UNL1       -0.1684
     19 O          -7.5400  -16.4197   22.4305 O.2     1  UNL1       -0.1684
     20 C          -8.2109  -17.0030   24.0494 C.ar    1  UNL1        0.1059
     21 C          -7.8090  -15.5586   24.0967 C.ar    1  UNL1        0.0192
     22 C          -7.9241  -14.7897   25.3795 C.ar    1  UNL1        0.0127
     23 C          -8.4411  -15.4652   26.6150 C.ar    1  UNL1        0.0578
     24 CL         -8.5562  -14.6963   27.8978 Cl      1  UNL1       -0.0822
     25 C          -8.8429  -16.9096   26.5677 C.ar    1  UNL1        0.0127
     26 C          -8.7278  -17.6785   25.2849 C.ar    1  UNL1        0.0192
     27 N          -4.0387  -20.3565   20.2948 N.3     1  UNL1       -0.1773
     28 H          -3.8531  -21.1138   20.9524 H       1  UNL1        0.1486
     29 O          -3.4336  -18.6422   19.2017 O.2     1  UNL1       -0.1497
     30 S          -2.8035  -19.5065   20.2533 S.O2    1  UNL1        0.1271
     31 O          -2.1734  -20.3708   21.3049 O.2     1  UNL1       -0.1497
     32 C          -1.5683  -18.6565   20.2117 C.3     1  UNL1        0.5357
     33 F          -1.6910  -18.5509   18.7205 F       1  UNL1       -0.1493
     34 F          -1.4455  -18.7620   21.7029 F       1  UNL1       -0.1493
     35 F          -0.3331  -17.8065   20.1702 F       1  UNL1       -0.1493
@<TRIPOS>BOND
     1    29    30    2
     2    30    31    2
     3    30    27    1
     4     1    27    1
     5     1     2    1
     6     2     3    1
     7     3     4    1
     8     4    17    1
     9    17    18    2
    10    17    19    2
    11    17    20    1
    12    20    21   ar
    13    21    22   ar
    14    22    23   ar
    15    23    24    1
    16    23    25   ar
    17    25    26   ar
    18     4     5    1
    19     5     6   ar
    20     6     7    1
    21     6     8   ar
    22     8     9   ar
    23     9    10   ar
    24    10    11    1
    25    10    12   ar
    26    12    13    1
    27    13    14    1
    28    15    14    1
    29    15    16    1
    30    30    32    1
    31    32    33    1
    32    32    34    1
    33    32    35    1
    34    16     1    1
    35    15     4    1
    36    26    20   ar
    37    12     5   ar
    38    27    28    1
@<TRIPOS>MOLECULE
*****
 35 38 0 0 0
SMALL
GASTEIGER

@<TRIPOS>ATOM
      1 C          -4.3096  -18.8308   21.1107 C.3     1  UNL1        0.0757
      2 C          -5.7860  -18.8963   20.8543 C.3     1  UNL1        0.0195
      3 C          -6.7408  -18.2187   21.7919 C.3     1  UNL1        0.0282
      4 C          -6.2192  -17.4757   22.9860 C.3     1  UNL1        0.1420
      5 C          -7.1740  -16.7981   23.9237 C.ar    1  UNL1        0.0616
      6 C          -8.6505  -16.8635   23.6673 C.ar    1  UNL1        0.1407
      7 F          -9.4963  -17.4990   22.6038 F       1  UNL1       -0.2043
      8 C          -9.6053  -16.1860   24.6049 C.ar    1  UNL1        0.0319
      9 C          -9.0837  -15.4430   25.7990 C.ar    1  UNL1        0.0351
     10 C          -7.6072  -15.3775   26.0554 C.ar    1  UNL1        0.1737
     11 F          -7.0855  -14.6345   27.2495 F       1  UNL1       -0.2010
     12 C          -6.6524  -16.0551   25.1177 C.ar    1  UNL1        0.1654
     13 O          -5.1759  -15.9896   25.3742 O.3     1  UNL1       -0.4733
     14 C          -4.2211  -16.6672   24.4365 C.3     1  UNL1        0.2074
     15 C          -4.7428  -17.4103   23.2424 C.3     1  UNL1        0.0698
     16 C          -3.7879  -18.0878   22.3047 C.3     1  UNL1        0.0231
     17 S          -7.6957  -17.5411   22.7296 S.O2    1  UNL1        0.0093
     18 O          -8.1275  -18.0567   23.1576 O.2     1  UNL1       -0.1684
     19 O          -7.9220  -16.5245   21.6500 O.2     1  UNL1       -0.1684
     20 C          -9.1722  -17.6065   22.4732 C.ar    1  UNL1        0.1059
     21 C          -9.9657  -18.7845   22.9556 C.ar    1  UNL1        0.0192
     22 C         -11.4422  -18.8499   22.6992 C.ar    1  UNL1        0.0127
     23 C         -12.1251  -17.7373   21.9603 C.ar    1  UNL1        0.0578
     24 CL        -13.6016  -17.8028   21.7039 Cl      1  UNL1       -0.0822
     25 C         -11.3316  -16.5594   21.4779 C.ar    1  UNL1        0.0127
     26 C          -9.8551  -16.4940   21.7344 C.ar    1  UNL1        0.0192
     27 N          -3.3547  -19.5084   20.1730 N.3     1  UNL1       -0.1773
     28 H          -3.0732  -20.3813   20.6194 H       1  UNL1        0.1486
     29 O          -1.2967  -19.7161   20.6434 O.2     1  UNL1       -0.1497
     30 S          -2.0950  -18.8113   19.7523 S.O2    1  UNL1        0.1271
     31 O          -2.8933  -17.9066   18.8612 O.2     1  UNL1       -0.1497
     32 C          -0.8352  -18.1142   19.3315 C.3     1  UNL1        0.5357
     33 F          -1.3943  -17.9368   17.9510 F       1  UNL1       -0.1493
     34 F          -0.2760  -18.2916   20.7120 F       1  UNL1       -0.1493
     35 F           0.4246  -17.4171   18.9109 F       1  UNL1       -0.1493
@<TRIPOS>BOND
     1    29    30    2
     2    30    31    2
     3    30    27    1
     4     1    27    1
     5     1     2    1
     6     2     3    1
     7     3     4    1
     8     4    17    1
     9    17    18    2
    10    17    19    2
    11    17    20    1
    12    20    21   ar
    13    21    22   ar
    14    22    23   ar
    15    23    24    1
    16    23    25   ar
    17    25    26   ar
    18     4     5    1
    19     5     6   ar
    20     6     7    1
    21     6     8   ar
    22     8     9   ar
    23     9    10   ar
    24    10    11    1
    25    10    12   ar
    26    12    13    1
    27    13    14    1
    28    15    14    1
    29    15    16    1
    30    30    32    1
    31    32    33    1
    32    32    34    1
    33    32    35    1
    34    16     1    1
    35    15     4    1
    36    26    20   ar
    37    12     5   ar
    38    27    28    1
