@<TRIPOS>MOLECULE
*****
 37 40 0 0 0
SMALL
GASTEIGER

@<TRIPOS>ATOM
      1 C          -1.9748    4.0915   20.9507 C.ar    1  UNL1        0.0528
      2 C          -1.0534    2.9171   20.8024 C.ar    1  UNL1        0.0167
      3 C           0.4170    3.1378   20.6044 C.ar    1  UNL1        0.0505
      4 C           0.9660    4.5329   20.5547 C.ar    1  UNL1        0.0170
      5 C           0.0446    5.7072   20.7030 C.ar    1  UNL1        0.0307
      6 C          -1.4258    5.4865   20.9010 C.ar    1  UNL1        0.1402
      7 F          -2.3472    6.6608   21.0493 F       1  UNL1       -0.2044
      8 N          -3.2170    3.8936   17.1866 N.pl3   1  UNL1       -0.2456
      9 C          -3.7832    3.8124   18.5733 C.2     1  UNL1        0.3505
     10 N          -2.8790    3.9519   19.7619 N.2     1  UNL1       -0.0666
     11 C          -3.4452    3.8708   21.1486 C.3     1  UNL1        0.2224
     12 C          -2.5410    4.0103   22.3373 C.3     1  UNL1        0.1951
     13 O          -3.1072    3.9291   23.7239 O.3     1  UNL1       -0.3485
     14 C          -4.5776    3.7084   23.9219 C.3     1  UNL1        0.1508
     15 C          -5.4818    3.5689   22.7332 C.3     1  UNL1        0.0373
     16 C          -4.9156    3.6501   21.3466 C.3     1  UNL1        0.0601
     17 C          -5.8198    3.5105   20.1579 C.3     1  UNL1        0.0837
     18 C          -5.2536    3.5917   18.7712 C.3     1  UNL1        0.3553
     19 F          -6.7020    3.3728   18.4488 F       1  UNL1       -0.1914
     20 F          -5.1904    3.5969   17.2726 F       1  UNL1       -0.1914
     21 H          -2.2519    4.0385   17.0566 H       1  UNL1        0.2883
     22 H          -3.8105    3.8020   16.4064 H       1  UNL1        0.2883
     23 C          -5.1438    3.6272   25.3086 C.3     1  UNL1        0.2225
     24 F          -4.2253    3.6171   26.4943 F       1  UNL1       -0.2316
     25 N           1.3384    1.9635   20.4561 N.am    1  UNL1       -0.2791
     26 C           1.3769    1.1985   19.1663 C.2     1  UNL1        0.2688
     27 O           0.4939    1.6079   18.0249 O.2     1  UNL1       -0.2681
     28 H           1.9179    1.6948   21.2052 H       1  UNL1        0.1552
     29 C           2.2983    0.0242   19.0180 C.ar    1  UNL1        0.1541
     30 C           3.0626   -0.1729   17.7425 C.ar    1  UNL1        0.1258
     31 N           3.9841   -1.3472   17.5942 N.ar    1  UNL1       -0.2070
     32 C           4.1411   -2.3244   18.7213 C.ar    1  UNL1        0.2469
     33 C           3.3767   -2.1272   19.9968 C.ar    1  UNL1        0.1566
     34 N           2.4553   -0.9529   20.1451 N.ar    1  UNL1       -0.2328
     35 O           5.0625   -3.4987   18.5730 O.3     1  UNL1       -0.4265
     36 C           4.5679   -4.8826   18.8731 C.3     1  UNL1        0.4044
     37 F           3.0982   -5.1350   19.0358 F       1  UNL1       -0.1809
@<TRIPOS>BOND
     1     8     9    1
     2     9    10    2
     3    10    11    1
     4    11     1    1
     5     1     2   ar
     6     2     3   ar
     7     3    25    1
     8    25    26   am
     9    26    27    2
    10    26    29    1
    11    29    30   ar
    12    30    31   ar
    13    31    32   ar
    14    32    35    1
    15    35    36    1
    16    36    37    1
    17    32    33   ar
    18    33    34   ar
    19     3     4   ar
    20     4     5   ar
    21     5     6   ar
    22     6     7    1
    23    11    12    1
    24    12    13    1
    25    13    14    1
    26    14    23    1
    27    23    24    1
    28    14    15    1
    29    16    15    1
    30    16    17    1
    31    17    18    1
    32    18    19    1
    33    18    20    1
    34    18     9    1
    35    16    11    1
    36     6     1   ar
    37    34    29   ar
    38     8    21    1
    39     8    22    1
    40    25    28    1
@<TRIPOS>MOLECULE
*****
 37 40 0 0 0
SMALL
GASTEIGER

@<TRIPOS>ATOM
      1 C           2.9746    0.1509   20.6405 C.ar    1  UNL1        0.0528
      2 C           1.5196    0.4437   20.8583 C.ar    1  UNL1        0.0167
      3 C           0.8858    1.6302   20.1945 C.ar    1  UNL1        0.0505
      4 C           1.7070    2.5239   19.3130 C.ar    1  UNL1        0.0170
      5 C           3.1619    2.2311   19.0952 C.ar    1  UNL1        0.0307
      6 C           3.7957    1.0446   19.7590 C.ar    1  UNL1        0.1402
      7 F           5.2506    0.7517   19.5413 F       1  UNL1       -0.2044
      8 N           4.0243   -2.0055   17.4785 N.pl3   1  UNL1       -0.2456
      9 C           4.0969   -2.0777   18.9750 C.2     1  UNL1        0.3505
     10 N           3.5358   -0.9634   19.8077 N.2     1  UNL1       -0.0666
     11 C           3.6084   -1.0356   21.3043 C.3     1  UNL1        0.2224
     12 C           3.0472    0.0787   22.1370 C.3     1  UNL1        0.1951
     13 O           3.1198    0.0065   23.6334 O.3     1  UNL1       -0.3485
     14 C           3.7536   -1.1800   24.2972 C.3     1  UNL1        0.1508
     15 C           4.3147   -2.2943   23.4645 C.3     1  UNL1        0.0373
     16 C           4.2421   -2.2220   21.9680 C.3     1  UNL1        0.0601
     17 C           4.8033   -3.3364   21.1352 C.3     1  UNL1        0.0837
     18 C           4.7307   -3.2641   19.6388 C.3     1  UNL1        0.3553
     19 F           5.4227   -4.5848   19.8026 F       1  UNL1       -0.1914
     20 F           4.8984   -3.6506   18.1992 F       1  UNL1       -0.1914
     21 H           3.6084   -1.2268   17.0428 H       1  UNL1        0.2883
     22 H           4.3927   -2.7368   16.9319 H       1  UNL1        0.2883
     23 C           3.8262   -1.2522   25.7938 C.3     1  UNL1        0.2225
     24 F           3.0992   -0.2408   26.6295 F       1  UNL1       -0.2316
     25 N          -0.5691    1.9231   20.4122 N.am    1  UNL1       -0.2791
     26 C          -0.9807    3.0543   21.3072 C.2     1  UNL1        0.2688
     27 O           0.0626    3.8927   21.9844 O.2     1  UNL1       -0.2681
     28 H          -1.2538    1.3728   19.9678 H       1  UNL1        0.1552
     29 C          -2.4356    3.3472   21.5249 C.ar    1  UNL1        0.1541
     30 C          -2.8825    4.0343   22.7811 C.ar    1  UNL1        0.1258
     31 N          -4.3375    4.3271   22.9989 N.ar    1  UNL1       -0.2070
     32 C          -5.3455    3.9329   21.9604 C.ar    1  UNL1        0.2469
     33 C          -4.8985    3.2457   20.7041 C.ar    1  UNL1        0.1566
     34 N          -3.4436    2.9529   20.4864 N.ar    1  UNL1       -0.2328
     35 O          -6.8004    4.2257   22.1781 O.3     1  UNL1       -0.4265
     36 C          -7.3295    4.4033   23.5704 C.3     1  UNL1        0.4044
     37 F          -8.7352    3.9935   23.8966 F       1  UNL1       -0.1809
@<TRIPOS>BOND
     1     8     9    1
     2     9    10    2
     3    10    11    1
     4    11     1    1
     5     1     2   ar
     6     2     3   ar
     7     3    25    1
     8    25    26   am
     9    26    27    2
    10    26    29    1
    11    29    30   ar
    12    30    31   ar
    13    31    32   ar
    14    32    35    1
    15    35    36    1
    16    36    37    1
    17    32    33   ar
    18    33    34   ar
    19     3     4   ar
    20     4     5   ar
    21     5     6   ar
    22     6     7    1
    23    11    12    1
    24    12    13    1
    25    13    14    1
    26    14    23    1
    27    23    24    1
    28    14    15    1
    29    16    15    1
    30    16    17    1
    31    17    18    1
    32    18    19    1
    33    18    20    1
    34    18     9    1
    35    16    11    1
    36     6     1   ar
    37    34    29   ar
    38     8    21    1
    39     8    22    1
    40    25    28    1
@<TRIPOS>MOLECULE
*****
 37 40 0 0 0
SMALL
GASTEIGER

@<TRIPOS>ATOM
      1 C           2.7421   -0.1608   20.3544 C.ar    1  UNL1        0.0528
      2 C           1.3550    0.2542   20.7470 C.ar    1  UNL1        0.0167
      3 C           0.6889    1.4011   20.0464 C.ar    1  UNL1        0.0505
      4 C           1.4097    2.1330   18.9533 C.ar    1  UNL1        0.0170
      5 C           2.7966    1.7180   18.5608 C.ar    1  UNL1        0.0307
      6 C           3.4628    0.5711   19.2614 C.ar    1  UNL1        0.1402
      7 F           4.8497    0.1560   18.8689 F       1  UNL1       -0.2044
      8 N           2.7787    1.1644   24.0952 N.pl3   1  UNL1       -0.2456
      9 C           3.2106   -0.0420   23.3152 C.2     1  UNL1        0.3505
     10 N           2.9763   -0.1014   21.8349 N.2     1  UNL1       -0.0666
     11 C           3.4082   -1.3077   21.0550 C.3     1  UNL1        0.2224
     12 C           3.1740   -1.3671   19.5746 C.3     1  UNL1        0.1951
     13 O           3.6059   -2.5735   18.7948 O.3     1  UNL1       -0.3485
     14 C           4.2721   -3.7204   19.4953 C.3     1  UNL1        0.1508
     15 C           4.5063   -3.6610   20.9757 C.3     1  UNL1        0.0373
     16 C           4.0744   -2.4547   21.7555 C.3     1  UNL1        0.0601
     17 C           4.3087   -2.3952   23.2360 C.3     1  UNL1        0.0837
     18 C           3.8768   -1.1889   24.0158 C.3     1  UNL1        0.3553
     19 F           4.4637   -2.0167   25.1204 F       1  UNL1       -0.1914
     20 F           3.6487   -0.2700   25.1792 F       1  UNL1       -0.1914
     21 H           2.3414    1.9172   23.6354 H       1  UNL1        0.2883
     22 H           2.9324    1.2034   25.0668 H       1  UNL1        0.2883
     23 C           4.7040   -4.9268   18.7154 C.3     1  UNL1        0.2225
     24 F           4.3338   -6.3000   19.1920 F       1  UNL1       -0.2316
     25 N          -0.6981    1.8162   20.4389 N.am    1  UNL1       -0.2791
     26 C          -0.9033    3.0284   21.2983 C.2     1  UNL1        0.2688
     27 O           0.2785    3.8256   21.7651 O.2     1  UNL1       -0.2681
     28 H          -1.4737    1.2930   20.1325 H       1  UNL1        0.1552
     29 C          -2.2902    3.4435   21.6908 C.ar    1  UNL1        0.1541
     30 C          -2.4916    4.4262   22.8060 C.ar    1  UNL1        0.1258
     31 N          -3.8786    4.8413   23.1985 N.ar    1  UNL1       -0.2070
     32 C          -5.0641    4.2736   22.4759 C.ar    1  UNL1        0.2469
     33 C          -4.8627    3.2908   21.3607 C.ar    1  UNL1        0.1566
     34 N          -3.4757    2.8758   20.9682 N.ar    1  UNL1       -0.2328
     35 O          -6.4511    4.6886   22.8684 O.3     1  UNL1       -0.4265
     36 C          -6.8019    4.8567   24.3170 C.3     1  UNL1        0.4044
     37 F          -6.0701    4.0680   25.3623 F       1  UNL1       -0.1809
@<TRIPOS>BOND
     1     8     9    1
     2     9    10    2
     3    10    11    1
     4    11     1    1
     5     1     2   ar
     6     2     3   ar
     7     3    25    1
     8    25    26   am
     9    26    27    2
    10    26    29    1
    11    29    30   ar
    12    30    31   ar
    13    31    32   ar
    14    32    35    1
    15    35    36    1
    16    36    37    1
    17    32    33   ar
    18    33    34   ar
    19     3     4   ar
    20     4     5   ar
    21     5     6   ar
    22     6     7    1
    23    11    12    1
    24    12    13    1
    25    13    14    1
    26    14    23    1
    27    23    24    1
    28    14    15    1
    29    16    15    1
    30    16    17    1
    31    17    18    1
    32    18    19    1
    33    18    20    1
    34    18     9    1
    35    16    11    1
    36     6     1   ar
    37    34    29   ar
    38     8    21    1
    39     8    22    1
    40    25    28    1
@<TRIPOS>MOLECULE
*****
 37 40 0 0 0
SMALL
GASTEIGER

@<TRIPOS>ATOM
      1 C          -1.9080    4.0185   21.1338 C.ar    1  UNL1        0.0528
      2 C          -0.9807    2.8426   21.0478 C.ar    1  UNL1        0.0167
      3 C           0.4168    3.0254   20.5346 C.ar    1  UNL1        0.0505
      4 C           0.8871    4.3843   20.1073 C.ar    1  UNL1        0.0170
      5 C          -0.0402    5.5601   20.1933 C.ar    1  UNL1        0.0307
      6 C          -1.4378    5.3773   20.7065 C.ar    1  UNL1        0.1402
      7 F          -2.3650    6.5531   20.7925 F       1  UNL1       -0.2044
      8 N          -1.2421    3.7277   25.0354 N.pl3   1  UNL1       -0.2456
      9 C          -2.3957    3.7027   24.0770 C.2     1  UNL1        0.3505
     10 N          -2.1519    3.8606   22.6055 N.2     1  UNL1       -0.0666
     11 C          -3.3056    3.8356   21.6471 C.3     1  UNL1        0.2224
     12 C          -3.0617    3.9936   20.1755 C.3     1  UNL1        0.1951
     13 O          -4.2153    3.9686   19.2172 O.3     1  UNL1       -0.3485
     14 C          -5.6129    3.7857   19.7304 C.3     1  UNL1        0.1508
     15 C          -5.8568    3.6278   21.2020 C.3     1  UNL1        0.0373
     16 C          -4.7031    3.6528   22.1603 C.3     1  UNL1        0.0601
     17 C          -4.9469    3.4949   23.6320 C.3     1  UNL1        0.0837
     18 C          -3.7933    3.5198   24.5903 C.3     1  UNL1        0.3553
     19 F          -4.9269    3.3217   25.5524 F       1  UNL1       -0.1914
     20 F          -3.0333    3.4760   25.8827 F       1  UNL1       -0.1914
     21 H          -0.3248    3.8477   24.6986 H       1  UNL1        0.2883
     22 H          -1.4021    3.6240   26.0013 H       1  UNL1        0.2883
     23 C          -6.7666    3.7607   18.7720 C.3     1  UNL1        0.2225
     24 F          -6.7552    4.6463   17.5615 F       1  UNL1       -0.2316
     25 N           1.3441    1.8496   20.4486 N.am    1  UNL1       -0.2791
     26 C           1.3903    1.0206   19.1993 C.2     1  UNL1        0.2688
     27 O           0.5092    1.3675   18.0360 O.2     1  UNL1       -0.2681
     28 H           1.9224    1.6219   21.2122 H       1  UNL1        0.1552
     29 C           2.3176   -0.1553   19.1133 C.ar    1  UNL1        0.1541
     30 C           2.4101   -1.1225   20.2561 C.ar    1  UNL1        0.1258
     31 N           3.3374   -2.2985   20.1701 N.ar    1  UNL1       -0.2070
     32 C           4.1722   -2.5071   18.9414 C.ar    1  UNL1        0.2469
     33 C           4.0796   -1.5398   17.7987 C.ar    1  UNL1        0.1566
     34 N           3.1524   -0.3639   17.8847 N.ar    1  UNL1       -0.2328
     35 O           5.0995   -3.6830   18.8555 O.3     1  UNL1       -0.4265
     36 C           4.5424   -5.0739   18.7858 C.3     1  UNL1        0.4044
     37 F           3.2998   -5.4233   19.5501 F       1  UNL1       -0.1809
@<TRIPOS>BOND
     1     8     9    1
     2     9    10    2
     3    10    11    1
     4    11     1    1
     5     1     2   ar
     6     2     3   ar
     7     3    25    1
     8    25    26   am
     9    26    27    2
    10    26    29    1
    11    29    30   ar
    12    30    31   ar
    13    31    32   ar
    14    32    35    1
    15    35    36    1
    16    36    37    1
    17    32    33   ar
    18    33    34   ar
    19     3     4   ar
    20     4     5   ar
    21     5     6   ar
    22     6     7    1
    23    11    12    1
    24    12    13    1
    25    13    14    1
    26    14    23    1
    27    23    24    1
    28    14    15    1
    29    16    15    1
    30    16    17    1
    31    17    18    1
    32    18    19    1
    33    18    20    1
    34    18     9    1
    35    16    11    1
    36     6     1   ar
    37    34    29   ar
    38     8    21    1
    39     8    22    1
    40    25    28    1
@<TRIPOS>MOLECULE
*****
 37 40 0 0 0
SMALL
GASTEIGER

@<TRIPOS>ATOM
      1 C           4.4035   -1.5921   20.0746 C.ar    1  UNL1        0.0528
      2 C           4.7396   -1.7128   21.5315 C.ar    1  UNL1        0.0167
      3 C           4.6999   -3.0542   22.2016 C.ar    1  UNL1        0.0505
      4 C           4.3240   -4.2748   21.4149 C.ar    1  UNL1        0.0170
      5 C           3.9878   -4.1540   19.9581 C.ar    1  UNL1        0.0307
      6 C           4.0276   -2.8126   19.2879 C.ar    1  UNL1        0.1402
      7 F           3.6915   -2.6918   17.8311 F       1  UNL1       -0.2044
      8 N           0.5577   -0.6134   20.1265 N.pl3   1  UNL1       -0.2456
      9 C           1.8661   -0.0454   19.6624 C.2     1  UNL1        0.3505
     10 N           3.1348   -0.8187   19.8685 N.2     1  UNL1       -0.0666
     11 C           4.4432   -0.2507   19.4044 C.3     1  UNL1        0.2224
     12 C           5.7118   -1.0240   19.6105 C.3     1  UNL1        0.1951
     13 O           7.0202   -0.4559   19.1464 O.3     1  UNL1       -0.3485
     14 C           7.0600    0.8854   18.4763 C.3     1  UNL1        0.1508
     15 C           5.7914    1.6588   18.2702 C.3     1  UNL1        0.0373
     16 C           4.4830    1.0907   18.7343 C.3     1  UNL1        0.0601
     17 C           3.2143    1.8641   18.5282 C.3     1  UNL1        0.0837
     18 C           1.9059    1.2960   18.9923 C.3     1  UNL1        0.3553
     19 F           1.4344    2.5970   18.4135 F       1  UNL1       -0.1914
     20 F           0.4337    1.1798   19.2553 F       1  UNL1       -0.1914
     21 H           0.5315   -1.4938   20.5664 H       1  UNL1        0.2883
     22 H          -0.2750   -0.1059   19.9912 H       1  UNL1        0.2883
     23 C           8.3685    1.4535   18.0122 C.3     1  UNL1        0.2225
     24 F           8.6171    1.6653   16.5482 F       1  UNL1       -0.2316
     25 N           5.0360   -3.1750   23.6585 N.am    1  UNL1       -0.2791
     26 C           6.2091   -4.0036   24.0913 C.2     1  UNL1        0.2688
     27 O           7.0460   -4.7114   23.0673 O.2     1  UNL1       -0.2681
     28 H           4.4866   -2.7105   24.3305 H       1  UNL1        0.1552
     29 C           6.5452   -4.1245   25.5481 C.ar    1  UNL1        0.1541
     30 C           6.6908   -2.8909   26.3890 C.ar    1  UNL1        0.1258
     31 N           7.0269   -3.0117   27.8459 N.ar    1  UNL1       -0.2070
     32 C           7.2174   -4.3661   28.4619 C.ar    1  UNL1        0.2469
     33 C           7.0718   -5.5996   27.6209 C.ar    1  UNL1        0.1566
     34 N           6.7357   -5.4788   26.1641 N.ar    1  UNL1       -0.2328
     35 O           7.5536   -4.4869   29.9187 O.3     1  UNL1       -0.4265
     36 C           7.2340   -5.7513   30.6597 C.3     1  UNL1        0.4044
     37 F           6.6788   -5.6850   32.0517 F       1  UNL1       -0.1809
@<TRIPOS>BOND
     1     8     9    1
     2     9    10    2
     3    10    11    1
     4    11     1    1
     5     1     2   ar
     6     2     3   ar
     7     3    25    1
     8    25    26   am
     9    26    27    2
    10    26    29    1
    11    29    30   ar
    12    30    31   ar
    13    31    32   ar
    14    32    35    1
    15    35    36    1
    16    36    37    1
    17    32    33   ar
    18    33    34   ar
    19     3     4   ar
    20     4     5   ar
    21     5     6   ar
    22     6     7    1
    23    11    12    1
    24    12    13    1
    25    13    14    1
    26    14    23    1
    27    23    24    1
    28    14    15    1
    29    16    15    1
    30    16    17    1
    31    17    18    1
    32    18    19    1
    33    18    20    1
    34    18     9    1
    35    16    11    1
    36     6     1   ar
    37    34    29   ar
    38     8    21    1
    39     8    22    1
    40    25    28    1
@<TRIPOS>MOLECULE
*****
 37 40 0 0 0
SMALL
GASTEIGER

@<TRIPOS>ATOM
      1 C          -9.2652  -18.5285   21.1560 C.ar    1  UNL1        0.0528
      2 C          -7.8238  -18.1590   20.9665 C.ar    1  UNL1        0.0167
      3 C          -6.9873  -18.8933   19.9611 C.ar    1  UNL1        0.0505
      4 C          -7.5921  -19.9971   19.1451 C.ar    1  UNL1        0.0170
      5 C          -9.0334  -20.3666   19.3346 C.ar    1  UNL1        0.0307
      6 C          -9.8700  -19.6323   20.3401 C.ar    1  UNL1        0.1402
      7 F         -11.3113  -20.0018   20.5296 F       1  UNL1       -0.2044
      8 N         -11.8923  -16.7373   18.7810 N.pl3   1  UNL1       -0.2456
      9 C         -11.5743  -16.8449   20.2430 C.2     1  UNL1        0.3505
     10 N         -10.4198  -17.6867   20.6995 N.2     1  UNL1       -0.0666
     11 C         -10.1018  -17.7942   22.1615 C.3     1  UNL1        0.2224
     12 C          -8.9473  -18.6360   22.6180 C.3     1  UNL1        0.1951
     13 O          -8.6294  -18.7436   24.0799 O.3     1  UNL1       -0.3485
     14 C          -9.4660  -18.0093   25.0854 C.3     1  UNL1        0.1508
     15 C         -10.6205  -17.1675   24.6289 C.3     1  UNL1        0.0373
     16 C         -10.9384  -17.0599   23.1670 C.3     1  UNL1        0.0601
     17 C         -12.0930  -16.2181   22.7104 C.3     1  UNL1        0.0837
     18 C         -12.4109  -16.1106   21.2485 C.3     1  UNL1        0.3553
     19 F         -13.4877  -15.2331   21.8145 F       1  UNL1       -0.1914
     20 F         -13.1028  -15.6983   19.9831 F       1  UNL1       -0.1914
     21 H         -11.3432  -17.2192   18.1211 H       1  UNL1        0.2883
     22 H         -12.6501  -16.1848   18.4814 H       1  UNL1        0.2883
     23 C          -9.1480  -18.1168   26.5474 C.3     1  UNL1        0.2225
     24 F          -8.6533  -16.9159   27.2976 F       1  UNL1       -0.2316
     25 N          -5.5459  -18.5238   19.7716 N.am    1  UNL1       -0.2791
     26 C          -4.5518  -18.7983   20.8608 C.2     1  UNL1        0.2688
     27 O          -4.9991  -19.4424   22.1395 O.2     1  UNL1       -0.2681
     28 H          -5.2524  -18.1010   18.9323 H       1  UNL1        0.1552
     29 C          -3.1104  -18.4288   20.6713 C.ar    1  UNL1        0.1541
     30 C          -2.1226  -19.4661   20.2261 C.ar    1  UNL1        0.1258
     31 N          -0.6812  -19.0966   20.0366 N.ar    1  UNL1       -0.2070
     32 C          -0.2277  -17.6898   20.2923 C.ar    1  UNL1        0.2469
     33 C          -1.2156  -16.6526   20.7376 C.ar    1  UNL1        0.1566
     34 N          -2.6569  -17.0221   20.9271 N.ar    1  UNL1       -0.2328
     35 O           1.2137  -17.3203   20.1028 O.3     1  UNL1       -0.4265
     36 C           2.2551  -17.8584   21.0386 C.3     1  UNL1        0.4044
     37 F           3.5778  -17.1629   21.1689 F       1  UNL1       -0.1809
@<TRIPOS>BOND
     1     8     9    1
     2     9    10    2
     3    10    11    1
     4    11     1    1
     5     1     2   ar
     6     2     3   ar
     7     3    25    1
     8    25    26   am
     9    26    27    2
    10    26    29    1
    11    29    30   ar
    12    30    31   ar
    13    31    32   ar
    14    32    35    1
    15    35    36    1
    16    36    37    1
    17    32    33   ar
    18    33    34   ar
    19     3     4   ar
    20     4     5   ar
    21     5     6   ar
    22     6     7    1
    23    11    12    1
    24    12    13    1
    25    13    14    1
    26    14    23    1
    27    23    24    1
    28    14    15    1
    29    16    15    1
    30    16    17    1
    31    17    18    1
    32    18    19    1
    33    18    20    1
    34    18     9    1
    35    16    11    1
    36     6     1   ar
    37    34    29   ar
    38     8    21    1
    39     8    22    1
    40    25    28    1
@<TRIPOS>MOLECULE
*****
 37 40 0 0 0
SMALL
GASTEIGER

@<TRIPOS>ATOM
      1 C           3.1537   -0.1034   20.0493 C.ar    1  UNL1        0.0528
      2 C           3.1272   -0.4519   21.5081 C.ar    1  UNL1        0.0167
      3 C           2.0856    0.1498   22.4042 C.ar    1  UNL1        0.0505
      4 C           1.0705    1.1001   21.8415 C.ar    1  UNL1        0.0170
      5 C           1.0969    1.4486   20.3828 C.ar    1  UNL1        0.0307
      6 C           2.1385    0.8468   19.4867 C.ar    1  UNL1        0.1402
      7 F           2.1650    1.1953   18.0280 F       1  UNL1       -0.2044
      8 N           4.8338    3.1654   18.5517 N.pl3   1  UNL1       -0.2456
      9 C           4.9681    1.6746   18.4535 C.2     1  UNL1        0.3505
     10 N           4.0609    0.7857   19.2514 N.2     1  UNL1       -0.0666
     11 C           4.1953   -0.7051   19.1532 C.3     1  UNL1        0.2224
     12 C           3.2880   -1.5941   19.9511 C.3     1  UNL1        0.1951
     13 O           3.4224   -3.0848   19.8529 O.3     1  UNL1       -0.3485
     14 C           4.4640   -3.6865   18.9568 C.3     1  UNL1        0.1508
     15 C           5.3712   -2.7976   18.1589 C.3     1  UNL1        0.0373
     16 C           5.2369   -1.3069   18.2572 C.3     1  UNL1        0.0601
     17 C           6.1441   -0.4178   17.4593 C.3     1  UNL1        0.0837
     18 C           6.0097    1.0729   17.5575 C.3     1  UNL1        0.3553
     19 F           7.1411    0.9773   16.5773 F       1  UNL1       -0.1914
     20 F           6.2683    2.5304   17.3153 F       1  UNL1       -0.1914
     21 H           4.1501    3.5604   19.1399 H       1  UNL1        0.2883
     22 H           5.4292    3.7489   18.0280 H       1  UNL1        0.2883
     23 C           4.5984   -5.1773   18.8586 C.3     1  UNL1        0.2225
     24 F           3.6380   -6.0668   19.5910 F       1  UNL1       -0.2316
     25 N           2.0591   -0.1986   23.8629 N.am    1  UNL1       -0.2791
     26 C           2.3751    0.8480   24.8899 C.2     1  UNL1        0.2688
     27 O           2.7176    2.2431   24.4582 O.2     1  UNL1       -0.2681
     28 H           1.8344   -1.1143   24.1462 H       1  UNL1        0.1552
     29 C           2.3486    0.4996   26.3486 C.ar    1  UNL1        0.1541
     30 C           1.4058    1.2115   27.2727 C.ar    1  UNL1        0.1258
     31 N           1.3793    0.8631   28.7315 N.ar    1  UNL1       -0.2070
     32 C           2.2957   -0.1974   29.2661 C.ar    1  UNL1        0.2469
     33 C           3.2385   -0.9094   28.3418 C.ar    1  UNL1        0.1566
     34 N           3.2650   -0.5609   26.8831 N.ar    1  UNL1       -0.2328
     35 O           2.2692   -0.5458   30.7247 O.3     1  UNL1       -0.4265
     36 C           3.4288   -0.1822   31.6039 C.3     1  UNL1        0.4044
     37 F           3.2925   -0.2601   33.0957 F       1  UNL1       -0.1809
@<TRIPOS>BOND
     1     8     9    1
     2     9    10    2
     3    10    11    1
     4    11     1    1
     5     1     2   ar
     6     2     3   ar
     7     3    25    1
     8    25    26   am
     9    26    27    2
    10    26    29    1
    11    29    30   ar
    12    30    31   ar
    13    31    32   ar
    14    32    35    1
    15    35    36    1
    16    36    37    1
    17    32    33   ar
    18    33    34   ar
    19     3     4   ar
    20     4     5   ar
    21     5     6   ar
    22     6     7    1
    23    11    12    1
    24    12    13    1
    25    13    14    1
    26    14    23    1
    27    23    24    1
    28    14    15    1
    29    16    15    1
    30    16    17    1
    31    17    18    1
    32    18    19    1
    33    18    20    1
    34    18     9    1
    35    16    11    1
    36     6     1   ar
    37    34    29   ar
    38     8    21    1
    39     8    22    1
    40    25    28    1
@<TRIPOS>MOLECULE
*****
 37 40 0 0 0
SMALL
GASTEIGER

@<TRIPOS>ATOM
      1 C           2.5557    3.3446   36.0525 C.ar    1  UNL1        0.0528
      2 C           1.9213    3.0719   34.7208 C.ar    1  UNL1        0.0167
      3 C           1.2720    4.1876   33.9569 C.ar    1  UNL1        0.0505
      4 C           1.2570    5.5760   34.5246 C.ar    1  UNL1        0.0170
      5 C           1.8914    5.8486   35.8562 C.ar    1  UNL1        0.0307
      6 C           2.5407    4.7330   36.6202 C.ar    1  UNL1        0.1402
      7 F           3.1751    5.0056   37.9518 F       1  UNL1       -0.2044
      8 N          -0.1125    2.7540   38.9304 N.pl3   1  UNL1       -0.2456
      9 C           1.2098    2.2071   38.4804 C.2     1  UNL1        0.3505
     10 N           1.8827    2.7759   37.2665 N.2     1  UNL1       -0.0666
     11 C           3.2050    2.2290   36.8165 C.3     1  UNL1        0.2224
     12 C           3.8779    2.7977   35.6025 C.3     1  UNL1        0.1951
     13 O           5.2002    2.2508   35.1526 O.3     1  UNL1       -0.3485
     14 C           5.8495    1.1351   35.9165 C.3     1  UNL1        0.1508
     15 C           5.1766    0.5664   37.1305 C.3     1  UNL1        0.0373
     16 C           3.8544    1.1133   37.5804 C.3     1  UNL1        0.0601
     17 C           3.1814    0.5445   38.7944 C.3     1  UNL1        0.0837
     18 C           1.8591    1.0914   39.2444 C.3     1  UNL1        0.3553
     19 F           2.0753    0.0387   40.2908 F       1  UNL1       -0.1914
     20 F           0.6119    1.2727   40.0578 F       1  UNL1       -0.1914
     21 H          -0.5387    3.4863   38.4290 H       1  UNL1        0.2883
     22 H          -0.5542    2.3807   39.7272 H       1  UNL1        0.2883
     23 C           7.1718    0.5882   35.4665 C.3     1  UNL1        0.2225
     24 F           7.8592   -0.4720   36.2748 F       1  UNL1       -0.2316
     25 N           0.6376    3.9150   32.6253 N.am    1  UNL1       -0.2791
     26 C           1.4691    3.3927   31.4912 C.2     1  UNL1        0.2688
     27 O           2.9349    3.1431   31.6889 O.2     1  UNL1       -0.2681
     28 H          -0.3245    4.0788   32.4956 H       1  UNL1        0.1552
     29 C           0.8347    3.1200   30.1596 C.ar    1  UNL1        0.1541
     30 C           0.3378    1.7429   29.8336 C.ar    1  UNL1        0.1258
     31 N          -0.2966    1.4701   28.5019 N.ar    1  UNL1       -0.2070
     32 C          -0.4340    2.5747   27.4964 C.ar    1  UNL1        0.2469
     33 C           0.0629    3.9519   27.8225 C.ar    1  UNL1        0.1566
     34 N           0.6973    4.2246   29.1541 N.ar    1  UNL1       -0.2328
     35 O          -1.0684    2.3020   26.1648 O.3     1  UNL1       -0.4265
     36 C          -0.2137    2.1761   24.9386 C.3     1  UNL1        0.4044
     37 F           0.1823    0.8192   24.4364 F       1  UNL1       -0.1809
@<TRIPOS>BOND
     1     8     9    1
     2     9    10    2
     3    10    11    1
     4    11     1    1
     5     1     2   ar
     6     2     3   ar
     7     3    25    1
     8    25    26   am
     9    26    27    2
    10    26    29    1
    11    29    30   ar
    12    30    31   ar
    13    31    32   ar
    14    32    35    1
    15    35    36    1
    16    36    37    1
    17    32    33   ar
    18    33    34   ar
    19     3     4   ar
    20     4     5   ar
    21     5     6   ar
    22     6     7    1
    23    11    12    1
    24    12    13    1
    25    13    14    1
    26    14    23    1
    27    23    24    1
    28    14    15    1
    29    16    15    1
    30    16    17    1
    31    17    18    1
    32    18    19    1
    33    18    20    1
    34    18     9    1
    35    16    11    1
    36     6     1   ar
    37    34    29   ar
    38     8    21    1
    39     8    22    1
    40    25    28    1
@<TRIPOS>MOLECULE
*****
 37 40 0 0 0
SMALL
GASTEIGER

@<TRIPOS>ATOM
      1 C           3.9957    0.6723   20.3167 C.ar    1  UNL1        0.0528
      2 C           2.7406    1.4230   19.9831 C.ar    1  UNL1        0.0167
      3 C           2.0440    2.2270   21.0406 C.ar    1  UNL1        0.0505
      4 C           2.6025    2.2803   22.4318 C.ar    1  UNL1        0.0170
      5 C           3.8575    1.5296   22.7654 C.ar    1  UNL1        0.0307
      6 C           4.5541    0.7256   21.7079 C.ar    1  UNL1        0.1402
      7 F           5.8091   -0.0251   22.0415 F       1  UNL1       -0.2044
      8 N           6.0287    3.5126   18.4326 N.pl3   1  UNL1       -0.2456
      9 C           5.8154    2.0298   18.3556 C.2     1  UNL1        0.3505
     10 N           4.9055    1.3511   19.3362 N.2     1  UNL1       -0.0666
     11 C           4.6923   -0.1317   19.2592 C.3     1  UNL1        0.2224
     12 C           3.7824   -0.8104   20.2398 C.3     1  UNL1        0.1951
     13 O           3.5692   -2.2932   20.1628 O.3     1  UNL1       -0.3485
     14 C           4.2658   -3.0972   19.1053 C.3     1  UNL1        0.1508
     15 C           5.1756   -2.4185   18.1248 C.3     1  UNL1        0.0373
     16 C           5.3888   -0.9357   18.2017 C.3     1  UNL1        0.0601
     17 C           6.2987   -0.2569   17.2212 C.3     1  UNL1        0.0837
     18 C           6.5120    1.2258   17.2981 C.3     1  UNL1        0.3553
     19 F           7.3883    0.8971   16.1260 F       1  UNL1       -0.1914
     20 F           7.0295    2.5944   16.9680 F       1  UNL1       -0.1914
     21 H           5.5715    4.0404   19.1266 H       1  UNL1        0.2883
     22 H           6.6258    3.9581   17.7890 H       1  UNL1        0.2883
     23 C           4.0525   -4.5800   19.0284 C.3     1  UNL1        0.2225
     24 F           3.4166   -5.3068   20.1761 F       1  UNL1       -0.2316
     25 N           0.7890    2.9777   20.7070 N.am    1  UNL1       -0.2791
     26 C          -0.4960    2.2336   20.4942 C.2     1  UNL1        0.2688
     27 O          -0.5259    0.7388   20.6150 O.2     1  UNL1       -0.2681
     28 H           0.8086    3.9589   20.6276 H       1  UNL1        0.1552
     29 C          -1.7510    2.9843   20.1606 C.ar    1  UNL1        0.1541
     30 C          -1.7538    3.9791   19.0379 C.ar    1  UNL1        0.1258
     31 N          -3.0089    4.7299   18.7043 N.ar    1  UNL1       -0.2070
     32 C          -4.2611    4.4858   19.4933 C.ar    1  UNL1        0.2469
     33 C          -4.2582    3.4909   20.6159 C.ar    1  UNL1        0.1566
     34 N          -3.0032    2.7402   20.9495 N.ar    1  UNL1       -0.2328
     35 O          -5.5161    5.2365   19.1596 O.3     1  UNL1       -0.4265
     36 C          -6.8531    4.5833   19.3477 C.3     1  UNL1        0.4044
     37 F          -7.1796    3.3175   18.6119 F       1  UNL1       -0.1809
@<TRIPOS>BOND
     1     8     9    1
     2     9    10    2
     3    10    11    1
     4    11     1    1
     5     1     2   ar
     6     2     3   ar
     7     3    25    1
     8    25    26   am
     9    26    27    2
    10    26    29    1
    11    29    30   ar
    12    30    31   ar
    13    31    32   ar
    14    32    35    1
    15    35    36    1
    16    36    37    1
    17    32    33   ar
    18    33    34   ar
    19     3     4   ar
    20     4     5   ar
    21     5     6   ar
    22     6     7    1
    23    11    12    1
    24    12    13    1
    25    13    14    1
    26    14    23    1
    27    23    24    1
    28    14    15    1
    29    16    15    1
    30    16    17    1
    31    17    18    1
    32    18    19    1
    33    18    20    1
    34    18     9    1
    35    16    11    1
    36     6     1   ar
    37    34    29   ar
    38     8    21    1
    39     8    22    1
    40    25    28    1
