@<TRIPOS>MOLECULE
*****
 28 30 0 0 0
SMALL
GASTEIGER

@<TRIPOS>ATOM
      1 C          -6.4896  -19.6426   21.7662 C.ar    1  UNL1        0.0587
      2 C          -6.4904  -20.6511   20.6559 C.ar    1  UNL1        0.0147
      3 C          -5.2064  -21.0113   19.9690 C.ar    1  UNL1        0.0024
      4 C          -3.9218  -20.3631   20.3926 C.ar    1  UNL1        0.0147
      5 C          -3.9210  -19.3546   21.5030 C.ar    1  UNL1        0.0587
      6 N          -5.2049  -18.9943   22.1898 N.ar    1  UNL1       -0.2540
      7 C          -7.7736  -19.2823   22.4530 C.3     1  UNL1        0.0496
      8 C          -8.5468  -20.3314   23.1958 C.3     1  UNL1        0.0536
      9 C          -9.7069  -19.9363   24.0607 C.3     1  UNL1        0.2058
     10 O         -11.0644  -19.7432   23.4525 O.3     1  UNL1       -0.4755
     11 CL        -11.8913  -15.5663   19.2253 Cl      1  UNL1       -0.0822
     12 C         -11.6846  -16.6105   20.2821 C.ar    1  UNL1        0.0579
     13 C         -11.3082  -18.0089   19.8912 C.ar    1  UNL1        0.0145
     14 C         -11.1015  -19.0531   20.9480 C.ar    1  UNL1        0.0378
     15 C         -11.2711  -18.6990   22.3957 C.ar    1  UNL1        0.1386
     16 C         -11.6474  -17.3006   22.7865 C.ar    1  UNL1        0.0378
     17 C         -11.8542  -16.2564   21.7297 C.ar    1  UNL1        0.0145
     18 C          -2.6363  -18.7064   21.9265 C.3     1  UNL1        0.0496
     19 C          -2.5811  -17.2235   22.1458 C.3     1  UNL1        0.0536
     20 C          -3.2997  -16.6104   23.3110 C.3     1  UNL1        0.2058
     21 O          -4.5287  -15.7815   23.0823 O.3     1  UNL1       -0.4755
     22 C          -5.5541  -15.6449   24.1687 C.ar    1  UNL1        0.1386
     23 C          -7.0122  -15.5892   23.8211 C.ar    1  UNL1        0.0378
     24 C          -8.0375  -15.4527   24.9074 C.ar    1  UNL1        0.0145
     25 C          -7.6047  -15.3718   26.3414 C.ar    1  UNL1        0.0579
     26 CL         -8.6300  -15.2353   27.4276 Cl      1  UNL1       -0.0822
     27 C          -6.1466  -15.4276   26.6890 C.ar    1  UNL1        0.0145
     28 C          -5.1213  -15.5641   25.6026 C.ar    1  UNL1        0.0378
@<TRIPOS>BOND
     1    11    12    1
     2    12    13   ar
     3    13    14   ar
     4    14    15   ar
     5    15    10    1
     6    10     9    1
     7     9     8    1
     8     8     7    1
     9     7     1    1
    10     1     2   ar
    11     2     3   ar
    12     3     4   ar
    13     4     5   ar
    14     5    18    1
    15    18    19    1
    16    19    20    1
    17    20    21    1
    18    21    22    1
    19    22    23   ar
    20    23    24   ar
    21    24    25   ar
    22    25    26    1
    23    25    27   ar
    24    27    28   ar
    25     5     6   ar
    26    15    16   ar
    27    16    17   ar
    28    17    12   ar
    29     6     1   ar
    30    28    22   ar
@<TRIPOS>MOLECULE
*****
 28 30 0 0 0
SMALL
GASTEIGER

@<TRIPOS>ATOM
      1 C          -8.8257  -19.8938   22.1050 C.ar    1  UNL1        0.0587
      2 C          -9.2808  -19.5717   20.7125 C.ar    1  UNL1        0.0147
      3 C          -8.2817  -19.1537   19.6747 C.ar    1  UNL1        0.0024
      4 C          -6.8275  -19.0577   20.0294 C.ar    1  UNL1        0.0147
      5 C          -6.3722  -19.3798   21.4219 C.ar    1  UNL1        0.0587
      6 N          -7.3713  -19.7978   22.4598 N.ar    1  UNL1       -0.2540
      7 C          -9.8248  -20.3118   23.1428 C.3     1  UNL1        0.0496
      8 C          -9.6242  -19.9214   24.5772 C.3     1  UNL1        0.0536
      9 C         -10.3144  -18.7089   25.1280 C.3     1  UNL1        0.2058
     10 O         -11.5866  -18.2205   24.5012 O.3     1  UNL1       -0.4755
     11 CL        -11.4516  -15.5450   19.1325 Cl      1  UNL1       -0.0822
     12 C         -11.4853  -16.2139   20.4747 C.ar    1  UNL1        0.0579
     13 C         -12.6280  -17.1166   20.8342 C.ar    1  UNL1        0.0145
     14 C         -12.6618  -17.7855   22.1764 C.ar    1  UNL1        0.0378
     15 C         -11.5528  -17.5517   23.1590 C.ar    1  UNL1        0.1386
     16 C         -10.4102  -16.6489   22.7995 C.ar    1  UNL1        0.0378
     17 C         -10.3764  -15.9800   21.4573 C.ar    1  UNL1        0.0145
     18 C          -4.9180  -19.2838   21.7766 C.3     1  UNL1        0.0496
     19 C          -4.4950  -18.5537   23.0168 C.3     1  UNL1        0.0536
     20 C          -3.7174  -17.2758   22.9065 C.3     1  UNL1        0.2058
     21 O          -4.4174  -15.9570   23.0511 O.3     1  UNL1       -0.4755
     22 C          -5.4337  -15.7626   24.1371 C.ar    1  UNL1        0.1386
     23 C          -5.0080  -15.7842   25.5753 C.ar    1  UNL1        0.0378
     24 C          -6.0243  -15.5897   26.6613 C.ar    1  UNL1        0.0145
     25 C          -7.4663  -15.3736   26.3091 C.ar    1  UNL1        0.0579
     26 CL         -8.4825  -15.1791   27.3951 Cl      1  UNL1       -0.0822
     27 C          -7.8920  -15.3520   24.8710 C.ar    1  UNL1        0.0145
     28 C          -6.8757  -15.5464   23.7850 C.ar    1  UNL1        0.0378
@<TRIPOS>BOND
     1    11    12    1
     2    12    13   ar
     3    13    14   ar
     4    14    15   ar
     5    15    10    1
     6    10     9    1
     7     9     8    1
     8     8     7    1
     9     7     1    1
    10     1     2   ar
    11     2     3   ar
    12     3     4   ar
    13     4     5   ar
    14     5    18    1
    15    18    19    1
    16    19    20    1
    17    20    21    1
    18    21    22    1
    19    22    23   ar
    20    23    24   ar
    21    24    25   ar
    22    25    26    1
    23    25    27   ar
    24    27    28   ar
    25     5     6   ar
    26    15    16   ar
    27    16    17   ar
    28    17    12   ar
    29     6     1   ar
    30    28    22   ar
@<TRIPOS>MOLECULE
*****
 28 30 0 0 0
SMALL
GASTEIGER

@<TRIPOS>ATOM
      1 C          -6.2172  -19.3835   21.4335 C.ar    1  UNL1        0.0587
      2 C          -6.5560  -19.1030   19.9995 C.ar    1  UNL1        0.0147
      3 C          -7.9775  -19.2036   19.5311 C.ar    1  UNL1        0.0024
      4 C          -9.0601  -19.5848   20.4968 C.ar    1  UNL1        0.0147
      5 C          -8.7213  -19.8653   21.9310 C.ar    1  UNL1        0.0587
      6 N          -7.2998  -19.7647   22.3993 N.ar    1  UNL1       -0.2540
      7 C          -4.7957  -19.2828   21.9018 C.3     1  UNL1        0.0496
      8 C          -4.4573  -18.4399   23.0956 C.3     1  UNL1        0.0536
      9 C          -3.6598  -17.1812   22.9231 C.3     1  UNL1        0.2058
     10 O          -4.3041  -15.8471   23.1576 O.3     1  UNL1       -0.4755
     11 CL         -8.5453  -15.2608   27.3610 Cl      1  UNL1       -0.0822
     12 C          -7.4850  -15.4074   26.3101 C.ar    1  UNL1        0.0579
     13 C          -6.0472  -15.5561   26.7110 C.ar    1  UNL1        0.0145
     14 C          -4.9869  -15.7026   25.6601 C.ar    1  UNL1        0.0378
     15 C          -5.3644  -15.7005   24.2084 C.ar    1  UNL1        0.1386
     16 C          -6.8021  -15.5518   23.8076 C.ar    1  UNL1        0.0378
     17 C          -7.8624  -15.4053   24.8584 C.ar    1  UNL1        0.0145
     18 C          -9.8039  -20.2465   22.8966 C.3     1  UNL1        0.0496
     19 C          -9.5761  -20.1057   24.3726 C.3     1  UNL1        0.0536
     20 C         -10.1129  -18.9111   25.1037 C.3     1  UNL1        0.2058
     21 O         -11.3819  -18.2575   24.6428 O.3     1  UNL1       -0.4755
     22 C         -11.4424  -17.6055   23.2932 C.ar    1  UNL1        0.1386
     23 C         -12.6101  -17.8631   22.3876 C.ar    1  UNL1        0.0378
     24 C         -12.6707  -17.2112   21.0380 C.ar    1  UNL1        0.0145
     25 C         -11.5635  -16.3017   20.5940 C.ar    1  UNL1        0.0579
     26 CL        -11.6241  -15.6498   19.2445 Cl      1  UNL1       -0.0822
     27 C         -10.3958  -16.0442   21.4996 C.ar    1  UNL1        0.0145
     28 C         -10.3353  -16.6961   22.8492 C.ar    1  UNL1        0.0378
@<TRIPOS>BOND
     1    11    12    1
     2    12    13   ar
     3    13    14   ar
     4    14    15   ar
     5    15    10    1
     6    10     9    1
     7     9     8    1
     8     8     7    1
     9     7     1    1
    10     1     2   ar
    11     2     3   ar
    12     3     4   ar
    13     4     5   ar
    14     5    18    1
    15    18    19    1
    16    19    20    1
    17    20    21    1
    18    21    22    1
    19    22    23   ar
    20    23    24   ar
    21    24    25   ar
    22    25    26    1
    23    25    27   ar
    24    27    28   ar
    25     5     6   ar
    26    15    16   ar
    27    16    17   ar
    28    17    12   ar
    29     6     1   ar
    30    28    22   ar
@<TRIPOS>MOLECULE
*****
 28 30 0 0 0
SMALL
GASTEIGER

@<TRIPOS>ATOM
      1 C          -8.2204  -19.5115   22.7436 C.ar    1  UNL1        0.0587
      2 C          -9.1110  -20.3573   23.6047 C.ar    1  UNL1        0.0147
      3 C          -9.9008  -19.7271   24.7133 C.ar    1  UNL1        0.0024
      4 C          -9.8000  -18.2511   24.9608 C.ar    1  UNL1        0.0147
      5 C          -8.9094  -17.4053   24.0997 C.ar    1  UNL1        0.0587
      6 N          -8.1196  -18.0355   22.9911 N.ar    1  UNL1       -0.2540
      7 C          -7.4306  -20.1417   21.6349 C.3     1  UNL1        0.0496
      8 C          -7.3445  -19.4670   20.2980 C.3     1  UNL1        0.0536
      9 C          -8.4755  -19.5917   19.3206 C.3     1  UNL1        0.2058
     10 O          -9.4787  -18.4844   19.1890 O.3     1  UNL1       -0.4755
     11 CL        -13.4746  -17.5210   23.5600 Cl      1  UNL1       -0.0822
     12 C         -12.4756  -17.7619   22.4672 C.ar    1  UNL1        0.0579
     13 C         -11.7286  -16.6082   21.8663 C.ar    1  UNL1        0.0145
     14 C         -10.7296  -16.8491   20.7736 C.ar    1  UNL1        0.0378
     15 C         -10.4776  -18.2435   20.2818 C.ar    1  UNL1        0.1386
     16 C         -11.2246  -19.3971   20.8827 C.ar    1  UNL1        0.0378
     17 C         -12.2236  -19.1563   21.9754 C.ar    1  UNL1        0.0145
     18 C          -8.8086  -15.9293   24.3472 C.3     1  UNL1        0.0496
     19 C          -7.5042  -15.3289   24.7810 C.3     1  UNL1        0.0536
     20 C          -6.3524  -15.2650   23.8224 C.3     1  UNL1        0.2058
     21 O          -4.9999  -15.7607   24.2409 O.3     1  UNL1       -0.4755
     22 C          -4.2418  -16.7072   23.3579 C.ar    1  UNL1        0.1386
     23 C          -3.0527  -16.2210   22.5836 C.ar    1  UNL1        0.0378
     24 C          -2.2946  -17.1674   21.7007 C.ar    1  UNL1        0.0145
     25 C          -2.7256  -18.6001   21.5921 C.ar    1  UNL1        0.0579
     26 CL         -1.9675  -19.5465   20.7092 Cl      1  UNL1       -0.0822
     27 C          -3.9147  -19.0863   22.3664 C.ar    1  UNL1        0.0145
     28 C          -4.6728  -18.1398   23.2494 C.ar    1  UNL1        0.0378
@<TRIPOS>BOND
     1    11    12    1
     2    12    13   ar
     3    13    14   ar
     4    14    15   ar
     5    15    10    1
     6    10     9    1
     7     9     8    1
     8     8     7    1
     9     7     1    1
    10     1     2   ar
    11     2     3   ar
    12     3     4   ar
    13     4     5   ar
    14     5    18    1
    15    18    19    1
    16    19    20    1
    17    20    21    1
    18    21    22    1
    19    22    23   ar
    20    23    24   ar
    21    24    25   ar
    22    25    26    1
    23    25    27   ar
    24    27    28   ar
    25     5     6   ar
    26    15    16   ar
    27    16    17   ar
    28    17    12   ar
    29     6     1   ar
    30    28    22   ar
@<TRIPOS>MOLECULE
*****
 28 30 0 0 0
SMALL
GASTEIGER

@<TRIPOS>ATOM
      1 C          -5.1207  -19.7552   20.9260 C.ar    1  UNL1        0.0587
      2 C          -3.7365  -20.1120   20.4712 C.ar    1  UNL1        0.0147
      3 C          -2.5446  -19.4956   21.1415 C.ar    1  UNL1        0.0024
      4 C          -2.7368  -18.5224   22.2666 C.ar    1  UNL1        0.0147
      5 C          -4.1209  -18.1656   22.7215 C.ar    1  UNL1        0.0587
      6 N          -5.3129  -18.7821   22.0512 N.ar    1  UNL1       -0.2540
      7 C          -6.3126  -20.3717   20.2557 C.3     1  UNL1        0.0496
      8 C          -7.6184  -19.6342   20.2212 C.3     1  UNL1        0.0536
      9 C          -8.5281  -19.7750   19.0369 C.3     1  UNL1        0.2058
     10 O         -10.0135  -19.8384   19.2355 O.3     1  UNL1       -0.4755
     11 CL        -12.7608  -15.7434   22.6535 Cl      1  UNL1       -0.0822
     12 C         -12.0740  -16.7671   21.7990 C.ar    1  UNL1        0.0579
     13 C         -11.2307  -16.3310   20.6378 C.ar    1  UNL1        0.0145
     14 C         -10.5439  -17.3547   19.7833 C.ar    1  UNL1        0.0378
     15 C         -10.7004  -18.8146   20.0900 C.ar    1  UNL1        0.1386
     16 C         -11.5437  -19.2508   21.2513 C.ar    1  UNL1        0.0378
     17 C         -12.2305  -18.2270   22.1058 C.ar    1  UNL1        0.0145
     18 C          -4.3131  -17.1925   23.8467 C.3     1  UNL1        0.0496
     19 C          -4.7495  -15.7871   23.5565 C.3     1  UNL1        0.0536
     20 C          -5.5690  -15.0335   24.5617 C.3     1  UNL1        0.2058
     21 O          -7.0542  -14.9202   24.3852 O.3     1  UNL1       -0.4755
     22 C          -7.9178  -16.1418   24.4944 C.ar    1  UNL1        0.1386
     23 C          -8.1177  -17.0281   23.3008 C.ar    1  UNL1        0.0378
     24 C          -8.9813  -18.2497   23.4100 C.ar    1  UNL1        0.0145
     25 C          -9.6449  -18.5851   24.7128 C.ar    1  UNL1        0.0579
     26 CL        -10.5085  -19.8067   24.8219 Cl      1  UNL1       -0.0822
     27 C          -9.4450  -17.6988   25.9063 C.ar    1  UNL1        0.0145
     28 C          -8.5814  -16.4772   25.7971 C.ar    1  UNL1        0.0378
@<TRIPOS>BOND
     1    11    12    1
     2    12    13   ar
     3    13    14   ar
     4    14    15   ar
     5    15    10    1
     6    10     9    1
     7     9     8    1
     8     8     7    1
     9     7     1    1
    10     1     2   ar
    11     2     3   ar
    12     3     4   ar
    13     4     5   ar
    14     5    18    1
    15    18    19    1
    16    19    20    1
    17    20    21    1
    18    21    22    1
    19    22    23   ar
    20    23    24   ar
    21    24    25   ar
    22    25    26    1
    23    25    27   ar
    24    27    28   ar
    25     5     6   ar
    26    15    16   ar
    27    16    17   ar
    28    17    12   ar
    29     6     1   ar
    30    28    22   ar
@<TRIPOS>MOLECULE
*****
 28 30 0 0 0
SMALL
GASTEIGER

@<TRIPOS>ATOM
      1 C          -6.0605  -15.6154   24.9163 C.ar    1  UNL1        0.0587
      2 C          -5.9600  -15.1865   26.3502 C.ar    1  UNL1        0.0147
      3 C          -7.0763  -15.4919   27.3044 C.ar    1  UNL1        0.0024
      4 C          -8.2932  -16.2261   26.8249 C.ar    1  UNL1        0.0147
      5 C          -8.3938  -16.6550   25.3910 C.ar    1  UNL1        0.0587
      6 N          -7.2775  -16.3497   24.4367 N.ar    1  UNL1       -0.2540
      7 C          -4.9442  -15.3101   23.9621 C.3     1  UNL1        0.0496
      8 C          -4.2661  -16.4236   23.2202 C.3     1  UNL1        0.0536
      9 C          -4.0212  -17.7380   23.9002 C.3     1  UNL1        0.2058
     10 O          -4.1428  -19.0171   23.1262 O.3     1  UNL1       -0.4755
     11 CL         -8.4451  -19.6223   18.9881 Cl      1  UNL1       -0.0822
     12 C          -7.3695  -19.4710   20.0227 C.ar    1  UNL1        0.0579
     13 C          -5.9367  -19.7222   19.6571 C.ar    1  UNL1        0.0145
     14 C          -4.8611  -19.5709   20.6917 C.ar    1  UNL1        0.0378
     15 C          -5.2184  -19.1684   22.0917 C.ar    1  UNL1        0.1386
     16 C          -6.6513  -18.9171   22.4573 C.ar    1  UNL1        0.0378
     17 C          -7.7268  -19.0684   21.4227 C.ar    1  UNL1        0.0145
     18 C          -9.6107  -17.3892   24.9114 C.3     1  UNL1        0.0496
     19 C          -9.7725  -18.8498   25.2123 C.3     1  UNL1        0.0536
     20 C         -10.7292  -19.6796   24.4086 C.3     1  UNL1        0.2058
     21 O         -11.9895  -19.0656   23.8750 O.3     1  UNL1       -0.4755
     22 C         -11.9413  -18.1959   22.6537 C.ar    1  UNL1        0.1386
     23 C         -11.3930  -18.7389   21.3674 C.ar    1  UNL1        0.0378
     24 C         -11.3448  -17.8693   20.1462 C.ar    1  UNL1        0.0145
     25 C         -11.8449  -16.4566   20.2113 C.ar    1  UNL1        0.0579
     26 CL        -11.7967  -15.5869   18.9901 Cl      1  UNL1       -0.0822
     27 C         -12.3932  -15.9135   21.4975 C.ar    1  UNL1        0.0145
     28 C         -12.4413  -16.7832   22.7188 C.ar    1  UNL1        0.0378
@<TRIPOS>BOND
     1    11    12    1
     2    12    13   ar
     3    13    14   ar
     4    14    15   ar
     5    15    10    1
     6    10     9    1
     7     9     8    1
     8     8     7    1
     9     7     1    1
    10     1     2   ar
    11     2     3   ar
    12     3     4   ar
    13     4     5   ar
    14     5    18    1
    15    18    19    1
    16    19    20    1
    17    20    21    1
    18    21    22    1
    19    22    23   ar
    20    23    24   ar
    21    24    25   ar
    22    25    26    1
    23    25    27   ar
    24    27    28   ar
    25     5     6   ar
    26    15    16   ar
    27    16    17   ar
    28    17    12   ar
    29     6     1   ar
    30    28    22   ar
@<TRIPOS>MOLECULE
*****
 28 30 0 0 0
SMALL
GASTEIGER

@<TRIPOS>ATOM
      1 C          -6.2016  -15.5995   24.9496 C.ar    1  UNL1        0.0587
      2 C          -6.1062  -15.2809   26.4122 C.ar    1  UNL1        0.0147
      3 C          -7.2206  -15.6685   27.3385 C.ar    1  UNL1        0.0024
      4 C          -8.4304  -16.3746   26.8021 C.ar    1  UNL1        0.0147
      5 C          -8.5258  -16.6933   25.3394 C.ar    1  UNL1        0.0587
      6 N          -7.4114  -16.3057   24.4131 N.ar    1  UNL1       -0.2540
      7 C          -5.0872  -15.2120   24.0233 C.3     1  UNL1        0.0496
      8 C          -4.3449  -16.2684   23.2598 C.3     1  UNL1        0.0536
      9 C          -4.0933  -17.6085   23.8851 C.3     1  UNL1        0.2058
     10 O          -3.3103  -18.6486   23.1401 O.3     1  UNL1       -0.4755
     11 CL         -1.6596  -17.6619   17.4567 Cl      1  UNL1       -0.0822
     12 C          -2.0723  -17.9086   18.8776 C.ar    1  UNL1        0.0579
     13 C          -3.3372  -18.6591   19.1716 C.ar    1  UNL1        0.0145
     14 C          -3.7499  -18.9058   20.5925 C.ar    1  UNL1        0.0378
     15 C          -2.8976  -18.4019   21.7193 C.ar    1  UNL1        0.1386
     16 C          -1.6327  -17.6514   21.4252 C.ar    1  UNL1        0.0378
     17 C          -1.2200  -17.4047   20.0043 C.ar    1  UNL1        0.0145
     18 C          -9.7355  -17.3995   24.8030 C.3     1  UNL1        0.0496
     19 C         -10.0069  -18.8227   25.1914 C.3     1  UNL1        0.0536
     20 C          -9.9828  -19.9019   24.1499 C.3     1  UNL1        0.2058
     21 O         -11.0998  -20.0087   23.1545 O.3     1  UNL1       -0.4755
     22 C         -11.3145  -18.9173   22.1481 C.ar    1  UNL1        0.1386
     23 C         -12.3197  -17.8368   22.4165 C.ar    1  UNL1        0.0378
     24 C         -12.5344  -16.7454   21.4102 C.ar    1  UNL1        0.0145
     25 C         -11.7439  -16.7345   20.1354 C.ar    1  UNL1        0.0579
     26 CL        -11.9586  -15.6432   19.1290 Cl      1  UNL1       -0.0822
     27 C         -10.7388  -17.8151   19.8670 C.ar    1  UNL1        0.0145
     28 C         -10.5241  -18.9065   20.8734 C.ar    1  UNL1        0.0378
@<TRIPOS>BOND
     1    11    12    1
     2    12    13   ar
     3    13    14   ar
     4    14    15   ar
     5    15    10    1
     6    10     9    1
     7     9     8    1
     8     8     7    1
     9     7     1    1
    10     1     2   ar
    11     2     3   ar
    12     3     4   ar
    13     4     5   ar
    14     5    18    1
    15    18    19    1
    16    19    20    1
    17    20    21    1
    18    21    22    1
    19    22    23   ar
    20    23    24   ar
    21    24    25   ar
    22    25    26    1
    23    25    27   ar
    24    27    28   ar
    25     5     6   ar
    26    15    16   ar
    27    16    17   ar
    28    17    12   ar
    29     6     1   ar
    30    28    22   ar
@<TRIPOS>MOLECULE
*****
 28 30 0 0 0
SMALL
GASTEIGER

@<TRIPOS>ATOM
      1 C          -8.2846  -19.1996   20.4194 C.ar    1  UNL1        0.0587
      2 C          -7.3618  -20.3500   20.1456 C.ar    1  UNL1        0.0147
      3 C          -6.0840  -20.4870   20.9192 C.ar    1  UNL1        0.0024
      4 C          -5.7291  -19.4737   21.9667 C.ar    1  UNL1        0.0147
      5 C          -6.6520  -18.3233   22.2405 C.ar    1  UNL1        0.0587
      6 N          -7.9297  -18.1862   21.4669 N.ar    1  UNL1       -0.2540
      7 C          -9.5624  -19.0626   19.6457 C.3     1  UNL1        0.0496
      8 C         -10.8591  -19.5077   20.2544 C.3     1  UNL1        0.0536
      9 C         -11.6901  -18.5381   21.0414 C.3     1  UNL1        0.2058
     10 O         -11.8771  -18.7353   22.5165 O.3     1  UNL1       -0.4755
     11 CL         -8.1216  -16.1147   26.3932 Cl      1  UNL1       -0.0822
     12 C          -9.0604  -16.7698   25.4240 C.ar    1  UNL1        0.0579
     13 C          -9.5320  -18.1726   25.6683 C.ar    1  UNL1        0.0145
     14 C         -10.4709  -18.8278   24.6992 C.ar    1  UNL1        0.0378
     15 C         -10.9382  -18.0801   23.4857 C.ar    1  UNL1        0.1386
     16 C         -10.4666  -16.6773   23.2414 C.ar    1  UNL1        0.0378
     17 C          -9.5277  -16.0222   24.2105 C.ar    1  UNL1        0.0145
     18 C          -6.2970  -17.3100   23.2880 C.3     1  UNL1        0.0496
     19 C          -4.8776  -16.8473   23.4334 C.3     1  UNL1        0.0536
     20 C          -3.9047  -17.6542   24.2410 C.3     1  UNL1        0.2058
     21 O          -2.5296  -17.9252   23.7066 O.3     1  UNL1       -0.4755
     22 C          -2.2845  -17.9150   22.2268 C.ar    1  UNL1        0.1386
     23 C          -2.3704  -19.1914   21.4435 C.ar    1  UNL1        0.0378
     24 C          -2.1253  -19.1812   19.9637 C.ar    1  UNL1        0.0145
     25 C          -1.7944  -17.8946   19.2671 C.ar    1  UNL1        0.0579
     26 CL         -1.5494  -17.8845   17.7873 Cl      1  UNL1       -0.0822
     27 C          -1.7086  -16.6182   20.0503 C.ar    1  UNL1        0.0145
     28 C          -1.9536  -16.6284   21.5302 C.ar    1  UNL1        0.0378
@<TRIPOS>BOND
     1    11    12    1
     2    12    13   ar
     3    13    14   ar
     4    14    15   ar
     5    15    10    1
     6    10     9    1
     7     9     8    1
     8     8     7    1
     9     7     1    1
    10     1     2   ar
    11     2     3   ar
    12     3     4   ar
    13     4     5   ar
    14     5    18    1
    15    18    19    1
    16    19    20    1
    17    20    21    1
    18    21    22    1
    19    22    23   ar
    20    23    24   ar
    21    24    25   ar
    22    25    26    1
    23    25    27   ar
    24    27    28   ar
    25     5     6   ar
    26    15    16   ar
    27    16    17   ar
    28    17    12   ar
    29     6     1   ar
    30    28    22   ar
@<TRIPOS>MOLECULE
*****
 28 30 0 0 0
SMALL
GASTEIGER

@<TRIPOS>ATOM
      1 C         -13.6419   -2.9043   18.8815 C.ar    1  UNL1        0.0587
      2 C         -13.6727   -3.3112   20.3249 C.ar    1  UNL1        0.0147
      3 C         -13.7331   -4.7639   20.6935 C.ar    1  UNL1        0.0024
      4 C         -13.7627   -5.8098   19.6187 C.ar    1  UNL1        0.0147
      5 C         -13.7319   -5.4030   18.1752 C.ar    1  UNL1        0.0587
      6 N         -13.6715   -3.9503   17.8066 N.ar    1  UNL1       -0.2540
      7 C         -13.5815   -1.4516   18.5128 C.3     1  UNL1        0.0496
      8 C         -12.2562   -0.7974   18.2565 C.3     1  UNL1        0.0536
      9 C         -11.5524   -1.0152   16.9499 C.3     1  UNL1        0.2058
     10 O         -10.2526   -1.7628   16.9136 O.3     1  UNL1       -0.4755
     11 CL        -10.0965   -7.5812   18.3702 Cl      1  UNL1       -0.0822
     12 C         -10.1355   -6.1266   18.0061 C.ar    1  UNL1        0.0579
     13 C          -9.9913   -5.0823   19.0730 C.ar    1  UNL1        0.0145
     14 C         -10.0304   -3.6277   18.7089 C.ar    1  UNL1        0.0378
     15 C         -10.2135   -3.2174   17.2778 C.ar    1  UNL1        0.1386
     16 C         -10.3577   -4.2618   16.2108 C.ar    1  UNL1        0.0378
     17 C         -10.3187   -5.7164   16.5750 C.ar    1  UNL1        0.0145
     18 C         -13.7616   -6.4489   17.1005 C.3     1  UNL1        0.0496
     19 C         -15.0246   -6.6974   16.3304 C.3     1  UNL1        0.0536
     20 C         -16.2179   -7.2914   17.0182 C.3     1  UNL1        0.2058
     21 O         -17.4564   -6.4685   17.2157 O.3     1  UNL1       -0.4755
     22 C         -17.3687   -5.1308   17.8887 C.ar    1  UNL1        0.1386
     23 C         -17.4169   -5.0395   19.3851 C.ar    1  UNL1        0.0378
     24 C         -17.3293   -3.7019   20.0582 C.ar    1  UNL1        0.0145
     25 C         -17.1933   -2.4555   19.2348 C.ar    1  UNL1        0.0579
     26 CL        -17.1056   -1.1178   19.9078 Cl      1  UNL1       -0.0822
     27 C         -17.1451   -2.5467   17.7383 C.ar    1  UNL1        0.0145
     28 C         -17.2328   -3.8844   17.0653 C.ar    1  UNL1        0.0378
@<TRIPOS>BOND
     1    11    12    1
     2    12    13   ar
     3    13    14   ar
     4    14    15   ar
     5    15    10    1
     6    10     9    1
     7     9     8    1
     8     8     7    1
     9     7     1    1
    10     1     2   ar
    11     2     3   ar
    12     3     4   ar
    13     4     5   ar
    14     5    18    1
    15    18    19    1
    16    19    20    1
    17    20    21    1
    18    21    22    1
    19    22    23   ar
    20    23    24   ar
    21    24    25   ar
    22    25    26    1
    23    25    27   ar
    24    27    28   ar
    25     5     6   ar
    26    15    16   ar
    27    16    17   ar
    28    17    12   ar
    29     6     1   ar
    30    28    22   ar
