@<TRIPOS>MOLECULE
*****
 22 25 0 0 0
SMALL
GASTEIGER

@<TRIPOS>ATOM
      1 O          -5.6940  -17.5580   22.6567 O.2     1  UNL1       -0.2742
      2 C          -6.5760  -18.6644   22.1590 C.2     1  UNL1        0.2352
      3 N          -5.9833  -19.8075   21.3896 N.am    1  UNL1       -0.3039
      4 H          -6.4763  -20.5768   21.0231 H       1  UNL1        0.1494
      5 C          -8.0508  -18.6277   22.4306 C.3     1  UNL1        0.1795
      6 C          -8.7317  -19.8192   23.0359 C.2     1  UNL1        0.0891
      7 N         -10.2066  -19.7826   23.3075 N.2     1  UNL1       -0.2469
      8 C         -11.0003  -18.5543   22.9737 C.ar    1  UNL1        0.0902
      9 C         -12.4563  -18.2280   23.1266 C.ar    1  UNL1        0.0267
     10 C         -12.6752  -16.8348   22.6157 C.ar    1  UNL1        0.0371
     11 S         -11.3544  -16.3000   22.1471 S.2     1  UNL1       -0.0820
     12 C         -10.3192  -17.3628   22.3683 C.ar    1  UNL1        0.0826
     13 C          -8.8445  -17.3995   22.0968 C.2     1  UNL1        0.1944
     14 O          -8.1635  -16.2080   21.4914 O.2     1  UNL1       -0.2899
     15 C          -3.3475  -19.3848   21.1898 C.3     1  UNL1        0.0875
     16 C          -3.1009  -18.8663   19.9610 C.3     1  UNL1        0.0919
     17 N          -2.9022  -18.5500   19.2273 N.3     1  UNL1       -0.2713
     18 C          -1.7708  -18.7814   20.1845 C.3     1  UNL1        0.0722
     19 C          -2.0436  -19.3548   21.5435 C.3     1  UNL1        0.0191
     20 C          -3.4477  -19.6969   21.9452 C.3     1  UNL1        0.0221
     21 C          -4.5791  -19.4655   20.9879 C.3     1  UNL1        0.0191
     22 C          -4.3064  -18.8920   19.6289 C.3     1  UNL1        0.0722
@<TRIPOS>BOND
     1     1     2    2
     2     2     3   am
     3    15     3    1
     4    15    16    1
     5    16    17    1
     6    17    18    1
     7    18    19    1
     8    19    20    1
     9    20    21    1
    10    21    22    1
    11     2     5    1
    12     5     6    1
    13     6     7    2
    14     7     8    1
    15     8     9   ar
    16     9    10   ar
    17    10    11   ar
    18    11    12   ar
    19    12    13    1
    20    13    14    2
    21    20    15    1
    22    13     5    1
    23    22    17    1
    24    12     8   ar
    25     3     4    1
@<TRIPOS>MOLECULE
*****
 22 25 0 0 0
SMALL
GASTEIGER

@<TRIPOS>ATOM
      1 O          -9.2872  -18.7355   20.7340 O.2     1  UNL1       -0.2742
      2 C          -8.3147  -18.7574   21.8756 C.2     1  UNL1        0.2352
      3 N          -8.7847  -18.4530   23.2672 N.am    1  UNL1       -0.3039
      4 H          -8.2264  -18.4420   24.0780 H       1  UNL1        0.1494
      5 C          -6.8720  -19.0837   21.6259 C.3     1  UNL1        0.1795
      6 C          -6.5065  -20.2347   20.7364 C.2     1  UNL1        0.0891
      7 N          -5.0638  -20.5610   20.4866 N.2     1  UNL1       -0.2469
      8 C          -3.9867  -19.7361   21.1265 C.ar    1  UNL1        0.0902
      9 C          -2.4902  -19.8180   21.0658 C.ar    1  UNL1        0.0267
     10 C          -1.9309  -18.7175   21.9178 C.ar    1  UNL1        0.0371
     11 S          -3.0817  -17.9555   22.5051 S.2     1  UNL1       -0.0820
     12 C          -4.3523  -18.5850   22.0160 C.ar    1  UNL1        0.0826
     13 C          -5.7949  -18.2588   22.2657 C.2     1  UNL1        0.1944
     14 O          -6.1605  -17.1077   23.1553 O.2     1  UNL1       -0.2899
     15 C         -11.4106  -17.9448   23.1550 C.3     1  UNL1        0.0875
     16 C         -11.5701  -16.6736   22.7098 C.3     1  UNL1        0.0919
     17 N         -11.7168  -15.9086   22.4432 N.3     1  UNL1       -0.2713
     18 C         -12.9182  -16.7452   22.7697 C.3     1  UNL1        0.0722
     19 C         -12.7418  -18.1510   23.2621 C.3     1  UNL1        0.0191
     20 C         -11.3640  -18.7203   23.4279 C.3     1  UNL1        0.0221
     21 C         -10.1625  -17.8837   23.1014 C.3     1  UNL1        0.0191
     22 C         -10.3389  -16.4778   22.6089 C.3     1  UNL1        0.0722
@<TRIPOS>BOND
     1     1     2    2
     2     2     3   am
     3    15     3    1
     4    15    16    1
     5    16    17    1
     6    17    18    1
     7    18    19    1
     8    19    20    1
     9    20    21    1
    10    21    22    1
    11     2     5    1
    12     5     6    1
    13     6     7    2
    14     7     8    1
    15     8     9   ar
    16     9    10   ar
    17    10    11   ar
    18    11    12   ar
    19    12    13    1
    20    13    14    2
    21    20    15    1
    22    13     5    1
    23    22    17    1
    24    12     8   ar
    25     3     4    1
@<TRIPOS>MOLECULE
*****
 22 25 0 0 0
SMALL
GASTEIGER

@<TRIPOS>ATOM
      1 O          -8.9569  -16.5186   22.6878 O.2     1  UNL1       -0.2742
      2 C          -8.3400  -17.8629   22.4388 C.2     1  UNL1        0.2352
      3 N          -9.2154  -19.0644   22.2385 N.am    1  UNL1       -0.3039
      4 H          -8.9074  -19.9842   22.0700 H       1  UNL1        0.1494
      5 C          -6.8475  -18.0059   22.3901 C.3     1  UNL1        0.1795
      6 C          -5.9827  -17.1448   23.2620 C.2     1  UNL1        0.0891
      7 N          -4.4903  -17.2878   23.2133 N.2     1  UNL1       -0.2469
      8 C          -3.8628  -18.2920   22.2925 C.ar    1  UNL1        0.0902
      9 C          -2.4316  -18.6558   22.0297 C.ar    1  UNL1        0.0267
     10 C          -2.4119  -19.7418   20.9952 C.ar    1  UNL1        0.0371
     11 S          -3.8310  -20.0493   20.6188 S.2     1  UNL1       -0.0820
     12 C          -4.7277  -19.1532   21.4206 C.ar    1  UNL1        0.0826
     13 C          -6.2201  -19.0101   21.4693 C.2     1  UNL1        0.1944
     14 O          -7.0850  -19.8713   20.5974 O.2     1  UNL1       -0.2899
     15 C         -11.7634  -18.2642   22.4207 C.3     1  UNL1        0.0875
     16 C         -12.1499  -18.3964   23.7141 C.3     1  UNL1        0.0919
     17 N         -12.4299  -18.4590   24.4858 N.3     1  UNL1       -0.2713
     18 C         -13.3960  -17.9371   23.4640 C.3     1  UNL1        0.0722
     19 C         -12.9686  -17.7909   22.0336 C.3     1  UNL1        0.0191
     20 C         -11.5750  -18.1667   21.6251 C.3     1  UNL1        0.0221
     21 C         -10.6089  -18.6886   22.6470 C.3     1  UNL1        0.0191
     22 C         -11.0364  -18.8348   24.0775 C.3     1  UNL1        0.0722
@<TRIPOS>BOND
     1     1     2    2
     2     2     3   am
     3    15     3    1
     4    15    16    1
     5    16    17    1
     6    17    18    1
     7    18    19    1
     8    19    20    1
     9    20    21    1
    10    21    22    1
    11     2     5    1
    12     5     6    1
    13     6     7    2
    14     7     8    1
    15     8     9   ar
    16     9    10   ar
    17    10    11   ar
    18    11    12   ar
    19    12    13    1
    20    13    14    2
    21    20    15    1
    22    13     5    1
    23    22    17    1
    24    12     8   ar
    25     3     4    1
@<TRIPOS>MOLECULE
*****
 22 25 0 0 0
SMALL
GASTEIGER

@<TRIPOS>ATOM
      1 O          -7.1036  -17.5491   23.0089 O.2     1  UNL1       -0.2742
      2 C          -6.2799  -18.6618   22.4318 C.2     1  UNL1        0.2352
      3 N          -6.8990  -20.0068   22.1920 N.am    1  UNL1       -0.3039
      4 H          -6.4439  -20.7962   21.8192 H       1  UNL1        0.1494
      5 C          -4.8369  -18.4295   22.0943 C.3     1  UNL1        0.1795
      6 C          -3.8581  -18.0905   23.1791 C.2     1  UNL1        0.0891
      7 N          -2.4150  -17.8583   22.8416 N.2     1  UNL1       -0.2469
      8 C          -1.9510  -17.9650   21.4192 C.ar    1  UNL1        0.0902
      9 C          -0.6013  -17.7913   20.7881 C.ar    1  UNL1        0.0267
     10 C          -0.7461  -18.0230   19.3132 C.ar    1  UNL1        0.0371
     11 S          -2.1852  -18.3398   19.0327 S.2     1  UNL1       -0.0820
     12 C          -2.9298  -18.3040   20.3343 C.ar    1  UNL1        0.0826
     13 C          -4.3728  -18.5362   20.6719 C.2     1  UNL1        0.1944
     14 O          -5.3517  -18.8752   19.5870 O.2     1  UNL1       -0.2899
     15 C          -9.4610  -19.8804   22.9576 C.3     1  UNL1        0.0875
     16 C         -10.1694  -19.3132   21.9495 C.3     1  UNL1        0.0919
     17 N         -10.6408  -18.9738   21.3661 N.3     1  UNL1       -0.2713
     18 C         -11.3366  -19.3983   22.6252 C.3     1  UNL1        0.0722
     19 C         -10.5533  -20.0256   23.7400 C.3     1  UNL1        0.0191
     20 C          -9.0741  -20.2285   23.5956 C.3     1  UNL1        0.0221
     21 C          -8.3782  -19.8040   22.3364 C.3     1  UNL1        0.0191
     22 C          -9.1616  -19.1766   21.2215 C.3     1  UNL1        0.0722
@<TRIPOS>BOND
     1     1     2    2
     2     2     3   am
     3    15     3    1
     4    15    16    1
     5    16    17    1
     6    17    18    1
     7    18    19    1
     8    19    20    1
     9    20    21    1
    10    21    22    1
    11     2     5    1
    12     5     6    1
    13     6     7    2
    14     7     8    1
    15     8     9   ar
    16     9    10   ar
    17    10    11   ar
    18    11    12   ar
    19    12    13    1
    20    13    14    2
    21    20    15    1
    22    13     5    1
    23    22    17    1
    24    12     8   ar
    25     3     4    1
@<TRIPOS>MOLECULE
*****
 22 25 0 0 0
SMALL
GASTEIGER

@<TRIPOS>ATOM
      1 O          -6.7270  -17.2393   21.7832 O.2     1  UNL1       -0.2742
      2 C          -7.6732  -18.3639   22.0830 C.2     1  UNL1        0.2352
      3 N          -7.1574  -19.7678   22.1966 N.am    1  UNL1       -0.3039
      4 H          -7.6958  -20.5692   22.3894 H       1  UNL1        0.1494
      5 C          -9.1352  -18.0847   22.2691 C.3     1  UNL1        0.1795
      6 C          -9.8480  -17.1602   21.3273 C.2     1  UNL1        0.0891
      7 N         -11.3101  -16.8810   21.5134 N.2     1  UNL1       -0.2469
      8 C         -12.0592  -17.5263   22.6414 C.ar    1  UNL1        0.0902
      9 C         -13.4935  -17.4417   23.0719 C.ar    1  UNL1        0.0267
     10 C         -13.6671  -18.3139   24.2798 C.ar    1  UNL1        0.0371
     11 S         -12.3401  -18.9376   24.5959 S.2     1  UNL1       -0.0820
     12 C         -11.3463  -18.4509   23.5832 C.ar    1  UNL1        0.0826
     13 C          -9.8843  -18.7300   23.3971 C.2     1  UNL1        0.1944
     14 O          -9.1714  -19.6546   24.3389 O.2     1  UNL1       -0.2899
     15 C          -4.5134  -19.7081   21.7825 C.3     1  UNL1        0.0875
     16 C          -4.2761  -20.1879   20.5362 C.3     1  UNL1        0.0919
     17 N          -4.0829  -20.4717   19.7879 N.3     1  UNL1       -0.2713
     18 C          -2.9392  -20.0277   20.6509 C.3     1  UNL1        0.0722
     19 C          -3.2016  -19.4970   22.0291 C.3     1  UNL1        0.0191
     20 C          -4.6076  -19.4104   22.5444 C.3     1  UNL1        0.0221
     21 C          -5.7513  -19.8544   21.6814 C.3     1  UNL1        0.0191
     22 C          -5.4890  -20.3852   20.3031 C.3     1  UNL1        0.0722
@<TRIPOS>BOND
     1     1     2    2
     2     2     3   am
     3    15     3    1
     4    15    16    1
     5    16    17    1
     6    17    18    1
     7    18    19    1
     8    19    20    1
     9    20    21    1
    10    21    22    1
    11     2     5    1
    12     5     6    1
    13     6     7    2
    14     7     8    1
    15     8     9   ar
    16     9    10   ar
    17    10    11   ar
    18    11    12   ar
    19    12    13    1
    20    13    14    2
    21    20    15    1
    22    13     5    1
    23    22    17    1
    24    12     8   ar
    25     3     4    1
@<TRIPOS>MOLECULE
*****
 22 25 0 0 0
SMALL
GASTEIGER

@<TRIPOS>ATOM
      1 O         -13.0662   -6.7056   16.4665 O.2     1  UNL1       -0.2742
      2 C         -13.9309   -7.1464   17.6101 C.2     1  UNL1        0.2352
      3 N         -13.3901   -7.1296   19.0091 N.am    1  UNL1       -0.3039
      4 H         -13.8767   -7.3984   19.8217 H       1  UNL1        0.1494
      5 C         -15.3364   -7.6040   17.3547 C.3     1  UNL1        0.1795
      6 C         -16.2338   -6.8052   16.4568 C.2     1  UNL1        0.0891
      7 N         -17.6394   -7.2629   16.2015 N.2     1  UNL1       -0.2469
      8 C         -18.1473   -8.5194   16.8441 C.ar    1  UNL1        0.0902
      9 C         -19.4753   -9.2138   16.7793 C.ar    1  UNL1        0.0267
     10 C         -19.3986  -10.4418   17.6372 C.ar    1  UNL1        0.0371
     11 S         -18.0232  -10.5064   18.2323 S.2     1  UNL1       -0.0820
     12 C         -17.2498   -9.3183   17.7421 C.ar    1  UNL1        0.0826
     13 C         -15.8444   -8.8606   17.9974 C.2     1  UNL1        0.1944
     14 O         -14.9469   -9.6595   18.8954 O.2     1  UNL1       -0.2899
     15 C         -10.8677   -6.2394   18.9046 C.3     1  UNL1        0.0875
     16 C         -10.9013   -4.8848   18.9654 C.3     1  UNL1        0.0919
     17 N         -10.8713   -4.0628   18.9994 N.3     1  UNL1       -0.2713
     18 C          -9.5563   -4.7763   18.8938 C.3     1  UNL1        0.0722
     19 C          -9.5191   -6.2744   18.8266 C.3     1  UNL1        0.0191
     20 C         -10.7970   -7.0588   18.8650 C.3     1  UNL1        0.0221
     21 C         -12.1122   -6.3452   18.9707 C.3     1  UNL1        0.0191
     22 C         -12.1494   -4.8471   19.0379 C.3     1  UNL1        0.0722
@<TRIPOS>BOND
     1     1     2    2
     2     2     3   am
     3    15     3    1
     4    15    16    1
     5    16    17    1
     6    17    18    1
     7    18    19    1
     8    19    20    1
     9    20    21    1
    10    21    22    1
    11     2     5    1
    12     5     6    1
    13     6     7    2
    14     7     8    1
    15     8     9   ar
    16     9    10   ar
    17    10    11   ar
    18    11    12   ar
    19    12    13    1
    20    13    14    2
    21    20    15    1
    22    13     5    1
    23    22    17    1
    24    12     8   ar
    25     3     4    1
@<TRIPOS>MOLECULE
*****
 22 25 0 0 0
SMALL
GASTEIGER

@<TRIPOS>ATOM
      1 O         -13.1093   -7.5111   16.6342 O.2     1  UNL1       -0.2742
      2 C         -13.7370   -7.9375   17.9280 C.2     1  UNL1        0.2352
      3 N         -13.0415   -7.6575   19.2272 N.am    1  UNL1       -0.3039
      4 H         -13.3704   -7.8964   20.1238 H       1  UNL1        0.1494
      5 C         -15.0602   -8.6441   17.9228 C.3     1  UNL1        0.1795
      6 C         -15.1369  -10.0954   18.2935 C.2     1  UNL1        0.0891
      7 N         -16.4602  -10.8020   18.2883 N.2     1  UNL1       -0.2469
      8 C         -17.7066  -10.0570   17.9122 C.ar    1  UNL1        0.0902
      9 C         -19.1413  -10.4844   17.8175 C.ar    1  UNL1        0.0267
     10 C         -19.9512   -9.2971   17.3881 C.ar    1  UNL1        0.0371
     11 S         -19.0171   -8.1359   17.2175 S.2     1  UNL1       -0.0820
     12 C         -17.6298   -8.6056   17.5415 C.ar    1  UNL1        0.0826
     13 C         -16.3066   -7.8991   17.5467 C.2     1  UNL1        0.1944
     14 O         -16.2298   -6.4477   17.1759 O.2     1  UNL1       -0.2899
     15 C         -10.7474   -6.3931   18.6754 C.3     1  UNL1        0.0875
     16 C         -10.9679   -5.0600   18.7933 C.3     1  UNL1        0.0919
     17 N         -11.0534   -4.2433   18.8524 N.3     1  UNL1       -0.2713
     18 C          -9.6937   -4.7475   18.4695 C.3     1  UNL1        0.0722
     19 C          -9.4498   -6.2218   18.3391 C.3     1  UNL1        0.0191
     20 C         -10.5658   -7.1918   18.5916 C.3     1  UNL1        0.0221
     21 C         -11.9256   -6.6875   18.9746 C.3     1  UNL1        0.0191
     22 C         -12.1694   -5.2131   19.1050 C.3     1  UNL1        0.0722
@<TRIPOS>BOND
     1     1     2    2
     2     2     3   am
     3    15     3    1
     4    15    16    1
     5    16    17    1
     6    17    18    1
     7    18    19    1
     8    19    20    1
     9    20    21    1
    10    21    22    1
    11     2     5    1
    12     5     6    1
    13     6     7    2
    14     7     8    1
    15     8     9   ar
    16     9    10   ar
    17    10    11   ar
    18    11    12   ar
    19    12    13    1
    20    13    14    2
    21    20    15    1
    22    13     5    1
    23    22    17    1
    24    12     8   ar
    25     3     4    1
@<TRIPOS>MOLECULE
*****
 22 25 0 0 0
SMALL
GASTEIGER

@<TRIPOS>ATOM
      1 O         -16.9680   -6.3148   18.6043 O.2     1  UNL1       -0.2742
      2 C         -15.8409   -7.0579   19.2579 C.2     1  UNL1        0.2352
      3 N         -16.1024   -8.3676   19.9408 N.am    1  UNL1       -0.3039
      4 H         -15.4327   -8.9277   20.3958 H       1  UNL1        0.1494
      5 C         -14.4523   -6.4915   19.2286 C.3     1  UNL1        0.1795
      6 C         -14.1700   -5.1644   19.8681 C.2     1  UNL1        0.0891
      7 N         -12.7813   -4.5979   19.8389 N.2     1  UNL1       -0.2469
      8 C         -11.6750   -5.3587   19.1701 C.ar    1  UNL1        0.0902
      9 C         -10.2178   -5.0552   18.9844 C.ar    1  UNL1        0.0267
     10 C          -9.5995   -6.1948   18.2302 C.ar    1  UNL1        0.0371
     11 S         -10.6746   -7.2026   17.9496 S.2     1  UNL1       -0.0820
     12 C         -11.9573   -6.6858   18.5306 C.ar    1  UNL1        0.0826
     13 C         -13.3460   -7.2522   18.5598 C.2     1  UNL1        0.1944
     14 O         -13.6283   -8.5794   17.9203 O.2     1  UNL1       -0.2899
     15 C         -18.7125   -8.9120   19.7027 C.3     1  UNL1        0.0875
     16 C         -18.8798   -9.6721   18.5919 C.3     1  UNL1        0.0919
     17 N         -19.0308  -10.1343   17.9275 N.3     1  UNL1       -0.2713
     18 C         -20.2175   -9.7567   18.7635 C.3     1  UNL1        0.0722
     19 C         -20.0326   -8.9161   19.9920 C.3     1  UNL1        0.0191
     20 C         -18.6609   -8.4531   20.3844 C.3     1  UNL1        0.0221
     21 C         -17.4741   -8.8306   19.5483 C.3     1  UNL1        0.0191
     22 C         -17.6590   -9.6713   18.3198 C.3     1  UNL1        0.0722
@<TRIPOS>BOND
     1     1     2    2
     2     2     3   am
     3    15     3    1
     4    15    16    1
     5    16    17    1
     6    17    18    1
     7    18    19    1
     8    19    20    1
     9    20    21    1
    10    21    22    1
    11     2     5    1
    12     5     6    1
    13     6     7    2
    14     7     8    1
    15     8     9   ar
    16     9    10   ar
    17    10    11   ar
    18    11    12   ar
    19    12    13    1
    20    13    14    2
    21    20    15    1
    22    13     5    1
    23    22    17    1
    24    12     8   ar
    25     3     4    1
@<TRIPOS>MOLECULE
*****
 22 25 0 0 0
SMALL
GASTEIGER

@<TRIPOS>ATOM
      1 O         -12.0226   -2.9564   17.1588 O.2     1  UNL1       -0.2742
      2 C         -12.4592   -2.4955   18.5177 C.2     1  UNL1        0.2352
      3 N         -12.0867   -3.2895   19.7346 N.am    1  UNL1       -0.3039
      4 H         -12.3244   -3.0706   20.6645 H       1  UNL1        0.1494
      5 C         -13.2684   -1.2404   18.6600 C.3     1  UNL1        0.1795
      6 C         -12.7007    0.0730   18.2102 C.2     1  UNL1        0.0891
      7 N         -13.5099    1.3281   18.3524 N.2     1  UNL1       -0.2469
      8 C         -14.8868    1.2695   18.9445 C.ar    1  UNL1        0.0902
      9 C         -15.9118    2.3324   19.2086 C.ar    1  UNL1        0.0267
     10 C         -17.1130    1.6757   19.8217 C.ar    1  UNL1        0.0371
     11 S         -16.8305    0.2070   19.9364 S.2     1  UNL1       -0.0820
     12 C         -15.4546   -0.0440   19.3942 C.ar    1  UNL1        0.0826
     13 C         -14.6454   -1.2990   19.2520 C.2     1  UNL1        0.1944
     14 O         -15.2131   -2.6125   19.7018 O.2     1  UNL1       -0.2899
     15 C         -10.6610   -5.4073   18.9293 C.3     1  UNL1        0.0875
     16 C         -11.5167   -6.4463   18.7624 C.3     1  UNL1        0.0919
     17 N         -11.9967   -7.1053   18.6473 N.3     1  UNL1       -0.2713
     18 C         -10.5322   -7.2895   18.3806 C.3     1  UNL1        0.0722
     19 C          -9.5859   -6.1405   18.5651 C.3     1  UNL1        0.0191
     20 C         -10.1040   -4.8071   19.0164 C.3     1  UNL1        0.0221
     21 C         -11.5686   -4.6228   19.2832 C.3     1  UNL1        0.0191
     22 C         -12.5150   -5.7720   19.0987 C.3     1  UNL1        0.0722
@<TRIPOS>BOND
     1     1     2    2
     2     2     3   am
     3    15     3    1
     4    15    16    1
     5    16    17    1
     6    17    18    1
     7    18    19    1
     8    19    20    1
     9    20    21    1
    10    21    22    1
    11     2     5    1
    12     5     6    1
    13     6     7    2
    14     7     8    1
    15     8     9   ar
    16     9    10   ar
    17    10    11   ar
    18    11    12   ar
    19    12    13    1
    20    13    14    2
    21    20    15    1
    22    13     5    1
    23    22    17    1
    24    12     8   ar
    25     3     4    1
