@<TRIPOS>MOLECULE
*****
 22 23 0 0 0
SMALL
GASTEIGER

@<TRIPOS>ATOM
      1 C          -9.7875  -16.7699   21.9314 C.2     1  UNL1        0.2254
      2 O          -9.3176  -15.5991   21.1201 O.2     1  UNL1       -0.2749
      3 N          -8.8588  -17.4251   22.9104 N.am    1  UNL1       -0.2756
      4 C          -9.3288  -18.5960   23.7218 C.3     1  UNL1        0.0927
      5 C          -9.2514  -20.0379   23.3157 C.3     1  UNL1        0.0383
      6 C          -9.8334  -20.8636   24.4246 C.3     1  UNL1        0.0704
      7 N         -10.2704  -19.9319   25.5160 N.3     1  UNL1       -0.2960
      8 C          -9.9585  -18.5305   25.0816 C.3     1  UNL1        0.0887
      9 H          -9.7677  -20.1474   26.3770 H       1  UNL1        0.1233
     10 C         -11.4758  -18.3516   20.7490 C.3     1  UNL1        0.0096
     11 C         -11.1861  -17.2857   21.7639 C.3     1  UNL1        0.0767
     12 C         -12.2949  -16.7355   22.6111 C.3     1  UNL1        0.0096
     13 C          -7.4603  -16.9094   23.0780 C.3     1  UNL1        0.1210
     14 C          -6.3007  -17.7007   22.5494 C.ar    1  UNL1        0.0091
     15 C          -6.5251  -18.7533   21.5046 C.ar    1  UNL1       -0.0009
     16 C          -5.3657  -19.5446   20.9760 C.ar    1  UNL1        0.0120
     17 C          -3.9818  -19.2833   21.4922 C.ar    1  UNL1        0.0690
     18 CL         -2.8222  -20.0746   20.9636 Cl      1  UNL1       -0.0813
     19 C          -3.7574  -18.2307   22.5371 C.ar    1  UNL1        0.0785
     20 CL         -2.3734  -17.9695   23.0533 Cl      1  UNL1       -0.0805
     21 C          -4.9168  -17.4394   23.0657 C.ar    1  UNL1        0.0667
     22 CL         -4.6924  -16.3869   24.1105 Cl      1  UNL1       -0.0816
@<TRIPOS>BOND
     1    10    11    1
     2    11    12    1
     3    11     1    1
     4     1     2    2
     5     1     3   am
     6     3    13    1
     7    13    14    1
     8    14    15   ar
     9    15    16   ar
    10    16    17   ar
    11    17    18    1
    12    17    19   ar
    13    19    20    1
    14    19    21   ar
    15    21    22    1
    16     4     3    1
    17     4     5    1
    18     5     6    1
    19     6     7    1
    20     7     8    1
    21    21    14   ar
    22     8     4    1
    23     7     9    1
@<TRIPOS>MOLECULE
*****
 22 23 0 0 0
SMALL
GASTEIGER

@<TRIPOS>ATOM
      1 C          -8.6188  -19.1547   20.7325 C.2     1  UNL1        0.2254
      2 O          -7.8283  -19.2499   19.4613 O.2     1  UNL1       -0.2749
      3 N          -8.0194  -19.6234   22.0253 N.am    1  UNL1       -0.2756
      4 C          -8.8100  -19.5282   23.2965 C.3     1  UNL1        0.0927
      5 C          -9.1683  -18.2635   24.0192 C.3     1  UNL1        0.0383
      6 C          -9.9608  -18.6345   25.2376 C.3     1  UNL1        0.0704
      7 N         -10.0921  -20.1285   25.2679 N.3     1  UNL1       -0.2960
      8 C          -9.3809  -20.6808   24.0682 C.3     1  UNL1        0.0887
      9 H         -11.0775  -20.3900   25.2369 H       1  UNL1        0.1233
     10 C         -11.1892  -19.5096   20.6022 C.3     1  UNL1        0.0096
     11 C         -10.0086  -18.5907   20.7111 C.3     1  UNL1        0.0767
     12 C         -10.2177  -17.1080   20.7985 C.3     1  UNL1        0.0096
     13 C          -6.6297  -20.1873   22.0468 C.3     1  UNL1        0.1210
     14 C          -5.4460  -19.2667   22.0098 C.ar    1  UNL1        0.0091
     15 C          -5.3362  -18.1462   23.0010 C.ar    1  UNL1       -0.0009
     16 C          -4.1526  -17.2255   22.9642 C.ar    1  UNL1        0.0120
     17 C          -3.0788  -17.4253   21.9361 C.ar    1  UNL1        0.0690
     18 CL         -1.8951  -16.5046   21.8992 Cl      1  UNL1       -0.0813
     19 C          -3.1886  -18.5458   20.9449 C.ar    1  UNL1        0.0785
     20 CL         -2.1147  -18.7456   19.9167 Cl      1  UNL1       -0.0805
     21 C          -4.3722  -19.4665   20.9817 C.ar    1  UNL1        0.0667
     22 CL         -4.4820  -20.5869   19.9905 Cl      1  UNL1       -0.0816
@<TRIPOS>BOND
     1    10    11    1
     2    11    12    1
     3    11     1    1
     4     1     2    2
     5     1     3   am
     6     3    13    1
     7    13    14    1
     8    14    15   ar
     9    15    16   ar
    10    16    17   ar
    11    17    18    1
    12    17    19   ar
    13    19    20    1
    14    19    21   ar
    15    21    22    1
    16     4     3    1
    17     4     5    1
    18     5     6    1
    19     6     7    1
    20     7     8    1
    21    21    14   ar
    22     8     4    1
    23     7     9    1
@<TRIPOS>MOLECULE
*****
 22 23 0 0 0
SMALL
GASTEIGER

@<TRIPOS>ATOM
      1 C         -10.0426  -17.0455   21.7430 C.2     1  UNL1        0.2254
      2 O          -9.7274  -15.8827   20.8495 O.2     1  UNL1       -0.2749
      3 N          -9.0294  -17.5198   22.7423 N.am    1  UNL1       -0.2756
      4 C          -9.3447  -18.6827   23.6358 C.3     1  UNL1        0.0927
      5 C          -9.0851  -20.1274   23.3270 C.3     1  UNL1        0.0383
      6 C          -9.5548  -20.9427   24.4953 C.3     1  UNL1        0.0704
      7 N         -10.1047  -20.0018   25.5260 N.3     1  UNL1       -0.2960
      8 C          -9.9748  -18.6050   24.9948 C.3     1  UNL1        0.0887
      9 H          -9.5769  -20.0924   26.3941 H       1  UNL1        0.1233
     10 C         -11.5271  -18.9292   20.7440 C.3     1  UNL1        0.0096
     11 C         -11.3710  -17.7343   21.6371 C.3     1  UNL1        0.0767
     12 C         -12.5431  -17.2280   22.4244 C.3     1  UNL1        0.0096
     13 C          -7.7011  -16.8311   22.8482 C.3     1  UNL1        0.1210
     14 C          -6.4369  -17.5963   22.5906 C.ar    1  UNL1        0.0091
     15 C          -5.2376  -17.3794   23.4649 C.ar    1  UNL1       -0.0009
     16 C          -3.9734  -18.1446   23.2074 C.ar    1  UNL1        0.0120
     17 C          -3.9086  -19.1266   22.0755 C.ar    1  UNL1        0.0690
     18 CL         -2.6444  -19.8918   21.8179 Cl      1  UNL1       -0.0813
     19 C          -5.1079  -19.3435   21.2011 C.ar    1  UNL1        0.0785
     20 CL         -5.0431  -20.3257   20.0691 Cl      1  UNL1       -0.0805
     21 C          -6.3721  -18.5784   21.4587 C.ar    1  UNL1        0.0667
     22 CL         -7.5714  -18.7953   20.5843 Cl      1  UNL1       -0.0816
@<TRIPOS>BOND
     1    10    11    1
     2    11    12    1
     3    11     1    1
     4     1     2    2
     5     1     3   am
     6     3    13    1
     7    13    14    1
     8    14    15   ar
     9    15    16   ar
    10    16    17   ar
    11    17    18    1
    12    17    19   ar
    13    19    20    1
    14    19    21   ar
    15    21    22    1
    16     4     3    1
    17     4     5    1
    18     5     6    1
    19     6     7    1
    20     7     8    1
    21    21    14   ar
    22     8     4    1
    23     7     9    1
@<TRIPOS>MOLECULE
*****
 22 23 0 0 0
SMALL
GASTEIGER

@<TRIPOS>ATOM
      1 C          -9.7669  -17.8482   21.5161 C.2     1  UNL1        0.2254
      2 O          -9.9942  -19.0319   20.6234 O.2     1  UNL1       -0.2749
      3 N          -8.6085  -17.8389   22.4691 N.am    1  UNL1       -0.2756
      4 C          -8.3812  -16.6551   23.3618 C.3     1  UNL1        0.0927
      5 C          -8.7650  -16.5553   24.8085 C.3     1  UNL1        0.0383
      6 C          -8.3513  -15.2017   25.3055 C.3     1  UNL1        0.0704
      7 N          -7.7118  -14.4651   24.1659 N.3     1  UNL1       -0.2960
      8 C          -7.7303  -15.3633   22.9647 C.3     1  UNL1        0.0887
      9 H          -6.7493  -14.2263   24.4047 H       1  UNL1        0.1233
     10 C         -11.8220  -16.5563   22.4424 C.3     1  UNL1        0.0096
     11 C         -10.6980  -16.6736   21.4560 C.3     1  UNL1        0.0767
     12 C         -10.5051  -15.6164   20.4096 C.3     1  UNL1        0.0096
     13 C          -7.6774  -19.0133   22.5292 C.3     1  UNL1        0.1210
     14 C          -6.2276  -18.8395   22.1854 C.ar    1  UNL1        0.0091
     15 C          -5.3416  -18.0112   23.0679 C.ar    1  UNL1       -0.0009
     16 C          -3.8920  -17.8374   22.7241 C.ar    1  UNL1        0.0120
     17 C          -3.3283  -18.4919   21.4978 C.ar    1  UNL1        0.0690
     18 CL         -1.8786  -18.3181   21.1540 Cl      1  UNL1       -0.0813
     19 C          -4.2144  -19.3203   20.6153 C.ar    1  UNL1        0.0785
     20 CL         -3.6506  -19.9748   19.3889 Cl      1  UNL1       -0.0805
     21 C          -5.6640  -19.4941   20.9591 C.ar    1  UNL1        0.0667
     22 CL         -6.5500  -20.3224   20.0766 Cl      1  UNL1       -0.0816
@<TRIPOS>BOND
     1    10    11    1
     2    11    12    1
     3    11     1    1
     4     1     2    2
     5     1     3   am
     6     3    13    1
     7    13    14    1
     8    14    15   ar
     9    15    16   ar
    10    16    17   ar
    11    17    18    1
    12    17    19   ar
    13    19    20    1
    14    19    21   ar
    15    21    22    1
    16     4     3    1
    17     4     5    1
    18     5     6    1
    19     6     7    1
    20     7     8    1
    21    21    14   ar
    22     8     4    1
    23     7     9    1
@<TRIPOS>MOLECULE
*****
 22 23 0 0 0
SMALL
GASTEIGER

@<TRIPOS>ATOM
      1 C         -10.0674  -17.7847   21.3445 C.2     1  UNL1        0.2254
      2 O         -11.0573  -16.6745   21.5380 O.2     1  UNL1       -0.2749
      3 N          -8.6137  -17.5518   21.6318 N.am    1  UNL1       -0.2756
      4 C          -7.6237  -18.6621   21.4383 C.3     1  UNL1        0.0927
      5 C          -7.2911  -19.7307   22.4371 C.3     1  UNL1        0.0383
      6 C          -6.2544  -20.6277   21.8282 C.3     1  UNL1        0.0704
      7 N          -5.9464  -20.1134   20.4531 N.3     1  UNL1       -0.2960
      8 C          -6.7926  -18.8986   20.2122 C.3     1  UNL1        0.0887
      9 H          -6.1627  -20.8291   19.7593 H       1  UNL1        0.1233
     10 C         -11.0670  -20.1306   21.8420 C.3     1  UNL1        0.0096
     11 C         -10.5311  -19.1278   20.8637 C.3     1  UNL1        0.0767
     12 C         -10.4588  -19.4680   19.4046 C.3     1  UNL1        0.0096
     13 C          -8.1499  -16.2088   22.1126 C.3     1  UNL1        0.1210
     14 C          -7.9420  -15.9677   23.5785 C.ar    1  UNL1        0.0091
     15 C          -9.1048  -16.0426   24.5232 C.ar    1  UNL1       -0.0009
     16 C          -8.8969  -15.8015   25.9890 C.ar    1  UNL1        0.0120
     17 C          -7.5263  -15.4855   26.5101 C.ar    1  UNL1        0.0690
     18 CL         -7.3184  -15.2444   27.9760 Cl      1  UNL1       -0.0813
     19 C          -6.3636  -15.4107   25.5655 C.ar    1  UNL1        0.0785
     20 CL         -4.9929  -15.0946   26.0866 Cl      1  UNL1       -0.0805
     21 C          -6.5714  -15.6517   24.0996 C.ar    1  UNL1        0.0667
     22 CL         -5.4087  -15.5768   23.1550 Cl      1  UNL1       -0.0816
@<TRIPOS>BOND
     1    10    11    1
     2    11    12    1
     3    11     1    1
     4     1     2    2
     5     1     3   am
     6     3    13    1
     7    13    14    1
     8    14    15   ar
     9    15    16   ar
    10    16    17   ar
    11    17    18    1
    12    17    19   ar
    13    19    20    1
    14    19    21   ar
    15    21    22    1
    16     4     3    1
    17     4     5    1
    18     5     6    1
    19     6     7    1
    20     7     8    1
    21    21    14   ar
    22     8     4    1
    23     7     9    1
@<TRIPOS>MOLECULE
*****
 22 23 0 0 0
SMALL
GASTEIGER

@<TRIPOS>ATOM
      1 C          -8.6965  -18.3143   21.5106 C.2     1  UNL1        0.2254
      2 O          -7.2756  -18.6216   21.8800 O.2     1  UNL1       -0.2749
      3 N          -9.2308  -16.9227   21.6781 N.am    1  UNL1       -0.2756
      4 C         -10.6518  -16.6154   21.3088 C.3     1  UNL1        0.0927
      5 C         -11.8321  -16.6583   22.2335 C.3     1  UNL1        0.0383
      6 C         -13.0518  -16.2806   21.4461 C.3     1  UNL1        0.0704
      7 N         -12.6251  -16.0043   20.0348 N.3     1  UNL1       -0.2960
      8 C         -11.1419  -16.2112   19.9499 C.3     1  UNL1        0.0887
      9 H         -12.8553  -15.0424   19.7856 H       1  UNL1        0.1233
     10 C          -9.5615  -19.7295   19.5108 C.3     1  UNL1        0.0096
     11 C          -9.5832  -19.3985   20.9737 C.3     1  UNL1        0.0767
     12 C         -10.4916  -20.1517   21.8996 C.3     1  UNL1        0.0096
     13 C          -8.3442  -15.8385   22.2150 C.3     1  UNL1        0.1210
     14 C          -8.0172  -15.7928   23.6783 C.ar    1  UNL1        0.0091
     15 C          -9.0812  -16.0867   24.6940 C.ar    1  UNL1       -0.0009
     16 C          -8.7543  -16.0410   26.1572 C.ar    1  UNL1        0.0120
     17 C          -7.3635  -15.7014   26.6047 C.ar    1  UNL1        0.0690
     18 CL         -7.0366  -15.6557   28.0680 Cl      1  UNL1       -0.0813
     19 C          -6.2996  -15.4075   25.5890 C.ar    1  UNL1        0.0785
     20 CL         -4.9087  -15.0678   26.0366 Cl      1  UNL1       -0.0805
     21 C          -6.6264  -15.4531   24.1258 C.ar    1  UNL1        0.0667
     22 CL         -5.5625  -15.1592   23.1101 Cl      1  UNL1       -0.0816
@<TRIPOS>BOND
     1    10    11    1
     2    11    12    1
     3    11     1    1
     4     1     2    2
     5     1     3   am
     6     3    13    1
     7    13    14    1
     8    14    15   ar
     9    15    16   ar
    10    16    17   ar
    11    17    18    1
    12    17    19   ar
    13    19    20    1
    14    19    21   ar
    15    21    22    1
    16     4     3    1
    17     4     5    1
    18     5     6    1
    19     6     7    1
    20     7     8    1
    21    21    14   ar
    22     8     4    1
    23     7     9    1
@<TRIPOS>MOLECULE
*****
 22 23 0 0 0
SMALL
GASTEIGER

@<TRIPOS>ATOM
      1 C          -9.4090  -18.0563   21.7552 C.2     1  UNL1        0.2254
      2 O          -9.5439  -19.2868   20.9081 O.2     1  UNL1       -0.2749
      3 N          -8.2166  -17.8886   22.6497 N.am    1  UNL1       -0.2756
      4 C          -8.0817  -16.6580   23.4968 C.3     1  UNL1        0.0927
      5 C          -8.6011  -16.4880   24.8938 C.3     1  UNL1        0.0383
      6 C          -8.2442  -15.1063   25.3560 C.3     1  UNL1        0.0704
      7 N          -7.5042  -14.4224   24.2448 N.3     1  UNL1       -0.2960
      8 C          -7.4039  -15.3814   23.0957 C.3     1  UNL1        0.0887
      9 H          -6.5701  -14.1613   24.5602 H       1  UNL1        0.1233
     10 C         -11.6664  -17.0889   22.6029 C.3     1  UNL1        0.0096
     11 C         -10.4665  -16.9934   21.7078 C.3     1  UNL1        0.0767
     12 C         -10.3240  -15.8352   20.7654 C.3     1  UNL1        0.0096
     13 C          -7.1592  -18.9513   22.6971 C.3     1  UNL1        0.1210
     14 C          -5.9579  -18.8545   21.8040 C.ar    1  UNL1        0.0091
     15 C          -6.0504  -19.2928   20.3725 C.ar    1  UNL1       -0.0009
     16 C          -4.8492  -19.1960   19.4794 C.ar    1  UNL1        0.0120
     17 C          -3.5555  -18.6609   20.0178 C.ar    1  UNL1        0.0690
     18 CL         -2.3542  -18.5640   19.1247 Cl      1  UNL1       -0.0813
     19 C          -3.4630  -18.2226   21.4494 C.ar    1  UNL1        0.0785
     20 CL         -2.1692  -17.6874   21.9878 Cl      1  UNL1       -0.0805
     21 C          -4.6642  -18.3194   22.3425 C.ar    1  UNL1        0.0667
     22 CL         -4.5717  -17.8811   23.7740 Cl      1  UNL1       -0.0816
@<TRIPOS>BOND
     1    10    11    1
     2    11    12    1
     3    11     1    1
     4     1     2    2
     5     1     3   am
     6     3    13    1
     7    13    14    1
     8    14    15   ar
     9    15    16   ar
    10    16    17   ar
    11    17    18    1
    12    17    19   ar
    13    19    20    1
    14    19    21   ar
    15    21    22    1
    16     4     3    1
    17     4     5    1
    18     5     6    1
    19     6     7    1
    20     7     8    1
    21    21    14   ar
    22     8     4    1
    23     7     9    1
@<TRIPOS>MOLECULE
*****
 22 23 0 0 0
SMALL
GASTEIGER

@<TRIPOS>ATOM
      1 C         -10.7592  -17.3442   21.2397 C.2     1  UNL1        0.2254
      2 O         -10.5691  -16.7352   19.8822 O.2     1  UNL1       -0.2749
      3 N          -9.6786  -18.1952   21.8380 N.am    1  UNL1       -0.2756
      4 C          -9.8688  -18.8041   23.1956 C.3     1  UNL1        0.0927
      5 C         -10.1928  -20.2409   23.4798 C.3     1  UNL1        0.0383
      6 C         -10.2926  -20.4080   24.9672 C.3     1  UNL1        0.0704
      7 N         -10.0302  -19.0745   25.6021 N.3     1  UNL1       -0.2960
      8 C          -9.7682  -18.0833   24.5072 C.3     1  UNL1        0.0887
      9 H          -9.2169  -19.1368   26.2146 H       1  UNL1        0.1233
     10 C         -12.2161  -15.8241   22.7619 C.3     1  UNL1        0.0096
     11 C         -12.0301  -17.1021   21.9990 C.3     1  UNL1        0.0767
     12 C         -13.1148  -18.1381   21.9955 C.3     1  UNL1        0.0096
     13 C          -8.4078  -18.4372   21.0788 C.3     1  UNL1        0.1210
     14 C          -7.0839  -18.3122   21.7729 C.ar    1  UNL1        0.0091
     15 C          -6.0848  -19.4279   21.6890 C.ar    1  UNL1       -0.0009
     16 C          -4.7610  -19.3030   22.3832 C.ar    1  UNL1        0.0120
     17 C          -4.4363  -18.0624   23.1612 C.ar    1  UNL1        0.0690
     18 CL         -3.1124  -17.9374   23.8554 Cl      1  UNL1       -0.0813
     19 C          -5.4354  -16.9467   23.2451 C.ar    1  UNL1        0.0785
     20 CL         -5.1107  -15.7060   24.0232 Cl      1  UNL1       -0.0805
     21 C          -6.7592  -17.0716   22.5510 C.ar    1  UNL1        0.0667
     22 CL         -7.7583  -15.9559   22.6349 Cl      1  UNL1       -0.0816
@<TRIPOS>BOND
     1    10    11    1
     2    11    12    1
     3    11     1    1
     4     1     2    2
     5     1     3   am
     6     3    13    1
     7    13    14    1
     8    14    15   ar
     9    15    16   ar
    10    16    17   ar
    11    17    18    1
    12    17    19   ar
    13    19    20    1
    14    19    21   ar
    15    21    22    1
    16     4     3    1
    17     4     5    1
    18     5     6    1
    19     6     7    1
    20     7     8    1
    21    21    14   ar
    22     8     4    1
    23     7     9    1
@<TRIPOS>MOLECULE
*****
 22 23 0 0 0
SMALL
GASTEIGER

@<TRIPOS>ATOM
      1 C          -7.4936  -17.0921   22.8621 C.2     1  UNL1        0.2254
      2 O          -6.2092  -16.5072   23.3701 O.2     1  UNL1       -0.2749
      3 N          -7.5328  -18.5128   22.3822 N.am    1  UNL1       -0.2756
      4 C          -8.8173  -19.0977   21.8742 C.3     1  UNL1        0.0927
      5 C          -9.2801  -19.1028   20.4474 C.3     1  UNL1        0.0383
      6 C         -10.6133  -19.7884   20.3952 C.3     1  UNL1        0.0704
      7 N         -10.9743  -20.2070   21.7897 N.3     1  UNL1       -0.2960
      8 C          -9.8642  -19.7801   22.7037 C.3     1  UNL1        0.0887
      9 H         -11.0849  -21.2202   21.8293 H       1  UNL1        0.1233
     10 C          -9.0654  -15.4376   21.6202 C.3     1  UNL1        0.0096
     11 C          -8.7390  -16.2564   22.8339 C.3     1  UNL1        0.0767
     12 C          -9.6578  -16.2395   24.0194 C.3     1  UNL1        0.0096
     13 C          -6.2875  -19.3485   22.4104 C.3     1  UNL1        0.1210
     14 C          -5.1393  -19.0143   21.5047 C.ar    1  UNL1        0.0091
     15 C          -5.2750  -19.1993   20.0223 C.ar    1  UNL1       -0.0009
     16 C          -4.1269  -18.8652   19.1167 C.ar    1  UNL1        0.0120
     17 C          -2.8432  -18.3462   19.6934 C.ar    1  UNL1        0.0690
     18 CL         -1.6951  -18.0120   18.7877 Cl      1  UNL1       -0.0813
     19 C          -2.7076  -18.1612   21.1757 C.ar    1  UNL1        0.0785
     20 CL         -1.4238  -17.6420   21.7524 Cl      1  UNL1       -0.0805
     21 C          -3.8556  -18.4953   22.0814 C.ar    1  UNL1        0.0667
     22 CL         -3.7200  -18.3103   23.5637 Cl      1  UNL1       -0.0816
@<TRIPOS>BOND
     1    10    11    1
     2    11    12    1
     3    11     1    1
     4     1     2    2
     5     1     3   am
     6     3    13    1
     7    13    14    1
     8    14    15   ar
     9    15    16   ar
    10    16    17   ar
    11    17    18    1
    12    17    19   ar
    13    19    20    1
    14    19    21   ar
    15    21    22    1
    16     4     3    1
    17     4     5    1
    18     5     6    1
    19     6     7    1
    20     7     8    1
    21    21    14   ar
    22     8     4    1
    23     7     9    1
