@<TRIPOS>MOLECULE
*****
 30 33 0 0 0
SMALL
GASTEIGER

@<TRIPOS>ATOM
      1 C          -4.1725  -18.6473   22.3500 C.ar    1  UNL1        0.0121
      2 C          -3.5724  -17.5581   23.1888 C.ar    1  UNL1       -0.0015
      3 C          -4.4427  -16.4637   23.7316 C.ar    1  UNL1       -0.0025
      4 C          -5.9132  -16.4586   23.4357 C.ar    1  UNL1        0.0051
      5 C          -6.5133  -17.5478   22.5970 C.ar    1  UNL1        0.0342
      6 C          -5.6429  -18.6422   22.0541 C.ar    1  UNL1        0.1343
      7 C          -3.3020  -19.7417   21.8071 C.3     1  UNL1        0.0353
      8 C          -2.8281  -19.6874   20.3851 C.3     1  UNL1        0.0465
      9 O          -2.6245  -17.2221   19.5906 O.co2   1  UNL1       -0.5492
     10 C          -1.9841  -18.5382   19.9192 C.2     1  UNL1        0.0507
     11 O          -0.4997  -18.7050   19.7819 O.co2   1  UNL1       -0.5492
     12 C          -6.7837  -15.3642   23.9786 C.3     1  UNL1        0.1539
     13 N          -7.1541  -15.3518   25.4321 N.ar    1  UNL1       -0.2449
     14 C          -6.1959  -15.3345   26.5860 C.ar    1  UNL1        0.0971
     15 C          -6.9972  -15.3265   27.8539 C.ar    1  UNL1        0.0427
     16 C          -8.4508  -15.3388   27.4836 C.ar    1  UNL1        0.1217
     17 N          -8.5477  -15.3545   25.9869 N.ar    1  UNL1       -0.1673
     18 O          -6.2431  -19.7314   21.2154 O.3     1  UNL1       -0.4754
     19 C          -6.8741  -19.4002   19.8956 C.3     1  UNL1        0.2100
     20 C          -8.2503  -19.9035   19.5749 C.3     1  UNL1        0.0736
     21 C          -9.4402  -19.3467   20.2990 C.ar    1  UNL1       -0.0184
     22 C         -10.4423  -18.5088   19.5616 C.ar    1  UNL1       -0.0041
     23 C         -11.6321  -17.9520   20.2857 C.ar    1  UNL1       -0.0003
     24 C         -11.8198  -18.2331   21.7471 C.ar    1  UNL1       -0.0000
     25 C         -13.0097  -17.6763   22.4711 C.ar    1  UNL1       -0.0000
     26 C         -13.1974  -17.9574   23.9325 C.ar    1  UNL1       -0.0000
     27 C         -12.1952  -18.7952   24.6699 C.ar    1  UNL1       -0.0000
     28 C         -11.0054  -19.3521   23.9459 C.ar    1  UNL1       -0.0000
     29 C         -10.8177  -19.0710   22.4845 C.ar    1  UNL1       -0.0003
     30 C          -9.6279  -19.6278   21.7604 C.ar    1  UNL1       -0.0041
@<TRIPOS>UNITY_ATOM_ATTR
9 1
charge -1
@<TRIPOS>BOND
     1     9    10   ar
     2    10    11   ar
     3    10     8    1
     4     8     7    1
     5     7     1    1
     6     1     2   ar
     7     2     3   ar
     8     3     4   ar
     9     4    12    1
    10    12    13    1
    11    13    14   ar
    12    14    15   ar
    13    15    16   ar
    14    16    17   ar
    15     4     5   ar
    16     5     6   ar
    17     6    18    1
    18    18    19    1
    19    19    20    1
    20    20    21    1
    21    21    22   ar
    22    22    23   ar
    23    23    24   ar
    24    24    25   ar
    25    25    26   ar
    26    26    27   ar
    27    27    28   ar
    28    28    29   ar
    29    29    30   ar
    30     6     1   ar
    31    30    21   ar
    32    17    13   ar
    33    29    24   ar
@<TRIPOS>MOLECULE
*****
 30 33 0 0 0
SMALL
GASTEIGER

@<TRIPOS>ATOM
      1 C          -9.8253  -19.7891   22.7001 C.ar    1  UNL1        0.0121
      2 C          -8.5324  -20.3786   23.1805 C.ar    1  UNL1       -0.0015
      3 C          -7.2786  -20.1904   22.3789 C.ar    1  UNL1       -0.0025
      4 C          -7.3178  -19.4128   21.0968 C.ar    1  UNL1        0.0051
      5 C          -8.6108  -18.8233   20.6164 C.ar    1  UNL1        0.0342
      6 C          -9.8645  -19.0114   21.4181 C.ar    1  UNL1        0.1343
      7 C         -11.0791  -19.9773   23.5018 C.3     1  UNL1        0.0353
      8 C         -11.5581  -18.8857   24.4123 C.3     1  UNL1        0.0465
      9 O         -13.6634  -18.0298   23.1533 O.co2   1  UNL1       -0.5492
     10 C         -13.0066  -18.4961   24.4187 C.2     1  UNL1        0.0507
     11 O         -13.7983  -18.5728   25.6905 O.co2   1  UNL1       -0.5492
     12 C          -6.0640  -19.2246   20.2951 C.3     1  UNL1        0.1539
     13 N          -4.7398  -19.1088   20.9900 N.ar    1  UNL1       -0.2449
     14 C          -3.5485  -19.9935   20.7704 C.ar    1  UNL1        0.0971
     15 C          -2.4468  -19.5194   21.6712 C.ar    1  UNL1        0.0427
     16 C          -2.9571  -18.3417   22.4475 C.ar    1  UNL1        0.1217
     17 N          -4.3742  -18.0879   22.0265 N.ar    1  UNL1       -0.1673
     18 O         -11.1575  -18.4220   20.9376 O.3     1  UNL1       -0.4754
     19 C         -11.3261  -16.9327   20.8771 C.3     1  UNL1        0.2100
     20 C         -11.2168  -16.1140   22.1292 C.3     1  UNL1        0.0736
     21 C          -9.8840  -15.9335   22.7934 C.ar    1  UNL1       -0.0184
     22 C          -8.6655  -15.6513   21.9653 C.ar    1  UNL1       -0.0041
     23 C          -7.3327  -15.4708   22.6294 C.ar    1  UNL1       -0.0003
     24 C          -7.2184  -15.5726   24.1216 C.ar    1  UNL1       -0.0000
     25 C          -5.8856  -15.3921   24.7857 C.ar    1  UNL1       -0.0000
     26 C          -5.7713  -15.4938   26.2779 C.ar    1  UNL1       -0.0000
     27 C          -6.9898  -15.7761   27.1059 C.ar    1  UNL1       -0.0000
     28 C          -8.3226  -15.9565   26.4418 C.ar    1  UNL1       -0.0000
     29 C          -8.4369  -15.8548   24.9497 C.ar    1  UNL1       -0.0003
     30 C          -9.7697  -16.0353   24.2855 C.ar    1  UNL1       -0.0041
@<TRIPOS>UNITY_ATOM_ATTR
9 1
charge -1
@<TRIPOS>BOND
     1     9    10   ar
     2    10    11   ar
     3    10     8    1
     4     8     7    1
     5     7     1    1
     6     1     2   ar
     7     2     3   ar
     8     3     4   ar
     9     4    12    1
    10    12    13    1
    11    13    14   ar
    12    14    15   ar
    13    15    16   ar
    14    16    17   ar
    15     4     5   ar
    16     5     6   ar
    17     6    18    1
    18    18    19    1
    19    19    20    1
    20    20    21    1
    21    21    22   ar
    22    22    23   ar
    23    23    24   ar
    24    24    25   ar
    25    25    26   ar
    26    26    27   ar
    27    27    28   ar
    28    28    29   ar
    29    29    30   ar
    30     6     1   ar
    31    30    21   ar
    32    17    13   ar
    33    29    24   ar
@<TRIPOS>MOLECULE
*****
 30 33 0 0 0
SMALL
GASTEIGER

@<TRIPOS>ATOM
      1 C          -9.3930  -19.4120   20.7072 C.ar    1  UNL1        0.0121
      2 C          -8.2986  -19.2432   19.6954 C.ar    1  UNL1       -0.0015
      3 C          -6.8631  -19.3279   20.1221 C.ar    1  UNL1       -0.0025
      4 C          -6.5221  -19.5815   21.5607 C.ar    1  UNL1        0.0051
      5 C          -7.6165  -19.7503   22.5724 C.ar    1  UNL1        0.0342
      6 C          -9.0520  -19.6655   22.1457 C.ar    1  UNL1        0.1343
      7 C         -10.8286  -19.3272   20.2803 C.3     1  UNL1        0.0353
      8 C         -11.2667  -18.2511   19.3317 C.3     1  UNL1        0.0465
      9 O         -10.5828  -15.7597   19.6059 O.co2   1  UNL1       -0.5492
     10 C         -11.5597  -16.8725   19.8451 C.2     1  UNL1        0.0507
     11 O         -12.8298  -16.6067   20.5977 O.co2   1  UNL1       -0.5492
     12 C          -5.0865  -19.6662   21.9875 C.3     1  UNL1        0.1539
     13 N          -4.0161  -19.0335   21.1486 N.ar    1  UNL1       -0.2449
     14 C          -3.4880  -19.5615   19.8478 C.ar    1  UNL1        0.0971
     15 C          -2.4313  -18.6160   19.3585 C.ar    1  UNL1        0.0427
     16 C          -2.3063  -17.5036   20.3570 C.ar    1  UNL1        0.1217
     17 N          -3.2858  -17.7616   21.4634 N.ar    1  UNL1       -0.1673
     18 O         -10.1465  -19.8343   23.1574 O.3     1  UNL1       -0.4754
     19 C         -11.3713  -18.9712   23.0884 C.3     1  UNL1        0.2100
     20 C         -11.2754  -17.5068   23.3988 C.3     1  UNL1        0.0736
     21 C          -9.9489  -16.8993   23.7470 C.ar    1  UNL1       -0.0184
     22 C          -9.0690  -16.3482   22.6644 C.ar    1  UNL1       -0.0041
     23 C          -7.7425  -15.7407   23.0126 C.ar    1  UNL1       -0.0003
     24 C          -7.2958  -15.6842   24.4435 C.ar    1  UNL1       -0.0000
     25 C          -5.9693  -15.0767   24.7917 C.ar    1  UNL1       -0.0000
     26 C          -5.5227  -15.0202   26.2225 C.ar    1  UNL1       -0.0000
     27 C          -6.4026  -15.5713   27.3051 C.ar    1  UNL1       -0.0000
     28 C          -7.7291  -16.1788   26.9569 C.ar    1  UNL1       -0.0000
     29 C          -8.1757  -16.2353   25.5261 C.ar    1  UNL1       -0.0003
     30 C          -9.5023  -16.8428   25.1779 C.ar    1  UNL1       -0.0041
@<TRIPOS>UNITY_ATOM_ATTR
9 1
charge -1
@<TRIPOS>BOND
     1     9    10   ar
     2    10    11   ar
     3    10     8    1
     4     8     7    1
     5     7     1    1
     6     1     2   ar
     7     2     3   ar
     8     3     4   ar
     9     4    12    1
    10    12    13    1
    11    13    14   ar
    12    14    15   ar
    13    15    16   ar
    14    16    17   ar
    15     4     5   ar
    16     5     6   ar
    17     6    18    1
    18    18    19    1
    19    19    20    1
    20    20    21    1
    21    21    22   ar
    22    22    23   ar
    23    23    24   ar
    24    24    25   ar
    25    25    26   ar
    26    26    27   ar
    27    27    28   ar
    28    28    29   ar
    29    29    30   ar
    30     6     1   ar
    31    30    21   ar
    32    17    13   ar
    33    29    24   ar
@<TRIPOS>MOLECULE
*****
 30 33 0 0 0
SMALL
GASTEIGER

@<TRIPOS>ATOM
      1 C         -10.6049  -18.5158   21.7588 C.ar    1  UNL1        0.0121
      2 C         -11.2686  -17.1818   21.9322 C.ar    1  UNL1       -0.0015
      3 C         -10.7736  -16.2283   22.9790 C.ar    1  UNL1       -0.0025
      4 C          -9.6150  -16.6089   23.8524 C.ar    1  UNL1        0.0051
      5 C          -8.9514  -17.9428   23.6790 C.ar    1  UNL1        0.0342
      6 C          -9.4464  -18.8963   22.6321 C.ar    1  UNL1        0.1343
      7 C         -11.0999  -19.4692   20.7118 C.3     1  UNL1        0.0353
      8 C         -10.6034  -19.3577   19.3009 C.3     1  UNL1        0.0465
      9 O          -8.9900  -21.0830   18.2191 O.co2   1  UNL1       -0.5492
     10 C          -9.2105  -19.7970   18.9591 C.2     1  UNL1        0.0507
     11 O          -8.0380  -18.9503   19.3572 O.co2   1  UNL1       -0.5492
     12 C          -9.1200  -15.6554   24.8993 C.3     1  UNL1        0.1539
     13 N          -7.6476  -15.5115   25.1468 N.ar    1  UNL1       -0.2449
     14 C          -6.9688  -15.5653   26.4833 C.ar    1  UNL1        0.0971
     15 C          -5.4972  -15.3757   26.2637 C.ar    1  UNL1        0.0427
     16 C          -5.2664  -15.2047   24.7914 C.ar    1  UNL1        0.1217
     17 N          -6.5955  -15.2887   24.1011 N.ar    1  UNL1       -0.1673
     18 O          -8.7827  -20.2303   22.4587 O.3     1  UNL1       -0.4754
     19 C          -7.3167  -20.3806   22.7382 C.3     1  UNL1        0.2100
     20 C          -6.3422  -20.4732   21.6016 C.3     1  UNL1        0.0736
     21 C          -5.1443  -19.5711   21.5655 C.ar    1  UNL1       -0.0184
     22 C          -4.8133  -18.7160   22.7526 C.ar    1  UNL1       -0.0041
     23 C          -3.6155  -17.8138   22.7164 C.ar    1  UNL1       -0.0003
     24 C          -2.7486  -17.7668   21.4932 C.ar    1  UNL1       -0.0000
     25 C          -1.5507  -16.8647   21.4570 C.ar    1  UNL1       -0.0000
     26 C          -0.6839  -16.8177   20.2338 C.ar    1  UNL1       -0.0000
     27 C          -1.0149  -17.6728   19.0467 C.ar    1  UNL1       -0.0000
     28 C          -2.2127  -18.5749   19.0828 C.ar    1  UNL1       -0.0000
     29 C          -3.0795  -18.6219   20.3061 C.ar    1  UNL1       -0.0003
     30 C          -4.2774  -19.5241   20.3422 C.ar    1  UNL1       -0.0041
@<TRIPOS>UNITY_ATOM_ATTR
9 1
charge -1
@<TRIPOS>BOND
     1     9    10   ar
     2    10    11   ar
     3    10     8    1
     4     8     7    1
     5     7     1    1
     6     1     2   ar
     7     2     3   ar
     8     3     4   ar
     9     4    12    1
    10    12    13    1
    11    13    14   ar
    12    14    15   ar
    13    15    16   ar
    14    16    17   ar
    15     4     5   ar
    16     5     6   ar
    17     6    18    1
    18    18    19    1
    19    19    20    1
    20    20    21    1
    21    21    22   ar
    22    22    23   ar
    23    23    24   ar
    24    24    25   ar
    25    25    26   ar
    26    26    27   ar
    27    27    28   ar
    28    28    29   ar
    29    29    30   ar
    30     6     1   ar
    31    30    21   ar
    32    17    13   ar
    33    29    24   ar
@<TRIPOS>MOLECULE
*****
 30 33 0 0 0
SMALL
GASTEIGER

@<TRIPOS>ATOM
      1 C          -6.6902  -18.5171   21.8696 C.ar    1  UNL1        0.0121
      2 C          -5.6171  -18.5277   22.9177 C.ar    1  UNL1       -0.0015
      3 C          -4.2180  -18.9284   22.5545 C.ar    1  UNL1       -0.0025
      4 C          -3.8920  -19.3184   21.1433 C.ar    1  UNL1        0.0051
      5 C          -4.9651  -19.3078   20.0953 C.ar    1  UNL1        0.0342
      6 C          -6.3642  -18.9071   20.4584 C.ar    1  UNL1        0.1343
      7 C          -8.0894  -18.1164   22.2328 C.3     1  UNL1        0.0353
      8 C          -8.3208  -17.0453   23.2571 C.3     1  UNL1        0.0465
      9 O          -7.8461  -15.1436   21.5517 O.co2   1  UNL1       -0.5492
     10 C          -7.9124  -15.6311   22.9687 C.2     1  UNL1        0.0507
     11 O          -7.5703  -14.7042   24.0975 O.co2   1  UNL1       -0.5492
     12 C          -2.4928  -19.7191   20.7801 C.3     1  UNL1        0.1539
     13 N          -1.4631  -18.6678   20.4896 N.ar    1  UNL1       -0.2449
     14 C          -1.6070  -17.1974   20.7485 C.ar    1  UNL1        0.0971
     15 C          -0.3415  -16.5232   20.3081 C.ar    1  UNL1        0.0427
     16 C           0.5845  -17.5770   19.7769 C.ar    1  UNL1        0.1217
     17 N          -0.1087  -18.9024   19.8891 N.ar    1  UNL1       -0.1673
     18 O          -7.4372  -18.8964   19.4103 O.3     1  UNL1       -0.4754
     19 C          -8.1619  -20.1638   19.0660 C.3     1  UNL1        0.2100
     20 C          -9.6555  -20.1598   18.9276 C.3     1  UNL1        0.0736
     21 C         -10.4966  -19.3856   19.8988 C.ar    1  UNL1       -0.0184
     22 C         -11.1641  -18.1141   19.4655 C.ar    1  UNL1       -0.0041
     23 C         -12.0052  -17.3398   20.4365 C.ar    1  UNL1       -0.0003
     24 C         -12.1789  -17.8371   21.8411 C.ar    1  UNL1       -0.0000
     25 C         -13.0200  -17.0628   22.8122 C.ar    1  UNL1       -0.0000
     26 C         -13.1936  -17.5601   24.2166 C.ar    1  UNL1       -0.0000
     27 C         -12.5262  -18.8316   24.6500 C.ar    1  UNL1       -0.0000
     28 C         -11.6851  -19.6058   23.6789 C.ar    1  UNL1       -0.0000
     29 C         -11.5114  -19.1086   22.2744 C.ar    1  UNL1       -0.0003
     30 C         -10.6703  -19.8828   21.3033 C.ar    1  UNL1       -0.0041
@<TRIPOS>UNITY_ATOM_ATTR
9 1
charge -1
@<TRIPOS>BOND
     1     9    10   ar
     2    10    11   ar
     3    10     8    1
     4     8     7    1
     5     7     1    1
     6     1     2   ar
     7     2     3   ar
     8     3     4   ar
     9     4    12    1
    10    12    13    1
    11    13    14   ar
    12    14    15   ar
    13    15    16   ar
    14    16    17   ar
    15     4     5   ar
    16     5     6   ar
    17     6    18    1
    18    18    19    1
    19    19    20    1
    20    20    21    1
    21    21    22   ar
    22    22    23   ar
    23    23    24   ar
    24    24    25   ar
    25    25    26   ar
    26    26    27   ar
    27    27    28   ar
    28    28    29   ar
    29    29    30   ar
    30     6     1   ar
    31    30    21   ar
    32    17    13   ar
    33    29    24   ar
@<TRIPOS>MOLECULE
*****
 30 33 0 0 0
SMALL
GASTEIGER

@<TRIPOS>ATOM
      1 C          -3.9240  -19.4428   21.5521 C.ar    1  UNL1        0.0121
      2 C          -4.5254  -20.2868   20.4677 C.ar    1  UNL1       -0.0015
      3 C          -6.0104  -20.2894   20.2558 C.ar    1  UNL1       -0.0025
      4 C          -6.8939  -19.4480   21.1284 C.ar    1  UNL1        0.0051
      5 C          -6.2924  -18.6040   22.2128 C.ar    1  UNL1        0.0342
      6 C          -4.8075  -18.6014   22.4247 C.ar    1  UNL1        0.1343
      7 C          -2.4390  -19.4402   21.7639 C.3     1  UNL1        0.0353
      8 C          -1.6045  -18.3229   21.2115 C.3     1  UNL1        0.0465
      9 O          -1.7985  -18.3275   18.6207 O.co2   1  UNL1       -0.5492
     10 C          -0.9659  -18.4606   19.8613 C.2     1  UNL1        0.0507
     11 O           0.5054  -18.7313   19.7516 O.co2   1  UNL1       -0.5492
     12 C          -8.3789  -19.4505   20.9166 C.3     1  UNL1        0.1539
     13 N          -9.3012  -19.6935   22.0743 N.ar    1  UNL1       -0.2449
     14 C         -10.7921  -19.8397   21.9982 C.ar    1  UNL1        0.0971
     15 C         -11.3069  -20.0694   23.3882 C.ar    1  UNL1        0.0427
     16 C         -10.1341  -20.0651   24.3235 C.ar    1  UNL1        0.1217
     17 N          -8.8945  -19.8328   23.5114 N.ar    1  UNL1       -0.1673
     18 O          -4.2061  -17.7574   23.5091 O.3     1  UNL1       -0.4754
     19 C          -4.3580  -16.2657   23.4697 C.3     1  UNL1        0.2100
     20 C          -5.3576  -15.5898   24.3607 C.3     1  UNL1        0.0736
     21 C          -6.8252  -15.8181   24.1500 C.ar    1  UNL1       -0.0184
     22 C          -7.7048  -16.1659   25.3141 C.ar    1  UNL1       -0.0041
     23 C          -9.1722  -16.3942   25.1035 C.ar    1  UNL1       -0.0003
     24 C          -9.7601  -16.2746   23.7286 C.ar    1  UNL1       -0.0000
     25 C         -11.2276  -16.5029   23.5180 C.ar    1  UNL1       -0.0000
     26 C         -11.8154  -16.3833   22.1432 C.ar    1  UNL1       -0.0000
     27 C         -10.9358  -16.0354   20.9790 C.ar    1  UNL1       -0.0000
     28 C          -9.4683  -15.8071   21.1897 C.ar    1  UNL1       -0.0000
     29 C          -8.8805  -15.9267   22.5645 C.ar    1  UNL1       -0.0003
     30 C          -7.4130  -15.6984   22.7752 C.ar    1  UNL1       -0.0041
@<TRIPOS>UNITY_ATOM_ATTR
9 1
charge -1
@<TRIPOS>BOND
     1     9    10   ar
     2    10    11   ar
     3    10     8    1
     4     8     7    1
     5     7     1    1
     6     1     2   ar
     7     2     3   ar
     8     3     4   ar
     9     4    12    1
    10    12    13    1
    11    13    14   ar
    12    14    15   ar
    13    15    16   ar
    14    16    17   ar
    15     4     5   ar
    16     5     6   ar
    17     6    18    1
    18    18    19    1
    19    19    20    1
    20    20    21    1
    21    21    22   ar
    22    22    23   ar
    23    23    24   ar
    24    24    25   ar
    25    25    26   ar
    26    26    27   ar
    27    27    28   ar
    28    28    29   ar
    29    29    30   ar
    30     6     1   ar
    31    30    21   ar
    32    17    13   ar
    33    29    24   ar
@<TRIPOS>MOLECULE
*****
 30 33 0 0 0
SMALL
GASTEIGER

@<TRIPOS>ATOM
      1 C          -4.8071  -19.4014   20.5144 C.ar    1  UNL1        0.0121
      2 C          -5.9081  -19.3856   19.4957 C.ar    1  UNL1       -0.0015
      3 C          -7.3408  -19.3931   19.9397 C.ar    1  UNL1       -0.0025
      4 C          -7.6726  -19.4164   21.4024 C.ar    1  UNL1        0.0051
      5 C          -6.5716  -19.4322   22.4210 C.ar    1  UNL1        0.0342
      6 C          -5.1389  -19.4246   21.9770 C.ar    1  UNL1        0.1343
      7 C          -3.3743  -19.3938   20.0703 C.3     1  UNL1        0.0353
      8 C          -2.7539  -18.1271   19.5600 C.3     1  UNL1        0.0465
      9 O          -0.2138  -18.6485   19.7204 O.co2   1  UNL1       -0.5492
     10 C          -1.3733  -17.7385   19.9989 C.2     1  UNL1        0.0507
     11 O          -1.1520  -16.4398   20.7162 O.co2   1  UNL1       -0.5492
     12 C          -9.1054  -19.4239   21.8464 C.3     1  UNL1        0.1539
     13 N          -9.8792  -18.1403   21.9050 N.ar    1  UNL1       -0.2449
     14 C         -10.6727  -17.6419   23.0762 C.ar    1  UNL1        0.0971
     15 C         -11.2793  -16.3232   22.6977 C.ar    1  UNL1        0.0427
     16 C         -10.8606  -16.0067   21.2925 C.ar    1  UNL1        0.1217
     17 N          -9.9953  -17.1297   20.8026 N.ar    1  UNL1       -0.1673
     18 O          -4.0379  -19.4404   22.9956 O.3     1  UNL1       -0.4754
     19 C          -3.2125  -18.2095   23.2270 C.3     1  UNL1        0.2100
     20 C          -3.8019  -16.8532   22.9763 C.3     1  UNL1        0.0736
     21 C          -5.0593  -16.4397   23.6822 C.ar    1  UNL1       -0.0184
     22 C          -6.3369  -16.2878   22.9112 C.ar    1  UNL1       -0.0041
     23 C          -7.5942  -15.8743   23.6170 C.ar    1  UNL1       -0.0003
     24 C          -7.5739  -15.6128   25.0939 C.ar    1  UNL1       -0.0000
     25 C          -8.8312  -15.1993   25.7997 C.ar    1  UNL1       -0.0000
     26 C          -8.8108  -14.9378   27.2766 C.ar    1  UNL1       -0.0000
     27 C          -7.5332  -15.0898   28.0476 C.ar    1  UNL1       -0.0000
     28 C          -6.2759  -15.5032   27.3418 C.ar    1  UNL1       -0.0000
     29 C          -6.2963  -15.7647   25.8650 C.ar    1  UNL1       -0.0003
     30 C          -5.0389  -16.1782   25.1591 C.ar    1  UNL1       -0.0041
@<TRIPOS>UNITY_ATOM_ATTR
9 1
charge -1
@<TRIPOS>BOND
     1     9    10   ar
     2    10    11   ar
     3    10     8    1
     4     8     7    1
     5     7     1    1
     6     1     2   ar
     7     2     3   ar
     8     3     4   ar
     9     4    12    1
    10    12    13    1
    11    13    14   ar
    12    14    15   ar
    13    15    16   ar
    14    16    17   ar
    15     4     5   ar
    16     5     6   ar
    17     6    18    1
    18    18    19    1
    19    19    20    1
    20    20    21    1
    21    21    22   ar
    22    22    23   ar
    23    23    24   ar
    24    24    25   ar
    25    25    26   ar
    26    26    27   ar
    27    27    28   ar
    28    28    29   ar
    29    29    30   ar
    30     6     1   ar
    31    30    21   ar
    32    17    13   ar
    33    29    24   ar
@<TRIPOS>MOLECULE
*****
 30 33 0 0 0
SMALL
GASTEIGER

@<TRIPOS>ATOM
      1 C          -9.1848  -17.7482   24.8654 C.ar    1  UNL1        0.0121
      2 C          -9.7497  -19.0831   24.4794 C.ar    1  UNL1       -0.0015
      3 C          -9.4559  -19.6589   23.1259 C.ar    1  UNL1       -0.0025
      4 C          -8.5971  -18.8998   22.1584 C.ar    1  UNL1        0.0051
      5 C          -8.0322  -17.5649   22.5443 C.ar    1  UNL1        0.0342
      6 C          -8.3261  -16.9891   23.8979 C.ar    1  UNL1        0.1343
      7 C          -9.4787  -17.1725   26.2190 C.3     1  UNL1        0.0353
      8 C          -8.3649  -16.9567   27.2002 C.3     1  UNL1        0.0465
      9 O          -6.4147  -15.2485   27.3693 O.co2   1  UNL1       -0.5492
     10 C          -7.8757  -15.5679   27.4859 C.2     1  UNL1        0.0507
     11 O          -8.8474  -14.4983   27.8882 O.co2   1  UNL1       -0.5492
     12 C          -8.3032  -19.4755   20.8047 C.3     1  UNL1        0.1539
     13 N          -6.8825  -19.6521   20.3572 N.ar    1  UNL1       -0.2449
     14 C          -6.0698  -20.9071   20.4773 C.ar    1  UNL1        0.0971
     15 C          -4.7101  -20.6353   19.9053 C.ar    1  UNL1        0.0427
     16 C          -4.6824  -19.2123   19.4316 C.ar    1  UNL1        0.1217
     17 N          -6.0250  -18.6047   19.7109 N.ar    1  UNL1       -0.1673
     18 O          -7.7611  -15.6543   24.2839 O.3     1  UNL1       -0.4754
     19 C          -6.5235  -15.1404   23.6100 C.3     1  UNL1        0.2100
     20 C          -5.1714  -15.4878   24.1588 C.3     1  UNL1        0.0736
     21 C          -4.2793  -16.4344   23.4117 C.ar    1  UNL1       -0.0184
     22 C          -4.4442  -17.9152   23.5853 C.ar    1  UNL1       -0.0041
     23 C          -3.5521  -18.8618   22.8383 C.ar    1  UNL1       -0.0003
     24 C          -2.4952  -18.3277   21.9175 C.ar    1  UNL1       -0.0000
     25 C          -1.6032  -19.2743   21.1705 C.ar    1  UNL1       -0.0000
     26 C          -0.5463  -18.7401   20.2498 C.ar    1  UNL1       -0.0000
     27 C          -0.3815  -17.2594   20.0762 C.ar    1  UNL1       -0.0000
     28 C          -1.2735  -16.3127   20.8233 C.ar    1  UNL1       -0.0000
     29 C          -2.3304  -16.8469   21.7439 C.ar    1  UNL1       -0.0003
     30 C          -3.2225  -15.9003   22.4910 C.ar    1  UNL1       -0.0041
@<TRIPOS>UNITY_ATOM_ATTR
9 1
charge -1
@<TRIPOS>BOND
     1     9    10   ar
     2    10    11   ar
     3    10     8    1
     4     8     7    1
     5     7     1    1
     6     1     2   ar
     7     2     3   ar
     8     3     4   ar
     9     4    12    1
    10    12    13    1
    11    13    14   ar
    12    14    15   ar
    13    15    16   ar
    14    16    17   ar
    15     4     5   ar
    16     5     6   ar
    17     6    18    1
    18    18    19    1
    19    19    20    1
    20    20    21    1
    21    21    22   ar
    22    22    23   ar
    23    23    24   ar
    24    24    25   ar
    25    25    26   ar
    26    26    27   ar
    27    27    28   ar
    28    28    29   ar
    29    29    30   ar
    30     6     1   ar
    31    30    21   ar
    32    17    13   ar
    33    29    24   ar
@<TRIPOS>MOLECULE
*****
 30 33 0 0 0
SMALL
GASTEIGER

@<TRIPOS>ATOM
      1 C          -6.6880  -17.2498   23.2884 C.ar    1  UNL1        0.0121
      2 C          -5.6027  -16.3019   23.7054 C.ar    1  UNL1       -0.0015
      3 C          -4.1656  -16.6495   23.4530 C.ar    1  UNL1       -0.0025
      4 C          -3.8137  -17.9449   22.7836 C.ar    1  UNL1        0.0051
      5 C          -4.8989  -18.8927   22.3667 C.ar    1  UNL1        0.0342
      6 C          -6.3361  -18.5452   22.6191 C.ar    1  UNL1        0.1343
      7 C          -8.1252  -16.9022   23.5409 C.3     1  UNL1        0.0353
      8 C          -8.4799  -15.9017   24.6007 C.3     1  UNL1        0.0465
      9 O          -8.3792  -15.3575   27.1391 O.co2   1  UNL1       -0.5492
     10 C          -8.6152  -16.3386   26.0292 C.2     1  UNL1        0.0507
     11 O          -8.9866  -17.7565   26.3479 O.co2   1  UNL1       -0.5492
     12 C          -2.3764  -18.2925   22.5312 C.3     1  UNL1        0.1539
     13 N          -1.8037  -18.1589   21.1513 N.ar    1  UNL1       -0.2449
     14 C          -2.5637  -17.7837   19.9138 C.ar    1  UNL1        0.0971
     15 C          -1.6002  -17.7699   18.7643 C.ar    1  UNL1        0.0427
     16 C          -0.2445  -18.1367   19.2915 C.ar    1  UNL1        0.1217
     17 N          -0.3704  -18.3771   20.7667 N.ar    1  UNL1       -0.1673
     18 O          -7.4213  -19.4930   22.2021 O.3     1  UNL1       -0.4754
     19 C          -7.9257  -20.5261   23.1655 C.3     1  UNL1        0.2100
     20 C          -9.3518  -20.4866   23.6290 C.3     1  UNL1        0.0736
     21 C         -10.2828  -19.4350   23.1021 C.ar    1  UNL1       -0.0184
     22 C         -11.3802  -18.9001   23.9735 C.ar    1  UNL1       -0.0041
     23 C         -12.3112  -17.8486   23.4467 C.ar    1  UNL1       -0.0003
     24 C         -12.1447  -17.3319   22.0483 C.ar    1  UNL1       -0.0000
     25 C         -13.0756  -16.2804   21.5215 C.ar    1  UNL1       -0.0000
     26 C         -12.9091  -15.7637   20.1232 C.ar    1  UNL1       -0.0000
     27 C         -11.8116  -16.2986   19.2517 C.ar    1  UNL1       -0.0000
     28 C         -10.8807  -17.3501   19.7786 C.ar    1  UNL1       -0.0000
     29 C         -11.0472  -17.8668   21.1769 C.ar    1  UNL1       -0.0003
     30 C         -10.1163  -18.9184   21.7038 C.ar    1  UNL1       -0.0041
@<TRIPOS>UNITY_ATOM_ATTR
9 1
charge -1
@<TRIPOS>BOND
     1     9    10   ar
     2    10    11   ar
     3    10     8    1
     4     8     7    1
     5     7     1    1
     6     1     2   ar
     7     2     3   ar
     8     3     4   ar
     9     4    12    1
    10    12    13    1
    11    13    14   ar
    12    14    15   ar
    13    15    16   ar
    14    16    17   ar
    15     4     5   ar
    16     5     6   ar
    17     6    18    1
    18    18    19    1
    19    19    20    1
    20    20    21    1
    21    21    22   ar
    22    22    23   ar
    23    23    24   ar
    24    24    25   ar
    25    25    26   ar
    26    26    27   ar
    27    27    28   ar
    28    28    29   ar
    29    29    30   ar
    30     6     1   ar
    31    30    21   ar
    32    17    13   ar
    33    29    24   ar
