@<TRIPOS>MOLECULE
*****
 30 33 0 0 0
SMALL
GASTEIGER

@<TRIPOS>ATOM
      1 C           4.1793   -1.5808   22.0353 C.3     1  UNL1        0.0061
      2 C           3.1053   -1.0542   21.1302 C.3     1  UNL1        0.0373
      3 C           2.3059   -0.8106   19.8846 C.3     1  UNL1        0.0075
      4 C           1.0890    0.0650   19.9336 C.3     1  UNL1        0.0219
      5 C           0.6716    0.6972   21.2283 C.3     1  UNL1        0.0950
      6 N           1.4710    0.4536   22.4739 N.am    1  UNL1       -0.2639
      7 C           1.0536    1.0858   23.7686 C.2     1  UNL1        0.3042
      8 O           1.8531    0.8422   25.0142 O.2     1  UNL1       -0.2526
      9 N          -0.1632    1.9614   23.8177 N.am    1  UNL1       -0.2847
     10 C           2.6879   -0.4220   22.4249 C.3     1  UNL1        0.0989
     11 H          -0.6880    2.1213   23.0002 H       1  UNL1        0.1513
     12 C           3.8958   -1.8692   20.1498 C.ar    1  UNL1       -0.0212
     13 C           5.0316   -1.2424   19.3969 C.ar    1  UNL1       -0.0042
     14 C           5.8219   -2.0575   18.4166 C.ar    1  UNL1       -0.0003
     15 C           5.4765   -3.4993   18.1893 C.ar    1  UNL1       -0.0000
     16 C           4.3406   -4.1261   18.9422 C.ar    1  UNL1       -0.0003
     17 C           3.5503   -3.3111   19.9225 C.ar    1  UNL1       -0.0042
     18 C          -0.5806    2.5935   25.1124 C.3     1  UNL1        0.1177
     19 C          -1.9246    3.2497   25.2277 C.ar    1  UNL1       -0.0025
     20 C          -2.5133    3.5207   26.5805 C.ar    1  UNL1       -0.0026
     21 C          -3.8573    4.1768   26.6957 C.ar    1  UNL1        0.0012
     22 C          -4.6125    4.5619   25.4583 C.ar    1  UNL1        0.0176
     23 C          -4.0237    4.2908   24.1055 C.ar    1  UNL1        0.0012
     24 C          -2.6798    3.6347   23.9903 C.ar    1  UNL1       -0.0026
     25 C          -5.9565    5.2180   25.5735 C.ar    1  UNL1        0.0813
     26 C          -6.9010    5.2023   24.4083 C.ar    1  UNL1        0.0191
     27 C          -8.2449    5.8584   24.5235 C.ar    1  UNL1        0.0031
     28 C          -8.6444    6.5301   25.8037 C.ar    1  UNL1        0.0207
     29 C          -7.6999    6.5459   26.9690 C.ar    1  UNL1        0.0988
     30 N          -6.3559    5.8898   26.8537 N.ar    1  UNL1       -0.2438
@<TRIPOS>BOND
     1     1     2    1
     2     2    12    1
     3    12    13   ar
     4    13    14   ar
     5    14    15   ar
     6    15    16   ar
     7    16    17   ar
     8     2     3    1
     9     3     4    1
    10     4     5    1
    11     5     6    1
    12     6     7   am
    13     7     8    2
    14     7     9   am
    15     9    18    1
    16    18    19    1
    17    19    20   ar
    18    20    21   ar
    19    21    22   ar
    20    22    25    1
    21    25    26   ar
    22    26    27   ar
    23    27    28   ar
    24    28    29   ar
    25    29    30   ar
    26    22    23   ar
    27    23    24   ar
    28     6    10    1
    29    10     2    1
    30    17    12   ar
    31    24    19   ar
    32    30    25   ar
    33     9    11    1
@<TRIPOS>MOLECULE
*****
 30 33 0 0 0
SMALL
GASTEIGER

@<TRIPOS>ATOM
      1 C          -6.1994    5.2023   21.7167 C.3     1  UNL1        0.0061
      2 C          -5.2342    4.7663   22.7789 C.3     1  UNL1        0.0373
      3 C          -4.6647    4.4915   24.1390 C.3     1  UNL1        0.0075
      4 C          -3.2910    3.9040   24.2723 C.3     1  UNL1        0.0219
      5 C          -2.4868    3.5912   23.0452 C.3     1  UNL1        0.0950
      6 N          -3.0563    3.8660   21.6851 N.am    1  UNL1       -0.2639
      7 C          -2.2521    3.5533   20.4580 C.2     1  UNL1        0.3042
      8 O          -2.8217    3.8281   19.0979 O.2     1  UNL1       -0.2526
      9 N          -0.8784    2.9658   20.5913 N.am    1  UNL1       -0.2847
     10 C          -4.4300    4.4535   21.5518 C.3     1  UNL1        0.0989
     11 H          -0.5046    2.7854   21.4840 H       1  UNL1        0.1513
     12 C          -6.3736    5.2304   23.6370 C.ar    1  UNL1       -0.0212
     13 C          -6.1554    6.3128   24.6523 C.ar    1  UNL1       -0.0042
     14 C          -7.2949    6.7769   25.5103 C.ar    1  UNL1       -0.0003
     15 C          -8.6525    6.1587   25.3531 C.ar    1  UNL1       -0.0000
     16 C          -8.8706    5.0763   24.3378 C.ar    1  UNL1       -0.0003
     17 C          -7.7312    4.6122   23.4797 C.ar    1  UNL1       -0.0042
     18 C          -0.0743    2.6531   19.3642 C.3     1  UNL1        0.1177
     19 C           0.8692    1.4869   19.3630 C.ar    1  UNL1       -0.0025
     20 C           2.1460    1.5560   18.5786 C.ar    1  UNL1       -0.0026
     21 C           3.0895    0.3899   18.5774 C.ar    1  UNL1        0.0012
     22 C           2.7562   -0.8453   19.3604 C.ar    1  UNL1        0.0176
     23 C           1.4794   -0.9144   20.1447 C.ar    1  UNL1        0.0012
     24 C           0.5360    0.2517   20.1459 C.ar    1  UNL1       -0.0026
     25 C           3.6997   -2.0114   19.3592 C.ar    1  UNL1        0.0813
     26 C           3.1616   -3.4114   19.3322 C.ar    1  UNL1        0.0191
     27 C           4.1050   -4.5775   19.3310 C.ar    1  UNL1        0.0031
     28 C           5.5864   -4.3439   19.3567 C.ar    1  UNL1        0.0207
     29 C           6.1245   -2.9439   19.3837 C.ar    1  UNL1        0.0988
     30 N           5.1811   -1.7778   19.3849 N.ar    1  UNL1       -0.2438
@<TRIPOS>BOND
     1     1     2    1
     2     2    12    1
     3    12    13   ar
     4    13    14   ar
     5    14    15   ar
     6    15    16   ar
     7    16    17   ar
     8     2     3    1
     9     3     4    1
    10     4     5    1
    11     5     6    1
    12     6     7   am
    13     7     8    2
    14     7     9   am
    15     9    18    1
    16    18    19    1
    17    19    20   ar
    18    20    21   ar
    19    21    22   ar
    20    22    25    1
    21    25    26   ar
    22    26    27   ar
    23    27    28   ar
    24    28    29   ar
    25    29    30   ar
    26    22    23   ar
    27    23    24   ar
    28     6    10    1
    29    10     2    1
    30    17    12   ar
    31    24    19   ar
    32    30    25   ar
    33     9    11    1
@<TRIPOS>MOLECULE
*****
 30 33 0 0 0
SMALL
GASTEIGER

@<TRIPOS>ATOM
      1 C           8.2152   -4.0648   27.9334 C.3     1  UNL1        0.0061
      2 C           8.1450   -5.4274   27.3100 C.3     1  UNL1        0.0373
      3 C           8.0883   -6.9215   27.1905 C.3     1  UNL1        0.0075
      4 C           8.0169   -7.5635   25.8367 C.3     1  UNL1        0.0219
      5 C           8.0022   -6.7112   24.6024 C.3     1  UNL1        0.0950
      6 N           8.0589   -5.2171   24.7219 N.am    1  UNL1       -0.2639
      7 C           8.0442   -4.3649   23.4876 C.2     1  UNL1        0.3042
      8 O           8.1008   -2.8707   23.6071 O.2     1  UNL1       -0.2526
      9 N           7.9728   -5.0068   22.1338 N.am    1  UNL1       -0.2847
     10 C           8.1303   -4.5751   26.0757 C.3     1  UNL1        0.0989
     11 H           7.9356   -5.9875   22.0553 H       1  UNL1        0.1513
     12 C           8.1841   -5.8064   28.7609 C.ar    1  UNL1       -0.0212
     13 C           7.0476   -5.4310   29.6650 C.ar    1  UNL1       -0.0042
     14 C           7.0868   -5.8100   31.1158 C.ar    1  UNL1       -0.0003
     15 C           8.2624   -6.5644   31.6624 C.ar    1  UNL1       -0.0000
     16 C           9.3989   -6.9398   30.7583 C.ar    1  UNL1       -0.0003
     17 C           9.3597   -6.5608   29.3075 C.ar    1  UNL1       -0.0042
     18 C           7.9581   -4.1546   20.8995 C.3     1  UNL1        0.1177
     19 C           6.7657   -3.2969   20.5945 C.ar    1  UNL1       -0.0025
     20 C           6.9098   -1.8048   20.5382 C.ar    1  UNL1       -0.0026
     21 C           5.7175   -0.9473   20.2332 C.ar    1  UNL1        0.0012
     22 C           4.3812   -1.5817   19.9846 C.ar    1  UNL1        0.0176
     23 C           4.2372   -3.0737   20.0410 C.ar    1  UNL1        0.0012
     24 C           5.4295   -3.9313   20.3460 C.ar    1  UNL1       -0.0026
     25 C           3.1889   -0.7241   19.6797 C.ar    1  UNL1        0.0813
     26 C           1.8987   -0.9459   20.4119 C.ar    1  UNL1        0.0191
     27 C           0.7064   -0.0884   20.1069 C.ar    1  UNL1        0.0031
     28 C           0.8042    0.9909   19.0699 C.ar    1  UNL1        0.0207
     29 C           2.0944    1.2127   18.3376 C.ar    1  UNL1        0.0988
     30 N           3.2867    0.3551   18.6426 N.ar    1  UNL1       -0.2438
@<TRIPOS>BOND
     1     1     2    1
     2     2    12    1
     3    12    13   ar
     4    13    14   ar
     5    14    15   ar
     6    15    16   ar
     7    16    17   ar
     8     2     3    1
     9     3     4    1
    10     4     5    1
    11     5     6    1
    12     6     7   am
    13     7     8    2
    14     7     9   am
    15     9    18    1
    16    18    19    1
    17    19    20   ar
    18    20    21   ar
    19    21    22   ar
    20    22    25    1
    21    25    26   ar
    22    26    27   ar
    23    27    28   ar
    24    28    29   ar
    25    29    30   ar
    26    22    23   ar
    27    23    24   ar
    28     6    10    1
    29    10     2    1
    30    17    12   ar
    31    24    19   ar
    32    30    25   ar
    33     9    11    1
@<TRIPOS>MOLECULE
*****
 30 33 0 0 0
SMALL
GASTEIGER

@<TRIPOS>ATOM
      1 C           2.5895   -0.5436   20.4582 C.3     1  UNL1        0.0061
      2 C           3.3524   -1.1077   21.6200 C.3     1  UNL1        0.0373
      3 C           4.3582   -1.9123   22.3886 C.3     1  UNL1        0.0075
      4 C           4.3996   -1.8286   23.8857 C.3     1  UNL1        0.0219
      5 C           3.4351   -0.9403   24.6141 C.3     1  UNL1        0.0950
      6 N           2.4292   -0.1357   23.8455 N.am    1  UNL1       -0.2639
      7 C           1.4647    0.7526   24.5739 C.2     1  UNL1        0.3042
      8 O           0.4589    1.5572   23.8052 O.2     1  UNL1       -0.2526
      9 N           1.5060    0.8363   26.0710 N.am    1  UNL1       -0.2847
     10 C           2.3879   -0.2194   22.3484 C.3     1  UNL1        0.0989
     11 H           2.1662    0.3082   26.5756 H       1  UNL1        0.1513
     12 C           4.0520   -1.8001   20.4880 C.ar    1  UNL1       -0.0212
     13 C           5.1293   -1.0885   19.7247 C.ar    1  UNL1       -0.0042
     14 C           5.8288   -1.7809   18.5928 C.ar    1  UNL1       -0.0003
     15 C           5.4510   -3.1849   18.2242 C.ar    1  UNL1       -0.0000
     16 C           4.3736   -3.8966   18.9876 C.ar    1  UNL1       -0.0003
     17 C           3.6741   -3.2042   20.1195 C.ar    1  UNL1       -0.0042
     18 C           0.5415    1.7246   26.7994 C.3     1  UNL1        0.1177
     19 C           0.7795    2.0681   28.2401 C.ar    1  UNL1       -0.0025
     20 C           1.1222    0.9871   29.2221 C.ar    1  UNL1       -0.0026
     21 C           1.3601    1.3306   30.6627 C.ar    1  UNL1        0.0012
     22 C           1.2553    2.7549   31.1214 C.ar    1  UNL1        0.0176
     23 C           0.9126    3.8358   30.1393 C.ar    1  UNL1        0.0012
     24 C           0.6747    3.4923   28.6987 C.ar    1  UNL1       -0.0026
     25 C           1.4932    3.0984   32.5620 C.ar    1  UNL1        0.0813
     26 C           2.2472    2.1485   33.4448 C.ar    1  UNL1        0.0191
     27 C           2.4851    2.4920   34.8854 C.ar    1  UNL1        0.0031
     28 C           1.9692    3.7852   35.4432 C.ar    1  UNL1        0.0207
     29 C           1.2152    4.7352   34.5604 C.ar    1  UNL1        0.0988
     30 N           0.9773    4.3916   33.1198 N.ar    1  UNL1       -0.2438
@<TRIPOS>BOND
     1     1     2    1
     2     2    12    1
     3    12    13   ar
     4    13    14   ar
     5    14    15   ar
     6    15    16   ar
     7    16    17   ar
     8     2     3    1
     9     3     4    1
    10     4     5    1
    11     5     6    1
    12     6     7   am
    13     7     8    2
    14     7     9   am
    15     9    18    1
    16    18    19    1
    17    19    20   ar
    18    20    21   ar
    19    21    22   ar
    20    22    25    1
    21    25    26   ar
    22    26    27   ar
    23    27    28   ar
    24    28    29   ar
    25    29    30   ar
    26    22    23   ar
    27    23    24   ar
    28     6    10    1
    29    10     2    1
    30    17    12   ar
    31    24    19   ar
    32    30    25   ar
    33     9    11    1
@<TRIPOS>MOLECULE
*****
 30 33 0 0 0
SMALL
GASTEIGER

@<TRIPOS>ATOM
      1 C           6.8492   -0.5033   31.3097 C.3     1  UNL1        0.0061
      2 C           6.7824   -1.9832   31.5455 C.3     1  UNL1        0.0373
      3 C           6.5290   -3.2904   32.2360 C.3     1  UNL1        0.0075
      4 C           6.8359   -4.5806   31.5352 C.3     1  UNL1        0.0219
      5 C           7.3962   -4.5635   30.1438 C.3     1  UNL1        0.0950
      6 N           7.6496   -3.2563   29.4533 N.am    1  UNL1       -0.2639
      7 C           8.2099   -3.2392   28.0619 C.2     1  UNL1        0.3042
      8 O           8.4632   -1.9319   27.3715 O.2     1  UNL1       -0.2526
      9 N           8.5168   -4.5294   27.3611 N.am    1  UNL1       -0.2847
     10 C           7.3427   -1.9661   30.1541 C.3     1  UNL1        0.0989
     11 H           8.3505   -5.3874   27.8143 H       1  UNL1        0.1513
     12 C           6.2453   -1.4863   32.8550 C.ar    1  UNL1       -0.0212
     13 C           7.1200   -0.6767   33.7657 C.ar    1  UNL1       -0.0042
     14 C           6.5830   -0.1798   35.0751 C.ar    1  UNL1       -0.0003
     15 C           5.1711   -0.4925   35.4738 C.ar    1  UNL1       -0.0000
     16 C           4.2964   -1.3021   34.5631 C.ar    1  UNL1       -0.0003
     17 C           4.8335   -1.7990   33.2537 C.ar    1  UNL1       -0.0042
     18 C           9.0770   -4.5122   25.9698 C.3     1  UNL1        0.1177
     19 C           8.1649   -4.3085   24.7965 C.ar    1  UNL1       -0.0025
     20 C           8.6801   -4.5098   23.4021 C.ar    1  UNL1       -0.0026
     21 C           7.7680   -4.3061   22.2289 C.ar    1  UNL1        0.0012
     22 C           6.3407   -3.9012   22.4499 C.ar    1  UNL1        0.0176
     23 C           5.8255   -3.7000   23.8443 C.ar    1  UNL1        0.0012
     24 C           6.7377   -3.9037   25.0175 C.ar    1  UNL1       -0.0026
     25 C           5.4285   -3.6975   21.2767 C.ar    1  UNL1        0.0813
     26 C           4.3998   -2.6062   21.3072 C.ar    1  UNL1        0.0191
     27 C           3.4876   -2.4025   20.1340 C.ar    1  UNL1        0.0031
     28 C           3.6041   -3.2900   18.9304 C.ar    1  UNL1        0.0207
     29 C           4.6329   -4.3812   18.8999 C.ar    1  UNL1        0.0988
     30 N           5.5450   -4.5849   20.0731 N.ar    1  UNL1       -0.2438
@<TRIPOS>BOND
     1     1     2    1
     2     2    12    1
     3    12    13   ar
     4    13    14   ar
     5    14    15   ar
     6    15    16   ar
     7    16    17   ar
     8     2     3    1
     9     3     4    1
    10     4     5    1
    11     5     6    1
    12     6     7   am
    13     7     8    2
    14     7     9   am
    15     9    18    1
    16    18    19    1
    17    19    20   ar
    18    20    21   ar
    19    21    22   ar
    20    22    25    1
    21    25    26   ar
    22    26    27   ar
    23    27    28   ar
    24    28    29   ar
    25    29    30   ar
    26    22    23   ar
    27    23    24   ar
    28     6    10    1
    29    10     2    1
    30    17    12   ar
    31    24    19   ar
    32    30    25   ar
    33     9    11    1
@<TRIPOS>MOLECULE
*****
 30 33 0 0 0
SMALL
GASTEIGER

@<TRIPOS>ATOM
      1 C           2.6758    3.1802   29.5426 C.3     1  UNL1        0.0061
      2 C           1.4712    2.2882   29.4839 C.3     1  UNL1        0.0373
      3 C           0.3385    1.4175   29.9407 C.3     1  UNL1        0.0075
      4 C          -0.5827    0.7954   28.9335 C.3     1  UNL1        0.0219
      5 C          -0.3711    1.0441   27.4695 C.3     1  UNL1        0.0950
      6 N           0.7616    1.9149   27.0126 N.am    1  UNL1       -0.2639
      7 C           0.9732    2.1636   25.5486 C.2     1  UNL1        0.3042
      8 O           2.1059    3.0344   25.0919 O.2     1  UNL1       -0.2526
      9 N           0.0520    1.5416   24.5414 N.am    1  UNL1       -0.2847
     10 C           1.6828    2.5370   28.0198 C.3     1  UNL1        0.0989
     11 H          -0.6915    0.9700   24.8412 H       1  UNL1        0.1513
     12 C           1.6780    2.3493   30.9684 C.ar    1  UNL1       -0.0212
     13 C           2.4967    1.2969   31.6555 C.ar    1  UNL1       -0.0042
     14 C           2.7035    1.3580   33.1399 C.ar    1  UNL1       -0.0003
     15 C           2.0916    2.4715   33.9372 C.ar    1  UNL1       -0.0000
     16 C           1.2729    3.5239   33.2500 C.ar    1  UNL1       -0.0003
     17 C           1.0662    3.4628   31.7657 C.ar    1  UNL1       -0.0042
     18 C           0.2636    1.7903   23.0774 C.3     1  UNL1        0.1177
     19 C           1.1077    0.8483   22.2710 C.ar    1  UNL1       -0.0025
     20 C           2.3909    0.3179   22.8386 C.ar    1  UNL1       -0.0026
     21 C           3.2349   -0.6240   22.0321 C.ar    1  UNL1        0.0012
     22 C           2.7959   -1.0355   20.6582 C.ar    1  UNL1        0.0176
     23 C           1.5126   -0.5051   20.0906 C.ar    1  UNL1        0.0012
     24 C           0.6686    0.4369   20.8971 C.ar    1  UNL1       -0.0026
     25 C           3.6399   -1.9775   19.8517 C.ar    1  UNL1        0.0813
     26 C           3.2945   -3.4363   19.7993 C.ar    1  UNL1        0.0191
     27 C           4.1385   -4.3782   18.9928 C.ar    1  UNL1        0.0031
     28 C           5.3278   -3.8615   18.2389 C.ar    1  UNL1        0.0207
     29 C           5.6732   -2.4027   18.2913 C.ar    1  UNL1        0.0988
     30 N           4.8292   -1.4608   19.0977 N.ar    1  UNL1       -0.2438
@<TRIPOS>BOND
     1     1     2    1
     2     2    12    1
     3    12    13   ar
     4    13    14   ar
     5    14    15   ar
     6    15    16   ar
     7    16    17   ar
     8     2     3    1
     9     3     4    1
    10     4     5    1
    11     5     6    1
    12     6     7   am
    13     7     8    2
    14     7     9   am
    15     9    18    1
    16    18    19    1
    17    19    20   ar
    18    20    21   ar
    19    21    22   ar
    20    22    25    1
    21    25    26   ar
    22    26    27   ar
    23    27    28   ar
    24    28    29   ar
    25    29    30   ar
    26    22    23   ar
    27    23    24   ar
    28     6    10    1
    29    10     2    1
    30    17    12   ar
    31    24    19   ar
    32    30    25   ar
    33     9    11    1
@<TRIPOS>MOLECULE
*****
 30 33 0 0 0
SMALL
GASTEIGER

@<TRIPOS>ATOM
      1 C           3.3596    0.2236   17.8383 C.3     1  UNL1        0.0061
      2 C           3.0472   -0.1087   19.2673 C.3     1  UNL1        0.0373
      3 C           3.1629   -0.7299   20.6277 C.3     1  UNL1        0.0075
      4 C           2.1545   -0.4039   21.6892 C.3     1  UNL1        0.0219
      5 C           1.0304    0.5432   21.3903 C.3     1  UNL1        0.0950
      6 N           0.9147    1.1644   20.0300 N.am    1  UNL1       -0.2639
      7 C          -0.2094    2.1116   19.7311 C.2     1  UNL1        0.3042
      8 O          -0.3251    2.7327   18.3706 O.2     1  UNL1       -0.2526
      9 N          -1.2178    2.4375   20.7926 N.am    1  UNL1       -0.2847
     10 C           1.9231    0.8384   18.9684 C.3     1  UNL1        0.0989
     11 H          -1.1419    2.0298   21.6855 H       1  UNL1        0.1513
     12 C           4.2798   -0.9405   19.0699 C.ar    1  UNL1       -0.0212
     13 C           4.1589   -2.3629   18.6095 C.ar    1  UNL1       -0.0042
     14 C           5.3915   -3.1946   18.4120 C.ar    1  UNL1       -0.0003
     15 C           6.7450   -2.6038   18.6750 C.ar    1  UNL1       -0.0000
     16 C           6.8658   -1.1814   19.1355 C.ar    1  UNL1       -0.0003
     17 C           5.6333   -0.3497   19.3329 C.ar    1  UNL1       -0.0042
     18 C          -2.3419    3.3847   20.4937 C.3     1  UNL1        0.1177
     19 C          -3.2200    3.8807   21.6041 C.ar    1  UNL1       -0.0025
     20 C          -2.7707    5.0276   22.4603 C.ar    1  UNL1       -0.0026
     21 C          -3.6488    5.5235   23.5706 C.ar    1  UNL1        0.0012
     22 C          -4.9761    4.8728   23.8249 C.ar    1  UNL1        0.0176
     23 C          -5.4254    3.7259   22.9686 C.ar    1  UNL1        0.0012
     24 C          -4.5472    3.2300   21.8583 C.ar    1  UNL1       -0.0026
     25 C          -5.8543    5.3687   24.9352 C.ar    1  UNL1        0.0813
     26 C          -7.2717    5.7676   24.6491 C.ar    1  UNL1        0.0191
     27 C          -8.1498    6.2636   25.7594 C.ar    1  UNL1        0.0031
     28 C          -7.6107    6.3607   27.1558 C.ar    1  UNL1        0.0207
     29 C          -6.1932    5.9618   27.4419 C.ar    1  UNL1        0.0988
     30 N          -5.3151    5.4658   26.3315 N.ar    1  UNL1       -0.2438
@<TRIPOS>BOND
     1     1     2    1
     2     2    12    1
     3    12    13   ar
     4    13    14   ar
     5    14    15   ar
     6    15    16   ar
     7    16    17   ar
     8     2     3    1
     9     3     4    1
    10     4     5    1
    11     5     6    1
    12     6     7   am
    13     7     8    2
    14     7     9   am
    15     9    18    1
    16    18    19    1
    17    19    20   ar
    18    20    21   ar
    19    21    22   ar
    20    22    25    1
    21    25    26   ar
    22    26    27   ar
    23    27    28   ar
    24    28    29   ar
    25    29    30   ar
    26    22    23   ar
    27    23    24   ar
    28     6    10    1
    29    10     2    1
    30    17    12   ar
    31    24    19   ar
    32    30    25   ar
    33     9    11    1
@<TRIPOS>MOLECULE
*****
 30 33 0 0 0
SMALL
GASTEIGER

@<TRIPOS>ATOM
      1 C           7.7280    0.1598   34.2609 C.3     1  UNL1        0.0061
      2 C           6.3866   -0.5113   34.2441 C.3     1  UNL1        0.0373
      3 C           4.9523   -0.8031   34.5721 C.3     1  UNL1        0.0075
      4 C           4.2514   -1.9539   33.9130 C.3     1  UNL1        0.0219
      5 C           4.9848   -2.8129   32.9259 C.3     1  UNL1        0.0950
      6 N           6.4190   -2.5211   32.5979 N.am    1  UNL1       -0.2639
      7 C           7.1524   -3.3801   31.6108 C.2     1  UNL1        0.3042
      8 O           8.5867   -3.0882   31.2828 O.2     1  UNL1       -0.2526
      9 N           6.4515   -4.5308   30.9517 N.am    1  UNL1       -0.2847
     10 C           7.1200   -1.3703   33.2570 C.3     1  UNL1        0.0989
     11 H           5.5101   -4.7224   31.1670 H       1  UNL1        0.1513
     12 C           6.1191    0.5808   35.2370 C.ar    1  UNL1       -0.0212
     13 C           5.6416    0.2390   36.6173 C.ar    1  UNL1       -0.0042
     14 C           5.3741    1.3310   37.6102 C.ar    1  UNL1       -0.0003
     15 C           5.5842    2.7648   37.2228 C.ar    1  UNL1       -0.0000
     16 C           6.0617    3.1066   35.8425 C.ar    1  UNL1       -0.0003
     17 C           6.3291    2.0146   34.8497 C.ar    1  UNL1       -0.0042
     18 C           7.1849   -5.3897   29.9647 C.3     1  UNL1        0.1177
     19 C           7.0694   -5.1097   28.4955 C.ar    1  UNL1       -0.0025
     20 C           6.7059   -3.7341   28.0205 C.ar    1  UNL1       -0.0026
     21 C           6.5904   -3.4541   26.5514 C.ar    1  UNL1        0.0012
     22 C           6.8383   -4.5497   25.5573 C.ar    1  UNL1        0.0176
     23 C           7.2017   -5.9253   26.0324 C.ar    1  UNL1        0.0012
     24 C           7.3172   -6.2053   27.5015 C.ar    1  UNL1       -0.0026
     25 C           6.7228   -4.2698   24.0882 C.ar    1  UNL1        0.0813
     26 C           7.8413   -4.6472   23.1627 C.ar    1  UNL1        0.0191
     27 C           7.7257   -4.3673   21.6936 C.ar    1  UNL1        0.0031
     28 C           6.4919   -3.7100   21.1500 C.ar    1  UNL1        0.0207
     29 C           5.3734   -3.3325   22.0755 C.ar    1  UNL1        0.0988
     30 N           5.4889   -3.6125   23.5446 N.ar    1  UNL1       -0.2438
@<TRIPOS>BOND
     1     1     2    1
     2     2    12    1
     3    12    13   ar
     4    13    14   ar
     5    14    15   ar
     6    15    16   ar
     7    16    17   ar
     8     2     3    1
     9     3     4    1
    10     4     5    1
    11     5     6    1
    12     6     7   am
    13     7     8    2
    14     7     9   am
    15     9    18    1
    16    18    19    1
    17    19    20   ar
    18    20    21   ar
    19    21    22   ar
    20    22    25    1
    21    25    26   ar
    22    26    27   ar
    23    27    28   ar
    24    28    29   ar
    25    29    30   ar
    26    22    23   ar
    27    23    24   ar
    28     6    10    1
    29    10     2    1
    30    17    12   ar
    31    24    19   ar
    32    30    25   ar
    33     9    11    1
@<TRIPOS>MOLECULE
*****
 30 33 0 0 0
SMALL
GASTEIGER

@<TRIPOS>ATOM
      1 C           7.2564    0.6705   33.7477 C.3     1  UNL1        0.0061
      2 C           5.9464   -0.0576   33.8078 C.3     1  UNL1        0.0373
      3 C           4.4938   -0.3263   34.0679 C.3     1  UNL1        0.0075
      4 C           3.9066   -1.6649   33.7312 C.3     1  UNL1        0.0219
      5 C           4.7721   -2.7348   33.1343 C.3     1  UNL1        0.0950
      6 N           6.2247   -2.4661   32.8741 N.am    1  UNL1       -0.2639
      7 C           7.0902   -3.5360   32.2771 C.2     1  UNL1        0.3042
      8 O           8.5428   -3.2672   32.0170 O.2     1  UNL1       -0.2526
      9 N           6.5030   -4.8745   31.9404 N.am    1  UNL1       -0.2847
     10 C           6.8119   -1.1275   33.2108 C.3     1  UNL1        0.0989
     11 H           5.5496   -5.0509   32.1112 H       1  UNL1        0.1513
     12 C           5.5359    1.2652   34.3838 C.ar    1  UNL1       -0.0212
     13 C           5.2067    2.4104   33.4727 C.ar    1  UNL1       -0.0042
     14 C           4.7962    3.7331   34.0488 C.ar    1  UNL1       -0.0003
     15 C           4.7150    3.9107   35.5360 C.ar    1  UNL1       -0.0000
     16 C           5.0442    2.7655   36.4472 C.ar    1  UNL1       -0.0003
     17 C           5.4546    1.4428   35.8711 C.ar    1  UNL1       -0.0042
     18 C           7.3685   -5.9444   31.3435 C.3     1  UNL1        0.1177
     19 C           7.6078   -5.9762   29.8630 C.ar    1  UNL1       -0.0025
     20 C           6.5930   -5.3903   28.9264 C.ar    1  UNL1       -0.0026
     21 C           6.8324   -5.4222   27.4460 C.ar    1  UNL1        0.0012
     22 C           8.0864   -6.0398   26.9021 C.ar    1  UNL1        0.0176
     23 C           9.1012   -6.6257   27.8387 C.ar    1  UNL1        0.0012
     24 C           8.8618   -6.5938   29.3191 C.ar    1  UNL1       -0.0026
     25 C           8.3257   -6.0717   25.4216 C.ar    1  UNL1        0.0813
     26 C           8.6840   -7.3630   24.7475 C.ar    1  UNL1        0.0191
     27 C           8.9233   -7.3948   23.2671 C.ar    1  UNL1        0.0031
     28 C           8.8045   -6.1356   22.4608 C.ar    1  UNL1        0.0207
     29 C           8.4462   -4.8443   23.1349 C.ar    1  UNL1        0.0988
     30 N           8.2069   -4.8125   24.6153 N.ar    1  UNL1       -0.2438
@<TRIPOS>BOND
     1     1     2    1
     2     2    12    1
     3    12    13   ar
     4    13    14   ar
     5    14    15   ar
     6    15    16   ar
     7    16    17   ar
     8     2     3    1
     9     3     4    1
    10     4     5    1
    11     5     6    1
    12     6     7   am
    13     7     8    2
    14     7     9   am
    15     9    18    1
    16    18    19    1
    17    19    20   ar
    18    20    21   ar
    19    21    22   ar
    20    22    25    1
    21    25    26   ar
    22    26    27   ar
    23    27    28   ar
    24    28    29   ar
    25    29    30   ar
    26    22    23   ar
    27    23    24   ar
    28     6    10    1
    29    10     2    1
    30    17    12   ar
    31    24    19   ar
    32    30    25   ar
    33     9    11    1
