@<TRIPOS>MOLECULE
*****
 34 38 0 0 0
SMALL
GASTEIGER

@<TRIPOS>ATOM
      1 C           4.5616   -0.5531   27.6848 C.2     1  UNL1        0.0033
      2 C           3.6368   -0.1974   26.5585 C.2     1  UNL1        0.0641
      3 C           2.4222    0.6423   26.8221 C.3     1  UNL1        0.0383
      4 C           1.4976    0.9980   25.6958 C.3     1  UNL1        0.0557
      5 C           1.7875    0.5139   24.3060 C.3     1  UNL1        0.2028
      6 N           3.0021   -0.3259   24.0424 N.pl3   1  UNL1       -0.1873
      7 C           3.9268   -0.6815   25.1687 C.2     1  UNL1        0.3653
      8 N           5.1415   -1.5213   24.9052 N.2     1  UNL1        0.1549
      9 O           5.4314   -2.0054   23.5154 O.2     1  UNL1       -0.2751
     10 C           4.5067   -1.6497   22.3891 C.3     1  UNL1        0.2886
     11 C           3.2921   -0.8100   22.6526 C.3     1  UNL1        0.2096
     12 C           2.3674   -0.4544   21.5264 C.3     1  UNL1        0.0552
     13 C           4.7966   -2.1338   20.9993 C.ar    1  UNL1        0.0309
     14 C           5.5355   -1.2520   20.0368 C.ar    1  UNL1        0.0293
     15 C           5.8255   -1.7361   18.6470 C.ar    1  UNL1        0.1422
     16 F           6.5644   -0.8543   17.6845 F       1  UNL1       -0.2041
     17 C           5.3765   -3.1020   18.2196 C.ar    1  UNL1        0.0592
     18 C           4.6376   -3.9839   19.1821 C.ar    1  UNL1        0.1422
     19 F           4.1886   -5.3498   18.7548 F       1  UNL1       -0.2041
     20 C           4.3476   -3.4998   20.5719 C.ar    1  UNL1        0.0293
     21 C           3.7075   -0.5716   31.5604 C.ar    1  UNL1        0.1547
     22 C           3.9975   -1.0557   30.1706 C.ar    1  UNL1        0.0384
     23 C           4.2716   -0.0689   29.0746 C.ar    1  UNL1        0.0030
     24 C           4.2559    1.4020   29.3684 C.ar    1  UNL1        0.0017
     25 C           3.9659    1.8861   30.7582 C.ar    1  UNL1        0.0206
     26 C           3.6917    0.8993   31.8542 C.ar    1  UNL1        0.0994
     27 N           3.4018    1.3834   33.2440 N.ar    1  UNL1       -0.2839
     28 C           2.1719    2.1221   33.6817 C.ar    1  UNL1        0.1826
     29 N           2.3008    2.4091   35.1484 N.ar    1  UNL1       -0.2280
     30 C           3.6104    1.8476   35.6171 C.ar    1  UNL1        0.0786
     31 C           4.1456    1.9093   37.0170 C.3     1  UNL1        0.0538
     32 C           4.2908    1.2137   34.4402 C.ar    1  UNL1        0.0963
     33 C           4.5437   -2.4137   33.1905 C.3     1  UNL1        0.2525
     34 O           3.4333   -1.5584   32.6564 O.3     1  UNL1       -0.4700
@<TRIPOS>BOND
     1    33    34    1
     2    34    21    1
     3    21    22   ar
     4    22    23   ar
     5    23     1    1
     6     1     2    2
     7     2     3    1
     8     3     4    1
     9     4     5    1
    10     5     6    1
    11     6     7    1
    12     7     8    2
    13     8     9    1
    14     9    10    1
    15    10    13    1
    16    13    14   ar
    17    14    15   ar
    18    15    16    1
    19    15    17   ar
    20    17    18   ar
    21    18    19    1
    22    18    20   ar
    23    10    11    1
    24    11    12    1
    25    23    24   ar
    26    24    25   ar
    27    25    26   ar
    28    26    27    1
    29    27    28   ar
    30    28    29   ar
    31    29    30   ar
    32    30    31    1
    33    30    32   ar
    34    26    21   ar
    35    32    27   ar
    36     7     2    1
    37    20    13   ar
    38    11     6    1
@<TRIPOS>MOLECULE
*****
 34 38 0 0 0
SMALL
GASTEIGER

@<TRIPOS>ATOM
      1 C           4.3682   -0.6786   27.6777 C.2     1  UNL1        0.0033
      2 C           3.5124   -0.2662   26.5168 C.2     1  UNL1        0.0641
      3 C           2.3617    0.6722   26.7293 C.3     1  UNL1        0.0383
      4 C           1.5061    1.0845   25.5684 C.3     1  UNL1        0.0557
      5 C           1.8011    0.5585   24.1950 C.3     1  UNL1        0.2028
      6 N           2.9518   -0.3799   23.9825 N.pl3   1  UNL1       -0.1873
      7 C           3.8075   -0.7923   25.1434 C.2     1  UNL1        0.3653
      8 N           4.9583   -1.7307   24.9309 N.2     1  UNL1        0.1549
      9 O           5.2533   -2.2567   23.5575 O.2     1  UNL1       -0.2751
     10 C           4.3976   -1.8443   22.3966 C.3     1  UNL1        0.2886
     11 C           3.2469   -0.9059   22.6091 C.3     1  UNL1        0.2096
     12 C           2.3912   -0.4936   21.4482 C.3     1  UNL1        0.0552
     13 C           4.6926   -2.3704   21.0232 C.ar    1  UNL1        0.0309
     14 C           5.3522   -1.4859   20.0070 C.ar    1  UNL1        0.0293
     15 C           5.6473   -2.0120   18.6336 C.ar    1  UNL1        0.1422
     16 F           6.3069   -1.1276   17.6174 F       1  UNL1       -0.2041
     17 C           5.2827   -3.4224   18.2764 C.ar    1  UNL1        0.0592
     18 C           4.6231   -4.3069   19.2926 C.ar    1  UNL1        0.1422
     19 F           4.2585   -5.7174   18.9353 F       1  UNL1       -0.2041
     20 C           4.3280   -3.7809   20.6660 C.ar    1  UNL1        0.0293
     21 C           4.4814    1.6002   30.9249 C.ar    1  UNL1        0.1547
     22 C           4.7765    1.0741   29.5515 C.ar    1  UNL1        0.0384
     23 C           4.0731   -0.1526   29.0511 C.ar    1  UNL1        0.0030
     24 C           3.0747   -0.8534   29.9242 C.ar    1  UNL1        0.0017
     25 C           2.7797   -0.3274   31.2976 C.ar    1  UNL1        0.0206
     26 C           3.4831    0.8995   31.7979 C.ar    1  UNL1        0.0994
     27 N           3.1880    1.4255   33.1713 N.ar    1  UNL1       -0.2839
     28 C           2.0461    2.3234   33.5451 C.ar    1  UNL1        0.1826
     29 N           2.1354    2.5988   35.0169 N.ar    1  UNL1       -0.2280
     30 C           3.3326    1.8711   35.5528 C.ar    1  UNL1        0.0786
     31 C           3.7976    1.8690   36.9789 C.3     1  UNL1        0.0538
     32 C           3.9831    1.1460   34.4122 C.ar    1  UNL1        0.0963
     33 C           4.6063    4.1848   31.1578 C.3     1  UNL1        0.2525
     34 O           5.1848    2.8270   31.4252 O.3     1  UNL1       -0.4700
@<TRIPOS>BOND
     1    33    34    1
     2    34    21    1
     3    21    22   ar
     4    22    23   ar
     5    23     1    1
     6     1     2    2
     7     2     3    1
     8     3     4    1
     9     4     5    1
    10     5     6    1
    11     6     7    1
    12     7     8    2
    13     8     9    1
    14     9    10    1
    15    10    13    1
    16    13    14   ar
    17    14    15   ar
    18    15    16    1
    19    15    17   ar
    20    17    18   ar
    21    18    19    1
    22    18    20   ar
    23    10    11    1
    24    11    12    1
    25    23    24   ar
    26    24    25   ar
    27    25    26   ar
    28    26    27    1
    29    27    28   ar
    30    28    29   ar
    31    29    30   ar
    32    30    31    1
    33    30    32   ar
    34    26    21   ar
    35    32    27   ar
    36     7     2    1
    37    20    13   ar
    38    11     6    1
@<TRIPOS>MOLECULE
*****
 34 38 0 0 0
SMALL
GASTEIGER

@<TRIPOS>ATOM
      1 C           1.5943    0.1066   20.7557 C.2     1  UNL1        0.0033
      2 C           1.5404    1.3654   19.9416 C.2     1  UNL1        0.0641
      3 C           2.7549    1.8260   19.1914 C.3     1  UNL1        0.0383
      4 C           2.7009    3.0847   18.3774 C.3     1  UNL1        0.0557
      5 C           1.4325    3.8828   18.3135 C.3     1  UNL1        0.2028
      6 N           0.2180    3.4222   19.0637 N.pl3   1  UNL1       -0.1873
      7 C           0.2720    2.1635   19.8778 C.2     1  UNL1        0.3653
      8 N          -0.9426    1.7029   20.6280 N.2     1  UNL1        0.1549
      9 O          -2.2110    2.5011   20.5642 O.2     1  UNL1       -0.2751
     10 C          -2.2649    3.7598   19.7501 C.3     1  UNL1        0.2886
     11 C          -1.0504    4.2204   18.9999 C.3     1  UNL1        0.2096
     12 C          -1.1043    5.4791   18.1859 C.3     1  UNL1        0.0552
     13 C          -3.5333    4.5580   19.6863 C.ar    1  UNL1        0.0309
     14 C          -3.8024    5.6216   20.7091 C.ar    1  UNL1        0.0293
     15 C          -5.0708    6.4198   20.6452 C.ar    1  UNL1        0.1422
     16 F          -5.3399    7.4834   21.6680 F       1  UNL1       -0.2041
     17 C          -6.0701    6.1543   19.5586 C.ar    1  UNL1        0.0592
     18 C          -5.8011    5.0906   18.5357 C.ar    1  UNL1        0.1422
     19 F          -6.8004    4.8251   17.4491 F       1  UNL1       -0.2041
     20 C          -4.5326    4.2924   18.5996 C.ar    1  UNL1        0.0293
     21 C           4.4238   -2.5181   19.8315 C.ar    1  UNL1        0.1547
     22 C           3.1554   -1.7200   19.7676 C.ar    1  UNL1        0.0384
     23 C           2.8627   -0.6915   20.8195 C.ar    1  UNL1        0.0030
     24 C           3.8384   -0.4612   21.9354 C.ar    1  UNL1        0.0017
     25 C           5.1068   -1.2593   21.9992 C.ar    1  UNL1        0.0206
     26 C           5.3995   -2.2878   20.9472 C.ar    1  UNL1        0.0994
     27 N           6.6680   -3.0860   21.0110 N.ar    1  UNL1       -0.2839
     28 C           7.8672   -2.9077   20.1279 C.ar    1  UNL1        0.1826
     29 N           8.9003   -3.9141   20.5402 N.ar    1  UNL1       -0.2280
     30 C           8.3395   -4.7143   21.6783 C.ar    1  UNL1        0.0786
     31 C           9.0360   -5.8304   22.3988 C.3     1  UNL1        0.0538
     32 C           6.9598   -4.2025   21.9692 C.ar    1  UNL1        0.0963
     33 C           4.2948   -4.9712   18.9855 C.3     1  UNL1        0.2525
     34 O           4.7165   -3.5466   18.7795 O.3     1  UNL1       -0.4700
@<TRIPOS>BOND
     1    33    34    1
     2    34    21    1
     3    21    22   ar
     4    22    23   ar
     5    23     1    1
     6     1     2    2
     7     2     3    1
     8     3     4    1
     9     4     5    1
    10     5     6    1
    11     6     7    1
    12     7     8    2
    13     8     9    1
    14     9    10    1
    15    10    13    1
    16    13    14   ar
    17    14    15   ar
    18    15    16    1
    19    15    17   ar
    20    17    18   ar
    21    18    19    1
    22    18    20   ar
    23    10    11    1
    24    11    12    1
    25    23    24   ar
    26    24    25   ar
    27    25    26   ar
    28    26    27    1
    29    27    28   ar
    30    28    29   ar
    31    29    30   ar
    32    30    31    1
    33    30    32   ar
    34    26    21   ar
    35    32    27   ar
    36     7     2    1
    37    20    13   ar
    38    11     6    1
@<TRIPOS>MOLECULE
*****
 34 38 0 0 0
SMALL
GASTEIGER

@<TRIPOS>ATOM
      1 C          -1.0988    2.4447   26.8542 C.2     1  UNL1        0.0033
      2 C          -0.5900    2.4090   25.4436 C.2     1  UNL1        0.0641
      3 C           0.7960    1.9115   25.1586 C.3     1  UNL1        0.0383
      4 C           1.3047    1.8758   23.7479 C.3     1  UNL1        0.0557
      5 C           0.4274    2.3376   22.6223 C.3     1  UNL1        0.2028
      6 N          -0.9587    2.8351   22.9073 N.pl3   1  UNL1       -0.1873
      7 C          -1.4674    2.8708   24.3179 C.2     1  UNL1        0.3653
      8 N          -2.8535    3.3684   24.6030 N.2     1  UNL1        0.1549
      9 O          -3.7308    3.8302   23.4774 O.2     1  UNL1       -0.2751
     10 C          -3.2221    3.7945   22.0667 C.3     1  UNL1        0.2886
     11 C          -1.8360    3.2970   21.7817 C.3     1  UNL1        0.2096
     12 C          -1.3273    3.2613   20.3711 C.3     1  UNL1        0.0552
     13 C          -4.0994    4.2563   20.9411 C.ar    1  UNL1        0.0309
     14 C          -5.0946    3.3144   20.3309 C.ar    1  UNL1        0.0293
     15 C          -5.9719    3.7762   19.2053 C.ar    1  UNL1        0.1422
     16 F          -6.9671    2.8343   18.5950 F       1  UNL1       -0.2041
     17 C          -5.8541    5.1799   18.6899 C.ar    1  UNL1        0.0592
     18 C          -4.8589    6.1219   19.3001 C.ar    1  UNL1        0.1422
     19 F          -4.7411    7.5256   18.7847 F       1  UNL1       -0.2041
     20 C          -3.9815    5.6601   20.4257 C.ar    1  UNL1        0.0293
     21 C           1.4988    2.5107   29.8539 C.ar    1  UNL1        0.1547
     22 C           0.6215    2.9725   28.7283 C.ar    1  UNL1        0.0384
     23 C          -0.2215    1.9829   27.9798 C.ar    1  UNL1        0.0030
     24 C          -0.1871    0.5315   28.3570 C.ar    1  UNL1        0.0017
     25 C           0.6902    0.0697   29.4826 C.ar    1  UNL1        0.0206
     26 C           1.5332    1.0593   30.2311 C.ar    1  UNL1        0.0994
     27 N           2.4105    0.5975   31.3567 N.ar    1  UNL1       -0.2839
     28 C           2.6209    1.3097   32.6599 C.ar    1  UNL1        0.1826
     29 N           3.5719    0.4948   33.4854 N.ar    1  UNL1       -0.2280
     30 C           3.9494   -0.7212   32.6923 C.ar    1  UNL1        0.0786
     31 C           4.8810   -1.8095   33.1368 C.3     1  UNL1        0.0538
     32 C           3.2316   -0.6577   31.3767 C.ar    1  UNL1        0.0963
     33 C           1.7132    4.7302   31.1873 C.3     1  UNL1        0.2525
     34 O           2.3418    3.5003   30.6023 O.3     1  UNL1       -0.4700
@<TRIPOS>BOND
     1    33    34    1
     2    34    21    1
     3    21    22   ar
     4    22    23   ar
     5    23     1    1
     6     1     2    2
     7     2     3    1
     8     3     4    1
     9     4     5    1
    10     5     6    1
    11     6     7    1
    12     7     8    2
    13     8     9    1
    14     9    10    1
    15    10    13    1
    16    13    14   ar
    17    14    15   ar
    18    15    16    1
    19    15    17   ar
    20    17    18   ar
    21    18    19    1
    22    18    20   ar
    23    10    11    1
    24    11    12    1
    25    23    24   ar
    26    24    25   ar
    27    25    26   ar
    28    26    27    1
    29    27    28   ar
    30    28    29   ar
    31    29    30   ar
    32    30    31    1
    33    30    32   ar
    34    26    21   ar
    35    32    27   ar
    36     7     2    1
    37    20    13   ar
    38    11     6    1
@<TRIPOS>MOLECULE
*****
 34 38 0 0 0
SMALL
GASTEIGER

@<TRIPOS>ATOM
      1 C           3.6052   -0.1789   28.0667 C.2     1  UNL1        0.0033
      2 C           4.7081   -1.0281   27.5077 C.2     1  UNL1        0.0641
      3 C           5.8431   -1.4587   28.3887 C.3     1  UNL1        0.0383
      4 C           6.9460   -2.3079   27.8297 C.3     1  UNL1        0.0557
      5 C           6.9139   -2.7263   26.3896 C.3     1  UNL1        0.2028
      6 N           5.7789   -2.2957   25.5086 N.pl3   1  UNL1       -0.1873
      7 C           4.6760   -1.4465   26.0676 C.2     1  UNL1        0.3653
      8 N           3.5410   -1.0158   25.1866 N.2     1  UNL1        0.1549
      9 O           3.5088   -1.4342   23.7465 O.2     1  UNL1       -0.2751
     10 C           4.6118   -2.2834   23.1874 C.3     1  UNL1        0.2886
     11 C           5.7468   -2.7141   24.0685 C.3     1  UNL1        0.2096
     12 C           6.8497   -3.5633   23.5094 C.3     1  UNL1        0.0552
     13 C           4.5797   -2.7019   21.7473 C.ar    1  UNL1        0.0309
     14 C           4.0900   -4.0698   21.3745 C.ar    1  UNL1        0.0293
     15 C           4.0579   -4.4882   19.9344 C.ar    1  UNL1        0.1422
     16 F           3.5682   -5.8561   19.5616 F       1  UNL1       -0.2041
     17 C           4.5155   -3.5388   18.8672 C.ar    1  UNL1        0.0592
     18 C           5.0052   -2.1708   19.2399 C.ar    1  UNL1        0.1422
     19 F           5.4627   -1.2214   18.1726 F       1  UNL1       -0.2041
     20 C           5.0373   -1.7524   20.6800 C.ar    1  UNL1        0.0293
     21 C           3.5810   -0.3755   32.0304 C.ar    1  UNL1        0.1547
     22 C           3.5489   -0.7939   30.5903 C.ar    1  UNL1        0.0384
     23 C           3.6373    0.2396   29.5068 C.ar    1  UNL1        0.0030
     24 C           3.7578    1.6916   29.8634 C.ar    1  UNL1        0.0017
     25 C           3.7899    2.1101   31.3035 C.ar    1  UNL1        0.0206
     26 C           3.7015    1.0765   32.3870 C.ar    1  UNL1        0.0994
     27 N           3.7337    1.4950   33.8271 N.ar    1  UNL1       -0.2839
     28 C           4.8731    1.2876   34.7803 C.ar    1  UNL1        0.1826
     29 N           4.4756    1.8588   36.1092 N.ar    1  UNL1       -0.2280
     30 C           3.0905    2.4191   35.9772 C.ar    1  UNL1        0.0786
     31 C           2.3023    3.0870   37.0647 C.3     1  UNL1        0.0538
     32 C           2.6319    2.1942   34.5669 C.ar    1  UNL1        0.0963
     33 C           4.6390   -2.3468   33.3513 C.3     1  UNL1        0.2525
     34 O           3.4926   -1.4091   33.1139 O.3     1  UNL1       -0.4700
@<TRIPOS>BOND
     1    33    34    1
     2    34    21    1
     3    21    22   ar
     4    22    23   ar
     5    23     1    1
     6     1     2    2
     7     2     3    1
     8     3     4    1
     9     4     5    1
    10     5     6    1
    11     6     7    1
    12     7     8    2
    13     8     9    1
    14     9    10    1
    15    10    13    1
    16    13    14   ar
    17    14    15   ar
    18    15    16    1
    19    15    17   ar
    20    17    18   ar
    21    18    19    1
    22    18    20   ar
    23    10    11    1
    24    11    12    1
    25    23    24   ar
    26    24    25   ar
    27    25    26   ar
    28    26    27    1
    29    27    28   ar
    30    28    29   ar
    31    29    30   ar
    32    30    31    1
    33    30    32   ar
    34    26    21   ar
    35    32    27   ar
    36     7     2    1
    37    20    13   ar
    38    11     6    1
@<TRIPOS>MOLECULE
*****
 34 38 0 0 0
SMALL
GASTEIGER

@<TRIPOS>ATOM
      1 C           2.1712    0.9906   26.6853 C.2     1  UNL1        0.0033
      2 C           3.2787   -0.0145   26.5700 C.2     1  UNL1        0.0641
      3 C           4.1119   -0.3534   27.7703 C.3     1  UNL1        0.0383
      4 C           5.2194   -1.3585   27.6550 C.3     1  UNL1        0.0557
      5 C           5.4935   -2.0247   26.3393 C.3     1  UNL1        0.2028
      6 N           4.6603   -1.6859   25.1390 N.pl3   1  UNL1       -0.1873
      7 C           3.5529   -0.6808   25.2543 C.2     1  UNL1        0.3653
      8 N           2.7195   -0.3418   24.0540 N.2     1  UNL1        0.1549
      9 O           2.9937   -1.0081   22.7383 O.2     1  UNL1       -0.2751
     10 C           4.1012   -2.0132   22.6230 C.3     1  UNL1        0.2886
     11 C           4.9344   -2.3521   23.8233 C.3     1  UNL1        0.2096
     12 C           6.0418   -3.3572   23.7080 C.3     1  UNL1        0.0552
     13 C           4.3753   -2.6795   21.3073 C.ar    1  UNL1        0.0309
     14 C           5.1303   -1.9465   20.2384 C.ar    1  UNL1        0.0293
     15 C           5.4045   -2.6127   18.9227 C.ar    1  UNL1        0.1422
     16 F           6.1594   -1.8797   17.8538 F       1  UNL1       -0.2041
     17 C           4.9237   -4.0120   18.6760 C.ar    1  UNL1        0.0592
     18 C           4.1687   -4.7450   19.7450 C.ar    1  UNL1        0.1422
     19 F           3.6879   -6.1443   19.4983 F       1  UNL1       -0.2041
     20 C           3.8945   -4.0788   21.0607 C.ar    1  UNL1        0.0293
     21 C           2.2991    3.6181   29.6568 C.ar    1  UNL1        0.1547
     22 C           2.5732    2.9518   28.3412 C.ar    1  UNL1        0.0384
     23 C           1.8971    1.6569   28.0009 C.ar    1  UNL1        0.0030
     24 C           0.9467    1.0281   28.9764 C.ar    1  UNL1        0.0017
     25 C           0.6725    1.6943   30.2921 C.ar    1  UNL1        0.0206
     26 C           1.3487    2.9894   30.6323 C.ar    1  UNL1        0.0994
     27 N           1.0746    3.6556   31.9479 N.ar    1  UNL1       -0.2839
     28 C          -0.0165    4.6473   32.2236 C.ar    1  UNL1        0.1826
     29 N           0.0779    5.0517   33.6650 N.ar    1  UNL1       -0.2280
     30 C           1.2274    4.3099   34.2801 C.ar    1  UNL1        0.0786
     31 C           1.6813    4.4129   35.7061 C.3     1  UNL1        0.0538
     32 C           1.8434    3.4471   33.2189 C.ar    1  UNL1        0.0963
     33 C           2.3712    6.2132   29.5557 C.3     1  UNL1        0.2525
     34 O           2.9753    4.9131   29.9970 O.3     1  UNL1       -0.4700
@<TRIPOS>BOND
     1    33    34    1
     2    34    21    1
     3    21    22   ar
     4    22    23   ar
     5    23     1    1
     6     1     2    2
     7     2     3    1
     8     3     4    1
     9     4     5    1
    10     5     6    1
    11     6     7    1
    12     7     8    2
    13     8     9    1
    14     9    10    1
    15    10    13    1
    16    13    14   ar
    17    14    15   ar
    18    15    16    1
    19    15    17   ar
    20    17    18   ar
    21    18    19    1
    22    18    20   ar
    23    10    11    1
    24    11    12    1
    25    23    24   ar
    26    24    25   ar
    27    25    26   ar
    28    26    27    1
    29    27    28   ar
    30    28    29   ar
    31    29    30   ar
    32    30    31    1
    33    30    32   ar
    34    26    21   ar
    35    32    27   ar
    36     7     2    1
    37    20    13   ar
    38    11     6    1
@<TRIPOS>MOLECULE
*****
 34 38 0 0 0
SMALL
GASTEIGER

@<TRIPOS>ATOM
      1 C           5.1664   -0.6909   27.9912 C.2     1  UNL1        0.0033
      2 C           5.9398   -1.8237   27.3841 C.2     1  UNL1        0.0641
      3 C           6.8632   -2.6431   28.2361 C.3     1  UNL1        0.0383
      4 C           7.6365   -3.7759   27.6289 C.3     1  UNL1        0.0557
      5 C           7.4865   -4.0893   26.1698 C.3     1  UNL1        0.2028
      6 N           6.5631   -3.2700   25.3177 N.pl3   1  UNL1       -0.1873
      7 C           5.7898   -2.1372   25.9249 C.2     1  UNL1        0.3653
      8 N           4.8663   -1.3177   25.0728 N.2     1  UNL1        0.1549
      9 O           4.7163   -1.6312   23.6136 O.2     1  UNL1       -0.2751
     10 C           5.4897   -2.7641   23.0065 C.3     1  UNL1        0.2886
     11 C           6.4131   -3.5834   23.8585 C.3     1  UNL1        0.2096
     12 C           7.1864   -4.7162   23.2514 C.3     1  UNL1        0.0552
     13 C           5.3397   -3.0775   21.5473 C.ar    1  UNL1        0.0309
     14 C           6.3427   -2.5565   20.5613 C.ar    1  UNL1        0.0293
     15 C           6.1927   -2.8699   19.1021 C.ar    1  UNL1        0.1422
     16 F           7.1958   -2.3489   18.1160 F       1  UNL1       -0.2041
     17 C           5.0396   -3.7044   18.6289 C.ar    1  UNL1        0.0592
     18 C           4.0364   -4.2255   19.6150 C.ar    1  UNL1        0.1422
     19 F           2.8833   -5.0599   19.1418 F       1  UNL1       -0.2041
     20 C           4.1865   -3.9120   21.0742 C.ar    1  UNL1        0.0293
     21 C           4.5912   -0.7480   31.9175 C.ar    1  UNL1        0.1547
     22 C           4.4412   -1.0614   30.4583 C.ar    1  UNL1        0.0384
     23 C           5.3165   -0.3774   29.4504 C.ar    1  UNL1        0.0030
     24 C           6.3419    0.6201   29.9017 C.ar    1  UNL1        0.0017
     25 C           6.4919    0.9335   31.3609 C.ar    1  UNL1        0.0206
     26 C           5.6165    0.2495   32.3688 C.ar    1  UNL1        0.0994
     27 N           5.7666    0.5629   33.8280 N.ar    1  UNL1       -0.2839
     28 C           6.8159    0.0088   34.7455 C.ar    1  UNL1        0.1826
     29 N           6.5915    0.5889   36.1104 N.ar    1  UNL1       -0.2280
     30 C           5.4034    1.5016   36.0365 C.ar    1  UNL1        0.0786
     31 C           4.8265    2.2917   37.1736 C.3     1  UNL1        0.0538
     32 C           4.8936    1.4855   34.6259 C.ar    1  UNL1        0.0963
     33 C           4.1922   -2.6795   33.6087 C.3     1  UNL1        0.2525
     34 O           3.7158   -1.4321   32.9254 O.3     1  UNL1       -0.4700
@<TRIPOS>BOND
     1    33    34    1
     2    34    21    1
     3    21    22   ar
     4    22    23   ar
     5    23     1    1
     6     1     2    2
     7     2     3    1
     8     3     4    1
     9     4     5    1
    10     5     6    1
    11     6     7    1
    12     7     8    2
    13     8     9    1
    14     9    10    1
    15    10    13    1
    16    13    14   ar
    17    14    15   ar
    18    15    16    1
    19    15    17   ar
    20    17    18   ar
    21    18    19    1
    22    18    20   ar
    23    10    11    1
    24    11    12    1
    25    23    24   ar
    26    24    25   ar
    27    25    26   ar
    28    26    27    1
    29    27    28   ar
    30    28    29   ar
    31    29    30   ar
    32    30    31    1
    33    30    32   ar
    34    26    21   ar
    35    32    27   ar
    36     7     2    1
    37    20    13   ar
    38    11     6    1
@<TRIPOS>MOLECULE
*****
 34 38 0 0 0
SMALL
GASTEIGER

@<TRIPOS>ATOM
      1 C           4.0040   -0.2491   27.6492 C.2     1  UNL1        0.0033
      2 C           4.8846   -1.3618   27.1627 C.2     1  UNL1        0.0641
      3 C           5.7017   -2.1535   28.1401 C.3     1  UNL1        0.0383
      4 C           6.5822   -3.2662   27.6536 C.3     1  UNL1        0.0557
      5 C           6.6456   -3.5871   26.1897 C.3     1  UNL1        0.2028
      6 N           5.8284   -2.7954   25.2123 N.pl3   1  UNL1       -0.1873
      7 C           4.9479   -1.6827   25.6988 C.2     1  UNL1        0.3653
      8 N           4.1307   -0.8909   24.7214 N.2     1  UNL1        0.1549
      9 O           4.1940   -1.2119   23.2575 O.2     1  UNL1       -0.2751
     10 C           5.0746   -2.3246   22.7710 C.3     1  UNL1        0.2886
     11 C           5.8917   -3.1163   23.7484 C.3     1  UNL1        0.2096
     12 C           6.7722   -4.2289   23.2619 C.3     1  UNL1        0.0552
     13 C           5.1379   -2.6455   21.3071 C.ar    1  UNL1        0.0309
     14 C           4.0825   -3.5090   20.6823 C.ar    1  UNL1        0.0293
     15 C           4.1458   -3.8299   19.2184 C.ar    1  UNL1        0.1422
     16 F           3.0905   -4.6934   18.5935 F       1  UNL1       -0.2041
     17 C           5.2645   -3.2873   18.3793 C.ar    1  UNL1        0.0592
     18 C           6.3200   -2.4237   19.0041 C.ar    1  UNL1        0.1422
     19 F           7.4387   -1.8811   18.1651 F       1  UNL1       -0.2041
     20 C           6.2567   -2.1028   20.4680 C.ar    1  UNL1        0.0293
     21 C           4.8213    1.3989   31.1657 C.ar    1  UNL1        0.1547
     22 C           4.8846    1.0780   29.7018 C.ar    1  UNL1        0.0384
     23 C           3.9407    0.0718   29.1131 C.ar    1  UNL1        0.0030
     24 C           2.9334   -0.6135   29.9882 C.ar    1  UNL1        0.0017
     25 C           2.8701   -0.2925   31.4521 C.ar    1  UNL1        0.0206
     26 C           3.8141    0.7137   32.0409 C.ar    1  UNL1        0.0994
     27 N           3.7507    1.0346   33.5048 N.ar    1  UNL1       -0.2839
     28 C           2.8467    2.0442   34.1478 C.ar    1  UNL1        0.1826
     29 N           3.1176    2.0358   35.6231 N.ar    1  UNL1       -0.2280
     30 C           4.1890    1.0210   35.8919 C.ar    1  UNL1        0.0786
     31 C           4.7675    0.6842   37.2342 C.3     1  UNL1        0.0538
     32 C           4.5803    0.4022   34.5827 C.ar    1  UNL1        0.0963
     33 C           7.1116    1.9691   32.2518 C.3     1  UNL1        0.2525
     34 O           5.7653    2.4051   31.7545 O.3     1  UNL1       -0.4700
@<TRIPOS>BOND
     1    33    34    1
     2    34    21    1
     3    21    22   ar
     4    22    23   ar
     5    23     1    1
     6     1     2    2
     7     2     3    1
     8     3     4    1
     9     4     5    1
    10     5     6    1
    11     6     7    1
    12     7     8    2
    13     8     9    1
    14     9    10    1
    15    10    13    1
    16    13    14   ar
    17    14    15   ar
    18    15    16    1
    19    15    17   ar
    20    17    18   ar
    21    18    19    1
    22    18    20   ar
    23    10    11    1
    24    11    12    1
    25    23    24   ar
    26    24    25   ar
    27    25    26   ar
    28    26    27    1
    29    27    28   ar
    30    28    29   ar
    31    29    30   ar
    32    30    31    1
    33    30    32   ar
    34    26    21   ar
    35    32    27   ar
    36     7     2    1
    37    20    13   ar
    38    11     6    1
@<TRIPOS>MOLECULE
*****
 34 38 0 0 0
SMALL
GASTEIGER

@<TRIPOS>ATOM
      1 C           3.0287    0.9404   26.8406 C.2     1  UNL1        0.0033
      2 C           2.2696    1.0306   25.5500 C.2     1  UNL1        0.0641
      3 C           1.0094    1.8408   25.4761 C.3     1  UNL1        0.0383
      4 C           0.2503    1.9309   24.1855 C.3     1  UNL1        0.0557
      5 C           0.7514    1.2108   22.9688 C.3     1  UNL1        0.2028
      6 N           2.0116    0.4006   23.0427 N.pl3   1  UNL1       -0.1873
      7 C           2.7706    0.3104   24.3333 C.2     1  UNL1        0.3653
      8 N           4.0309   -0.4998   24.4072 N.2     1  UNL1        0.1549
      9 O           4.5319   -1.2199   23.1905 O.2     1  UNL1       -0.2751
     10 C           3.7728   -1.1298   21.8999 C.3     1  UNL1        0.2886
     11 C           2.5126   -0.3196   21.8260 C.3     1  UNL1        0.2096
     12 C           1.7536   -0.2294   20.5354 C.3     1  UNL1        0.0552
     13 C           4.2739   -1.8499   20.6832 C.ar    1  UNL1        0.0309
     14 C           5.0745   -1.1120   19.6515 C.ar    1  UNL1        0.0293
     15 C           5.5755   -1.8321   18.4348 C.ar    1  UNL1        0.1422
     16 F           6.3762   -1.0941   17.4031 F       1  UNL1       -0.2041
     17 C           5.2760   -3.2901   18.2498 C.ar    1  UNL1        0.0592
     18 C           4.4753   -4.0282   19.2815 C.ar    1  UNL1        0.1422
     19 F           4.1758   -5.4862   19.0964 F       1  UNL1       -0.2041
     20 C           3.9743   -3.3081   20.4982 C.ar    1  UNL1        0.0293
     21 C           2.5096    3.7682   29.5763 C.ar    1  UNL1        0.1547
     22 C           3.0107    3.0480   28.3596 C.ar    1  UNL1        0.0384
     23 C           2.5276    1.6605   28.0573 C.ar    1  UNL1        0.0030
     24 C           1.5435    0.9931   28.9717 C.ar    1  UNL1        0.0017
     25 C           1.0424    1.7132   30.1884 C.ar    1  UNL1        0.0206
     26 C           1.5255    3.1008   30.4907 C.ar    1  UNL1        0.0994
     27 N           1.0244    3.8209   31.7074 N.ar    1  UNL1       -0.2839
     28 C           1.5575    3.6727   33.1016 C.ar    1  UNL1        0.1826
     29 N           0.7648    4.5759   33.9994 N.ar    1  UNL1       -0.2280
     30 C          -0.2581    5.2822   33.1600 C.ar    1  UNL1        0.0786
     31 C          -1.2648    6.2800   33.6510 C.3     1  UNL1        0.0538
     32 C          -0.0977    4.8156   31.7435 C.ar    1  UNL1        0.0963
     33 C           4.1806    5.3584   30.7717 C.3     1  UNL1        0.2525
     34 O           2.9926    5.1558   29.8786 O.3     1  UNL1       -0.4700
@<TRIPOS>BOND
     1    33    34    1
     2    34    21    1
     3    21    22   ar
     4    22    23   ar
     5    23     1    1
     6     1     2    2
     7     2     3    1
     8     3     4    1
     9     4     5    1
    10     5     6    1
    11     6     7    1
    12     7     8    2
    13     8     9    1
    14     9    10    1
    15    10    13    1
    16    13    14   ar
    17    14    15   ar
    18    15    16    1
    19    15    17   ar
    20    17    18   ar
    21    18    19    1
    22    18    20   ar
    23    10    11    1
    24    11    12    1
    25    23    24   ar
    26    24    25   ar
    27    25    26   ar
    28    26    27    1
    29    27    28   ar
    30    28    29   ar
    31    29    30   ar
    32    30    31    1
    33    30    32   ar
    34    26    21   ar
    35    32    27   ar
    36     7     2    1
    37    20    13   ar
    38    11     6    1
