@<TRIPOS>MOLECULE
*****
 37 41 0 0 0
SMALL
GASTEIGER

@<TRIPOS>ATOM
      1 N          -3.2075  -17.4102   21.9797 N.3     1  UNL1       -0.1521
      2 C          -2.9425  -16.5926   23.2090 C.3     1  UNL1        0.0958
      3 C          -4.2471  -16.3894   23.9208 C.3     1  UNL1        0.0207
      4 C          -5.3185  -17.0814   23.1313 C.3     1  UNL1        0.0232
      5 C          -5.8179  -16.3994   24.3704 C.3     1  UNL1        0.0017
      6 C          -7.2758  -16.4514   24.7193 C.3     1  UNL1        0.0021
      7 C          -8.2344  -17.1855   23.8291 C.3     1  UNL1        0.0268
      8 C          -7.7349  -17.8675   22.5900 C.3     1  UNL1        0.1419
      9 C          -8.6934  -18.6016   21.6999 C.ar    1  UNL1        0.0616
     10 C         -10.1514  -18.6536   22.0489 C.ar    1  UNL1        0.1407
     11 F         -10.9735  -18.1016   23.1755 F       1  UNL1       -0.2043
     12 C         -11.1099  -19.3877   21.1587 C.ar    1  UNL1        0.0319
     13 C         -10.6104  -20.0698   19.9196 C.ar    1  UNL1        0.0351
     14 C          -9.1525  -20.0178   19.5707 C.ar    1  UNL1        0.1737
     15 F          -8.6531  -20.6998   18.3316 F       1  UNL1       -0.2010
     16 C          -8.1940  -19.2837   20.4608 C.ar    1  UNL1        0.1654
     17 O          -6.7361  -19.2317   20.1119 O.3     1  UNL1       -0.4733
     18 C          -5.7776  -18.4976   21.0021 C.3     1  UNL1        0.2074
     19 C          -6.2770  -17.8155   22.2411 C.3     1  UNL1        0.0698
     20 C          -4.6760  -17.7123   21.9317 C.3     1  UNL1        0.0958
     21 O          -2.6864  -16.8146   20.0115 O.2     1  UNL1       -0.1495
     22 S          -2.1838  -17.8487   20.9748 S.O2    1  UNL1        0.1302
     23 O          -1.6812  -18.8829   21.9381 O.2     1  UNL1       -0.1495
     24 C          -1.1601  -18.2872   19.9699 C.3     1  UNL1        0.5359
     25 F          -2.1264  -19.2977   19.4265 F       1  UNL1       -0.1493
     26 F          -0.1938  -17.2768   20.5134 F       1  UNL1       -0.1493
     27 F          -0.1364  -18.7257   18.9651 F       1  UNL1       -0.1493
     28 S          -9.1928  -17.9195   22.9390 S.O2    1  UNL1        0.0093
     29 O          -9.6236  -18.5286   22.6578 O.2     1  UNL1       -0.1684
     30 O          -9.4074  -16.6995   23.7850 O.2     1  UNL1       -0.1684
     31 C         -10.6508  -17.9715   23.2880 C.ar    1  UNL1        0.1059
     32 C         -11.6128  -17.0246   22.6338 C.ar    1  UNL1        0.0192
     33 C         -13.0707  -17.0767   22.9828 C.ar    1  UNL1        0.0127
     34 C         -13.5666  -18.0756   23.9859 C.ar    1  UNL1        0.0578
     35 CL        -15.0245  -18.1277   24.3349 Cl      1  UNL1       -0.0822
     36 C         -12.6046  -19.0225   24.6401 C.ar    1  UNL1        0.0127
     37 C         -11.1467  -18.9704   24.2911 C.ar    1  UNL1        0.0192
@<TRIPOS>BOND
     1    21    22    2
     2    22    23    2
     3    22     1    1
     4     1     2    1
     5     2     3    1
     6     4     3    1
     7     4     5    1
     8     5     6    1
     9     6     7    1
    10     7     8    1
    11     8    28    1
    12    28    29    2
    13    28    30    2
    14    28    31    1
    15    31    32   ar
    16    32    33   ar
    17    33    34   ar
    18    34    35    1
    19    34    36   ar
    20    36    37   ar
    21     8     9    1
    22     9    10   ar
    23    10    11    1
    24    10    12   ar
    25    12    13   ar
    26    13    14   ar
    27    14    15    1
    28    14    16   ar
    29    16    17    1
    30    17    18    1
    31    19    18    1
    32     4    20    1
    33    22    24    1
    34    24    25    1
    35    24    26    1
    36    24    27    1
    37    20     1    1
    38    19     4    1
    39    19     8    1
    40    37    31   ar
    41    16     9   ar
@<TRIPOS>MOLECULE
*****
 37 41 0 0 0
SMALL
GASTEIGER

@<TRIPOS>ATOM
      1 N         -11.2541  -18.8415   21.9954 N.3     1  UNL1       -0.1521
      2 C         -11.5364  -19.6189   20.7441 C.3     1  UNL1        0.0958
      3 C         -10.2322  -19.8582   20.0428 C.3     1  UNL1        0.0207
      4 C          -9.1438  -19.2287   20.8608 C.3     1  UNL1        0.0232
      5 C          -8.6568  -19.9015   19.6117 C.3     1  UNL1        0.0017
      6 C          -7.1937  -19.9005   19.2810 C.3     1  UNL1        0.0021
      7 C          -6.2176  -19.2268   20.1993 C.3     1  UNL1        0.0268
      8 C          -6.7046  -18.5540   21.4484 C.3     1  UNL1        0.1419
      9 C          -5.7286  -17.8803   22.3667 C.ar    1  UNL1        0.0616
     10 C          -4.2654  -17.8793   22.0359 C.ar    1  UNL1        0.1407
     11 F          -3.4522  -18.4379   20.9060 F       1  UNL1       -0.2043
     12 C          -3.2893  -17.2056   22.9542 C.ar    1  UNL1        0.0319
     13 C          -3.7764  -16.5327   24.2033 C.ar    1  UNL1        0.0351
     14 C          -5.2395  -16.5337   24.5341 C.ar    1  UNL1        0.1737
     15 F          -5.7264  -15.8609   25.7831 F       1  UNL1       -0.2010
     16 C          -6.2156  -17.2075   23.6157 C.ar    1  UNL1        0.1654
     17 O          -7.6786  -17.2084   23.9465 O.3     1  UNL1       -0.4733
     18 C          -8.6547  -17.8822   23.0282 C.3     1  UNL1        0.2074
     19 C          -8.1677  -18.5550   21.7791 C.3     1  UNL1        0.0698
     20 C          -9.7753  -18.6003   22.0675 C.3     1  UNL1        0.0958
     21 O         -11.5713  -19.1716   24.0668 O.2     1  UNL1       -0.1495
     22 S         -12.2717  -18.3853   22.9985 S.O2    1  UNL1        0.1302
     23 O         -12.9722  -17.5989   21.9303 O.2     1  UNL1       -0.1495
     24 C         -13.2894  -17.9291   24.0017 C.3     1  UNL1        0.5359
     25 F         -12.8830  -19.0429   24.9205 F       1  UNL1       -0.1493
     26 F         -13.6958  -16.8153   23.0828 F       1  UNL1       -0.1493
     27 F         -14.3071  -17.4729   25.0048 F       1  UNL1       -0.1493
     28 S          -5.2416  -18.5531   21.1176 S.O2    1  UNL1        0.0093
     29 O          -4.7239  -18.4238   21.7099 O.2     1  UNL1       -0.1684
     30 O          -5.2028  -18.8197   19.6419 O.2     1  UNL1       -0.1684
     31 C          -3.7784  -18.5521   20.7868 C.ar    1  UNL1        0.1059
     32 C          -2.8856  -19.6271   21.3319 C.ar    1  UNL1        0.0192
     33 C          -1.4225  -19.6262   21.0011 C.ar    1  UNL1        0.0127
     34 C          -0.8523  -18.5502   20.1252 C.ar    1  UNL1        0.0578
     35 CL          0.6107  -18.5492   19.7944 Cl      1  UNL1       -0.0822
     36 C          -1.7452  -17.4751   19.5802 C.ar    1  UNL1        0.0127
     37 C          -3.2082  -17.4761   19.9110 C.ar    1  UNL1        0.0192
@<TRIPOS>BOND
     1    21    22    2
     2    22    23    2
     3    22     1    1
     4     1     2    1
     5     2     3    1
     6     4     3    1
     7     4     5    1
     8     5     6    1
     9     6     7    1
    10     7     8    1
    11     8    28    1
    12    28    29    2
    13    28    30    2
    14    28    31    1
    15    31    32   ar
    16    32    33   ar
    17    33    34   ar
    18    34    35    1
    19    34    36   ar
    20    36    37   ar
    21     8     9    1
    22     9    10   ar
    23    10    11    1
    24    10    12   ar
    25    12    13   ar
    26    13    14   ar
    27    14    15    1
    28    14    16   ar
    29    16    17    1
    30    17    18    1
    31    19    18    1
    32     4    20    1
    33    22    24    1
    34    24    25    1
    35    24    26    1
    36    24    27    1
    37    20     1    1
    38    19     4    1
    39    19     8    1
    40    37    31   ar
    41    16     9   ar
@<TRIPOS>MOLECULE
*****
 37 41 0 0 0
SMALL
GASTEIGER

@<TRIPOS>ATOM
      1 N           8.5820   -6.8025   26.6833 N.3     1  UNL1       -0.1521
      2 C           9.2639   -7.7790   27.5951 C.3     1  UNL1        0.0958
      3 C           9.0504   -7.3214   29.0076 C.3     1  UNL1        0.0207
      4 C           8.2365   -6.0620   28.9687 C.3     1  UNL1        0.0232
      5 C           8.6041   -6.5084   30.3528 C.3     1  UNL1        0.0017
      6 C           8.1580   -5.7099   31.5416 C.3     1  UNL1        0.0021
      7 C           7.3443   -4.4650   31.3464 C.3     1  UNL1        0.0268
      8 C           6.9768   -4.0185   29.9624 C.3     1  UNL1        0.1419
      9 C           6.1632   -2.7736   29.7672 C.ar    1  UNL1        0.0616
     10 C           5.7171   -1.9751   30.9562 C.ar    1  UNL1        0.1407
     11 F           5.8978   -2.1228   32.4379 F       1  UNL1       -0.2043
     12 C           4.9035   -0.7301   30.7610 C.ar    1  UNL1        0.0319
     13 C           4.5359   -0.2837   29.3769 C.ar    1  UNL1        0.0351
     14 C           4.9820   -1.0822   28.1880 C.ar    1  UNL1        0.1737
     15 F           4.6145   -0.6358   26.8040 F       1  UNL1       -0.2010
     16 C           5.7957   -2.3272   28.3832 C.ar    1  UNL1        0.1654
     17 O           6.2417   -3.1256   27.1943 O.3     1  UNL1       -0.4733
     18 C           7.0553   -4.3706   27.3895 C.3     1  UNL1        0.2074
     19 C           7.4229   -4.8170   28.7736 C.3     1  UNL1        0.0698
     20 C           7.9470   -5.7413   27.5323 C.3     1  UNL1        0.0958
     21 O           9.4795   -5.7064   25.1044 O.2     1  UNL1       -0.1495
     22 S           8.5420   -6.8745   25.1856 S.O2    1  UNL1        0.1302
     23 O           7.6045   -8.0426   25.2668 O.2     1  UNL1       -0.1495
     24 C           8.5021   -6.9465   23.6879 C.3     1  UNL1        0.5359
     25 F           9.5315   -8.0372   23.7128 F       1  UNL1       -0.1493
     26 F           7.4727   -5.8558   23.6629 F       1  UNL1       -0.1493
     27 F           8.4621   -7.0185   22.1901 F       1  UNL1       -0.1493
     28 S           6.5308   -3.2201   31.1512 S.O2    1  UNL1        0.0093
     29 O           6.3949   -2.4411   31.0495 O.2     1  UNL1       -0.1684
     30 O           6.4735   -4.2254   32.2631 O.2     1  UNL1       -0.1684
     31 C           6.0847   -2.4215   32.3402 C.ar    1  UNL1        0.1059
     32 C           4.7372   -2.6725   32.9494 C.ar    1  UNL1        0.0192
     33 C           4.2912   -1.8740   34.1383 C.ar    1  UNL1        0.0127
     34 C           5.1927   -0.8245   34.7180 C.ar    1  UNL1        0.0578
     35 CL          4.7467   -0.0260   35.9068 Cl      1  UNL1       -0.0822
     36 C           6.5402   -0.5736   34.1087 C.ar    1  UNL1        0.0127
     37 C           6.9862   -1.3721   32.9198 C.ar    1  UNL1        0.0192
@<TRIPOS>BOND
     1    21    22    2
     2    22    23    2
     3    22     1    1
     4     1     2    1
     5     2     3    1
     6     4     3    1
     7     4     5    1
     8     5     6    1
     9     6     7    1
    10     7     8    1
    11     8    28    1
    12    28    29    2
    13    28    30    2
    14    28    31    1
    15    31    32   ar
    16    32    33   ar
    17    33    34   ar
    18    34    35    1
    19    34    36   ar
    20    36    37   ar
    21     8     9    1
    22     9    10   ar
    23    10    11    1
    24    10    12   ar
    25    12    13   ar
    26    13    14   ar
    27    14    15    1
    28    14    16   ar
    29    16    17    1
    30    17    18    1
    31    19    18    1
    32     4    20    1
    33    22    24    1
    34    24    25    1
    35    24    26    1
    36    24    27    1
    37    20     1    1
    38    19     4    1
    39    19     8    1
    40    37    31   ar
    41    16     9   ar
@<TRIPOS>MOLECULE
*****
 37 41 0 0 0
SMALL
GASTEIGER

@<TRIPOS>ATOM
      1 N           1.5510    0.6192   29.6218 N.3     1  UNL1       -0.1521
      2 C           2.4878   -0.5445   29.7568 C.3     1  UNL1        0.0958
      3 C           3.1165   -0.4781   31.1171 C.3     1  UNL1        0.0207
      4 C           2.5682    0.7266   31.8228 C.3     1  UNL1        0.0232
      5 C           3.5578   -0.0572   32.6329 C.3     1  UNL1        0.0017
      6 C           3.9144    0.3907   34.0194 C.3     1  UNL1        0.0021
      7 C           3.2814    1.6225   34.5957 C.3     1  UNL1        0.0268
      8 C           2.2918    2.4063   33.7856 C.3     1  UNL1        0.1419
      9 C           1.6588    3.6379   34.3618 C.ar    1  UNL1        0.0616
     10 C           2.0154    4.0859   35.7483 C.ar    1  UNL1        0.1407
     11 F           2.9370    3.5600   36.8086 F       1  UNL1       -0.2043
     12 C           1.3824    5.3176   36.3247 C.ar    1  UNL1        0.0319
     13 C           0.3928    6.1015   35.5145 C.ar    1  UNL1        0.0351
     14 C           0.0362    5.6535   34.1280 C.ar    1  UNL1        0.1737
     15 F          -0.9534    6.4373   33.3179 F       1  UNL1       -0.2010
     16 C           0.6692    4.4218   33.5517 C.ar    1  UNL1        0.1654
     17 O           0.3126    3.9739   32.1653 O.3     1  UNL1       -0.4733
     18 C           0.9456    2.7422   31.5890 C.3     1  UNL1        0.2074
     19 C           1.9352    1.9583   32.3991 C.3     1  UNL1        0.0698
     20 C           1.6007    1.4048   30.8987 C.3     1  UNL1        0.0958
     21 O           1.6575    2.0467   28.0563 O.2     1  UNL1       -0.1495
     22 S           0.7119    0.9408   28.4208 S.O2    1  UNL1        0.1302
     23 O          -0.2337   -0.1651   28.7853 O.2     1  UNL1       -0.1495
     24 C          -0.1272    1.2625   27.2198 C.3     1  UNL1        0.5359
     25 F          -1.3688    1.1220   28.0497 F       1  UNL1       -0.1493
     26 F           1.1144    1.4030   26.3899 F       1  UNL1       -0.1493
     27 F          -0.9664    1.5841   26.0188 F       1  UNL1       -0.1493
     28 S           2.6484    2.8541   35.1719 S.O2    1  UNL1        0.0093
     29 O           2.0633    3.1285   35.6389 O.2     1  UNL1       -0.1684
     30 O           4.1286    2.6264   35.2576 O.2     1  UNL1       -0.1684
     31 C           3.0050    3.3020   36.5585 C.ar    1  UNL1        0.1059
     32 C           2.3011    2.7086   37.7427 C.ar    1  UNL1        0.0192
     33 C           2.6577    3.1565   39.1291 C.ar    1  UNL1        0.0127
     34 C           3.7183    4.1978   39.3313 C.ar    1  UNL1        0.0578
     35 CL          4.0750    4.6457   40.7177 Cl      1  UNL1       -0.0822
     36 C           4.4222    4.7912   38.1471 C.ar    1  UNL1        0.0127
     37 C           4.0656    4.3433   36.7607 C.ar    1  UNL1        0.0192
@<TRIPOS>BOND
     1    21    22    2
     2    22    23    2
     3    22     1    1
     4     1     2    1
     5     2     3    1
     6     4     3    1
     7     4     5    1
     8     5     6    1
     9     6     7    1
    10     7     8    1
    11     8    28    1
    12    28    29    2
    13    28    30    2
    14    28    31    1
    15    31    32   ar
    16    32    33   ar
    17    33    34   ar
    18    34    35    1
    19    34    36   ar
    20    36    37   ar
    21     8     9    1
    22     9    10   ar
    23    10    11    1
    24    10    12   ar
    25    12    13   ar
    26    13    14   ar
    27    14    15    1
    28    14    16   ar
    29    16    17    1
    30    17    18    1
    31    19    18    1
    32     4    20    1
    33    22    24    1
    34    24    25    1
    35    24    26    1
    36    24    27    1
    37    20     1    1
    38    19     4    1
    39    19     8    1
    40    37    31   ar
    41    16     9   ar
@<TRIPOS>MOLECULE
*****
 37 41 0 0 0
SMALL
GASTEIGER

@<TRIPOS>ATOM
      1 N         -10.8744   -4.4237   18.0947 N.3     1  UNL1       -0.1521
      2 C          -9.9525   -3.2801   17.7910 C.3     1  UNL1        0.0958
      3 C         -10.7305   -2.0060   17.9375 C.3     1  UNL1        0.0207
      4 C         -12.1333   -2.3622   18.3317 C.3     1  UNL1        0.0232
      5 C         -11.8937   -0.8878   18.1950 C.3     1  UNL1        0.0017
      6 C         -13.0113    0.0802   18.4477 C.3     1  UNL1        0.0021
      7 C         -14.3685   -0.4261   18.8370 C.3     1  UNL1        0.0268
      8 C         -14.6081   -1.9005   18.9736 C.3     1  UNL1        0.1419
      9 C         -15.9653   -2.4069   19.3629 C.ar    1  UNL1        0.0616
     10 C         -17.0829   -1.4388   19.6156 C.ar    1  UNL1        0.1407
     11 F         -17.1961    0.0563   19.5727 F       1  UNL1       -0.2043
     12 C         -18.4401   -1.9451   20.0049 C.ar    1  UNL1        0.0319
     13 C         -18.6797   -3.4196   20.1415 C.ar    1  UNL1        0.0351
     14 C         -17.5621   -4.3877   19.8888 C.ar    1  UNL1        0.1737
     15 F         -17.8017   -5.8621   20.0254 F       1  UNL1       -0.2010
     16 C         -16.2049   -3.8813   19.4995 C.ar    1  UNL1        0.1654
     17 O         -15.0874   -4.8493   19.2469 O.3     1  UNL1       -0.4733
     18 C         -13.7301   -4.3430   18.8576 C.3     1  UNL1        0.2074
     19 C         -13.4905   -2.8686   18.7209 C.3     1  UNL1        0.0698
     20 C         -12.2222   -3.8564   18.4288 C.3     1  UNL1        0.0958
     21 O         -11.4002   -6.0789   16.8765 O.2     1  UNL1       -0.1495
     22 S         -10.5122   -5.8791   18.0687 S.O2    1  UNL1        0.1302
     23 O          -9.6241   -5.6793   19.2609 O.2     1  UNL1       -0.1495
     24 C         -10.1499   -7.3345   18.0428 C.3     1  UNL1        0.5359
     25 F          -9.3558   -7.1593   19.3032 F       1  UNL1       -0.1493
     26 F         -10.9441   -7.5097   16.7824 F       1  UNL1       -0.1493
     27 F          -9.7877   -8.7898   18.0168 F       1  UNL1       -0.1493
     28 S         -15.7256   -0.9325   19.2263 S.O2    1  UNL1        0.0093
     29 O         -16.4437   -1.2283   19.4063 O.2     1  UNL1       -0.1684
     30 O         -15.0881    0.4132   19.0456 O.2     1  UNL1       -0.1684
     31 C         -16.8433    0.0356   19.4789 C.ar    1  UNL1        0.1059
     32 C         -17.7431    0.4527   18.3536 C.ar    1  UNL1        0.0192
     33 C         -18.8607    1.4207   18.6063 C.ar    1  UNL1        0.0127
     34 C         -19.0784    1.9718   19.9844 C.ar    1  UNL1        0.0578
     35 CL        -20.1960    2.9399   20.2371 Cl      1  UNL1       -0.0822
     36 C         -18.1786    1.5547   21.1097 C.ar    1  UNL1        0.0127
     37 C         -17.0610    0.5867   20.8570 C.ar    1  UNL1        0.0192
@<TRIPOS>BOND
     1    21    22    2
     2    22    23    2
     3    22     1    1
     4     1     2    1
     5     2     3    1
     6     4     3    1
     7     4     5    1
     8     5     6    1
     9     6     7    1
    10     7     8    1
    11     8    28    1
    12    28    29    2
    13    28    30    2
    14    28    31    1
    15    31    32   ar
    16    32    33   ar
    17    33    34   ar
    18    34    35    1
    19    34    36   ar
    20    36    37   ar
    21     8     9    1
    22     9    10   ar
    23    10    11    1
    24    10    12   ar
    25    12    13   ar
    26    13    14   ar
    27    14    15    1
    28    14    16   ar
    29    16    17    1
    30    17    18    1
    31    19    18    1
    32     4    20    1
    33    22    24    1
    34    24    25    1
    35    24    26    1
    36    24    27    1
    37    20     1    1
    38    19     4    1
    39    19     8    1
    40    37    31   ar
    41    16     9   ar
@<TRIPOS>MOLECULE
*****
 37 41 0 0 0
SMALL
GASTEIGER

@<TRIPOS>ATOM
      1 N           6.8237   -4.2298   26.0443 N.3     1  UNL1       -0.1521
      2 C           6.5981   -3.2591   27.1654 C.3     1  UNL1        0.0958
      3 C           5.7623   -2.1299   26.6397 C.3     1  UNL1        0.0207
      4 C           5.4712   -2.4028   25.1937 C.3     1  UNL1        0.0232
      5 C           4.8731   -1.1262   25.7061 C.3     1  UNL1        0.0017
      6 C           4.0675   -0.2544   24.7890 C.3     1  UNL1        0.0021
      7 C           3.8600   -0.6593   23.3597 C.3     1  UNL1        0.0268
      8 C           4.4581   -1.9358   22.8473 C.3     1  UNL1        0.1419
      9 C           4.2506   -2.3406   21.4180 C.ar    1  UNL1        0.0616
     10 C           3.4450   -1.4688   20.5010 C.ar    1  UNL1        0.1407
     11 F           2.7231   -0.1649   20.6703 F       1  UNL1       -0.2043
     12 C           3.2375   -1.8736   19.0716 C.ar    1  UNL1        0.0319
     13 C           3.8357   -3.1502   18.5593 C.ar    1  UNL1        0.0351
     14 C           4.6413   -4.0220   19.4763 C.ar    1  UNL1        0.1737
     15 F           5.2394   -5.2986   18.9639 F       1  UNL1       -0.2010
     16 C           4.8487   -3.6172   20.9057 C.ar    1  UNL1        0.1654
     17 O           5.6543   -4.4890   21.8226 O.3     1  UNL1       -0.4733
     18 C           5.8618   -4.0842   23.2520 C.3     1  UNL1        0.2074
     19 C           5.2637   -2.8076   23.7643 C.3     1  UNL1        0.0698
     20 C           6.1272   -3.7006   24.8258 C.3     1  UNL1        0.0958
     21 O           8.7627   -4.8408   25.4384 O.2     1  UNL1       -0.1495
     22 S           7.6080   -5.5058   26.1273 S.O2    1  UNL1        0.1302
     23 O           6.4534   -6.1707   26.8162 O.2     1  UNL1       -0.1495
     24 C           8.3923   -6.7817   26.2102 C.3     1  UNL1        0.5359
     25 F           7.6427   -7.3193   25.0274 F       1  UNL1       -0.1493
     26 F           9.1419   -6.2440   27.3930 F       1  UNL1       -0.1493
     27 F           9.1767   -8.0576   26.2932 F       1  UNL1       -0.1493
     28 S           3.6525   -1.0640   21.9304 S.O2    1  UNL1        0.0093
     29 O           3.7918   -1.1151   21.1471 O.2     1  UNL1       -0.1684
     30 O           2.7537   -0.2975   22.8549 O.2     1  UNL1       -0.1684
     31 C           2.8469   -0.1922   21.0133 C.ar    1  UNL1        0.1059
     32 C           1.3884   -0.4716   20.8021 C.ar    1  UNL1        0.0192
     33 C           0.5828    0.4003   19.8851 C.ar    1  UNL1        0.0127
     34 C           1.2357    1.5516   19.1793 C.ar    1  UNL1        0.0578
     35 CL          0.4302    2.4235   18.2623 Cl      1  UNL1       -0.0822
     36 C           2.6942    1.8310   19.3905 C.ar    1  UNL1        0.0127
     37 C           3.4998    0.9592   20.3075 C.ar    1  UNL1        0.0192
@<TRIPOS>BOND
     1    21    22    2
     2    22    23    2
     3    22     1    1
     4     1     2    1
     5     2     3    1
     6     4     3    1
     7     4     5    1
     8     5     6    1
     9     6     7    1
    10     7     8    1
    11     8    28    1
    12    28    29    2
    13    28    30    2
    14    28    31    1
    15    31    32   ar
    16    32    33   ar
    17    33    34   ar
    18    34    35    1
    19    34    36   ar
    20    36    37   ar
    21     8     9    1
    22     9    10   ar
    23    10    11    1
    24    10    12   ar
    25    12    13   ar
    26    13    14   ar
    27    14    15    1
    28    14    16   ar
    29    16    17    1
    30    17    18    1
    31    19    18    1
    32     4    20    1
    33    22    24    1
    34    24    25    1
    35    24    26    1
    36    24    27    1
    37    20     1    1
    38    19     4    1
    39    19     8    1
    40    37    31   ar
    41    16     9   ar
@<TRIPOS>MOLECULE
*****
 37 41 0 0 0
SMALL
GASTEIGER

@<TRIPOS>ATOM
      1 N           7.6525   -4.6784   28.1496 N.3     1  UNL1       -0.1521
      2 C           8.6447   -5.6562   27.5932 C.3     1  UNL1        0.0958
      3 C           8.5553   -5.6066   26.0967 C.3     1  UNL1        0.0207
      4 C           7.5079   -4.5982   25.7281 C.3     1  UNL1        0.0232
      5 C           8.1589   -5.2600   24.5500 C.3     1  UNL1        0.0017
      6 C           7.7425   -4.8902   23.1572 C.3     1  UNL1        0.0021
      7 C           6.6750   -3.8584   22.9426 C.3     1  UNL1        0.0268
      8 C           6.0240   -3.1966   24.1208 C.3     1  UNL1        0.1419
      9 C           4.9566   -2.1649   23.9062 C.ar    1  UNL1        0.0616
     10 C           4.5402   -1.7950   22.5133 C.ar    1  UNL1        0.1407
     11 F           4.9646   -2.2414   21.1456 F       1  UNL1       -0.2043
     12 C           3.4727   -0.7633   22.2987 C.ar    1  UNL1        0.0319
     13 C           2.8216   -0.1014   23.4769 C.ar    1  UNL1        0.0351
     14 C           3.2380   -0.4713   24.8697 C.ar    1  UNL1        0.1737
     15 F           2.5870    0.1906   26.0478 F       1  UNL1       -0.2010
     16 C           4.3055   -1.5030   25.0843 C.ar    1  UNL1        0.1654
     17 O           4.7219   -1.8728   26.4770 O.3     1  UNL1       -0.4733
     18 C           5.7893   -2.9046   26.6916 C.3     1  UNL1        0.2074
     19 C           6.4404   -3.5664   25.5135 C.3     1  UNL1        0.0698
     20 C           6.9499   -4.0245   26.9968 C.3     1  UNL1        0.0958
     21 O           6.7263   -5.7329   29.7402 O.2     1  UNL1       -0.1495
     22 S           7.4062   -4.4029   29.6033 S.O2    1  UNL1        0.1302
     23 O           8.0862   -3.0729   29.4665 O.2     1  UNL1       -0.1495
     24 C           7.1599   -4.1274   31.0571 C.3     1  UNL1        0.5359
     25 F           8.2417   -5.0994   31.4246 F       1  UNL1       -0.1493
     26 F           6.0782   -3.1554   30.6896 F       1  UNL1       -0.1493
     27 F           6.9136   -3.8519   32.5108 F       1  UNL1       -0.1493
     28 S           5.6076   -2.8268   22.7280 S.O2    1  UNL1        0.0093
     29 O           5.3682   -2.0780   22.5952 O.2     1  UNL1       -0.1684
     30 O           5.7870   -4.0946   21.9467 O.2     1  UNL1       -0.1684
     31 C           5.1912   -2.4569   21.3352 C.ar    1  UNL1        0.1059
     32 C           5.9162   -1.3691   20.5995 C.ar    1  UNL1        0.0192
     33 C           5.4998   -0.9993   19.2068 C.ar    1  UNL1        0.0127
     34 C           4.3584   -1.7173   18.5496 C.ar    1  UNL1        0.0578
     35 CL          3.9420   -1.3475   17.1568 Cl      1  UNL1       -0.0822
     36 C           3.6334   -2.8050   19.2852 C.ar    1  UNL1        0.0127
     37 C           4.0498   -3.1749   20.6780 C.ar    1  UNL1        0.0192
@<TRIPOS>BOND
     1    21    22    2
     2    22    23    2
     3    22     1    1
     4     1     2    1
     5     2     3    1
     6     4     3    1
     7     4     5    1
     8     5     6    1
     9     6     7    1
    10     7     8    1
    11     8    28    1
    12    28    29    2
    13    28    30    2
    14    28    31    1
    15    31    32   ar
    16    32    33   ar
    17    33    34   ar
    18    34    35    1
    19    34    36   ar
    20    36    37   ar
    21     8     9    1
    22     9    10   ar
    23    10    11    1
    24    10    12   ar
    25    12    13   ar
    26    13    14   ar
    27    14    15    1
    28    14    16   ar
    29    16    17    1
    30    17    18    1
    31    19    18    1
    32     4    20    1
    33    22    24    1
    34    24    25    1
    35    24    26    1
    36    24    27    1
    37    20     1    1
    38    19     4    1
    39    19     8    1
    40    37    31   ar
    41    16     9   ar
@<TRIPOS>MOLECULE
*****
 37 41 0 0 0
SMALL
GASTEIGER

@<TRIPOS>ATOM
      1 N           3.6346   -1.0051   20.8534 N.3     1  UNL1       -0.1521
      2 C           2.7934   -0.1368   21.7413 C.3     1  UNL1        0.0958
      3 C           3.1532   -0.4430   23.1649 C.3     1  UNL1        0.0207
      4 C           4.2168   -1.5007   23.1569 C.3     1  UNL1        0.0232
      5 C           3.8142   -1.0508   24.5300 C.3     1  UNL1        0.0017
      6 C           4.4659   -1.6550   25.7384 C.3     1  UNL1        0.0021
      7 C           5.5203   -2.7091   25.5737 C.3     1  UNL1        0.0268
      8 C           5.9230   -3.1590   24.2006 C.3     1  UNL1        0.1419
      9 C           6.9773   -4.2130   24.0359 C.ar    1  UNL1        0.0616
     10 C           7.6290   -4.8173   25.2444 C.ar    1  UNL1        0.1407
     11 F           7.4766   -4.6124   26.7225 F       1  UNL1       -0.2043
     12 C           8.6834   -5.8714   25.0797 C.ar    1  UNL1        0.0319
     13 C           9.0861   -6.3213   23.7065 C.ar    1  UNL1        0.0351
     14 C           8.4344   -5.7171   22.4981 C.ar    1  UNL1        0.1737
     15 F           8.8371   -6.1670   21.1251 F       1  UNL1       -0.2010
     16 C           7.3800   -4.6630   22.6628 C.ar    1  UNL1        0.1654
     17 O           6.7283   -4.0588   21.4545 O.3     1  UNL1       -0.4733
     18 C           5.6739   -3.0047   21.6192 C.3     1  UNL1        0.2074
     19 C           5.2712   -2.5548   22.9922 C.3     1  UNL1        0.0698
     20 C           4.5144   -1.8480   21.7284 C.3     1  UNL1        0.0958
     21 O           3.1608   -2.4600   19.3842 O.2     1  UNL1       -0.1495
     22 S           3.6019   -1.0267   19.3539 S.O2    1  UNL1        0.1302
     23 O           4.0430    0.4067   19.3237 O.2     1  UNL1       -0.1495
     24 C           3.5691   -1.0483   17.8545 C.3     1  UNL1        0.5359
     25 F           4.4578   -2.2567   17.8525 F       1  UNL1       -0.1493
     26 F           2.6804    0.1601   17.8565 F       1  UNL1       -0.1493
     27 F           3.5364   -1.0699   16.3550 F       1  UNL1       -0.1493
     28 S           6.5746   -3.7631   25.4090 S.O2    1  UNL1        0.0093
     29 O           6.9254   -4.4745   25.3289 O.2     1  UNL1       -0.1684
     30 O           6.3432   -2.7502   26.4909 O.2     1  UNL1       -0.1684
     31 C           7.2263   -4.3673   26.6175 C.ar    1  UNL1        0.1059
     32 C           6.6091   -5.5606   27.2847 C.ar    1  UNL1        0.0192
     33 C           7.2609   -6.1648   28.4931 C.ar    1  UNL1        0.0127
     34 C           8.5297   -5.5756   29.0343 C.ar    1  UNL1        0.0578
     35 CL          9.1814   -6.1798   30.2427 Cl      1  UNL1       -0.0822
     36 C           9.1468   -4.3823   28.3672 C.ar    1  UNL1        0.0127
     37 C           8.4951   -3.7782   27.1587 C.ar    1  UNL1        0.0192
@<TRIPOS>BOND
     1    21    22    2
     2    22    23    2
     3    22     1    1
     4     1     2    1
     5     2     3    1
     6     4     3    1
     7     4     5    1
     8     5     6    1
     9     6     7    1
    10     7     8    1
    11     8    28    1
    12    28    29    2
    13    28    30    2
    14    28    31    1
    15    31    32   ar
    16    32    33   ar
    17    33    34   ar
    18    34    35    1
    19    34    36   ar
    20    36    37   ar
    21     8     9    1
    22     9    10   ar
    23    10    11    1
    24    10    12   ar
    25    12    13   ar
    26    13    14   ar
    27    14    15    1
    28    14    16   ar
    29    16    17    1
    30    17    18    1
    31    19    18    1
    32     4    20    1
    33    22    24    1
    34    24    25    1
    35    24    26    1
    36    24    27    1
    37    20     1    1
    38    19     4    1
    39    19     8    1
    40    37    31   ar
    41    16     9   ar
@<TRIPOS>MOLECULE
*****
 37 41 0 0 0
SMALL
GASTEIGER

@<TRIPOS>ATOM
      1 N          -1.1367    2.9203   21.0375 N.3     1  UNL1       -0.1521
      2 C          -1.3356    3.2088   22.4960 C.3     1  UNL1        0.0958
      3 C          -0.2997    2.4439   23.2653 C.3     1  UNL1        0.0207
      4 C           0.5394    1.6826   22.2823 C.3     1  UNL1        0.0232
      5 C           0.9440    1.4834   23.7129 C.3     1  UNL1        0.0017
      6 C           2.0978    0.5853   24.0478 C.3     1  UNL1        0.0021
      7 C           2.8469   -0.1136   22.9522 C.3     1  UNL1        0.0268
      8 C           2.4423    0.0855   21.5217 C.3     1  UNL1        0.1419
      9 C           3.1914   -0.6133   20.4261 C.ar    1  UNL1        0.0616
     10 C           4.3452   -1.5115   20.7612 C.ar    1  UNL1        0.1407
     11 F           5.0037   -1.9278   22.0430 F       1  UNL1       -0.2043
     12 C           5.0944   -2.2104   19.6656 C.ar    1  UNL1        0.0319
     13 C           4.6897   -2.0112   18.2349 C.ar    1  UNL1        0.0351
     14 C           3.5359   -1.1131   17.9000 C.ar    1  UNL1        0.1737
     15 F           3.1312   -0.9140   16.4694 F       1  UNL1       -0.2010
     16 C           2.7867   -0.4142   18.9956 C.ar    1  UNL1        0.1654
     17 O           1.6330    0.4838   18.6605 O.3     1  UNL1       -0.4733
     18 C           0.8839    1.1828   19.7561 C.3     1  UNL1        0.2074
     19 C           1.2885    0.9836   21.1867 C.3     1  UNL1        0.0698
     20 C           0.0221    1.9770   20.9054 C.3     1  UNL1        0.0958
     21 O          -0.7242    4.1186   19.3363 O.2     1  UNL1       -0.1495
     22 S          -1.9532    3.4772   19.9092 S.O2    1  UNL1        0.1302
     23 O          -3.1823    2.8359   20.4820 O.2     1  UNL1       -0.1495
     24 C          -2.7698    4.0342   18.7809 C.3     1  UNL1        0.5359
     25 F          -1.5439    4.6897   18.2173 F       1  UNL1       -0.1493
     26 F          -3.9956    3.3787   19.3444 F       1  UNL1       -0.1493
     27 F          -3.5863    4.5912   17.6526 F       1  UNL1       -0.1493
     28 S           3.5960   -0.8125   21.8567 S.O2    1  UNL1        0.0093
     29 O           4.1327   -0.9612   21.2862 O.2     1  UNL1       -0.1684
     30 O           3.3611   -1.1858   23.2905 O.2     1  UNL1       -0.1684
     31 C           4.7499   -1.7106   22.1918 C.ar    1  UNL1        0.1059
     32 C           6.1316   -1.1408   22.3184 C.ar    1  UNL1        0.0192
     33 C           7.2854   -2.0389   22.6534 C.ar    1  UNL1        0.0127
     34 C           7.0574   -3.5068   22.8618 C.ar    1  UNL1        0.0578
     35 CL          8.2111   -4.4049   23.1969 Cl      1  UNL1       -0.0822
     36 C           5.6756   -4.0766   22.7353 C.ar    1  UNL1        0.0127
     37 C           4.5218   -3.1784   22.4002 C.ar    1  UNL1        0.0192
@<TRIPOS>BOND
     1    21    22    2
     2    22    23    2
     3    22     1    1
     4     1     2    1
     5     2     3    1
     6     4     3    1
     7     4     5    1
     8     5     6    1
     9     6     7    1
    10     7     8    1
    11     8    28    1
    12    28    29    2
    13    28    30    2
    14    28    31    1
    15    31    32   ar
    16    32    33   ar
    17    33    34   ar
    18    34    35    1
    19    34    36   ar
    20    36    37   ar
    21     8     9    1
    22     9    10   ar
    23    10    11    1
    24    10    12   ar
    25    12    13   ar
    26    13    14   ar
    27    14    15    1
    28    14    16   ar
    29    16    17    1
    30    17    18    1
    31    19    18    1
    32     4    20    1
    33    22    24    1
    34    24    25    1
    35    24    26    1
    36    24    27    1
    37    20     1    1
    38    19     4    1
    39    19     8    1
    40    37    31   ar
    41    16     9   ar
