@<TRIPOS>MOLECULE
*****
 51 55 0 0 0
SMALL
GASTEIGER

@<TRIPOS>ATOM
      1 N           2.7450    0.7602   29.4655 N.am    1  UNL1       -0.2724
      2 C           3.6664    0.5406   30.6286 C.2     1  UNL1        0.2491
      3 O           5.0987    0.9782   30.5437 O.2     1  UNL1       -0.2727
      4 C           3.2558    1.4172   28.2176 C.3     1  UNL1        0.1202
      5 C           3.4260    0.6134   26.9625 C.ar    1  UNL1       -0.0023
      6 C           4.0693   -0.7404   27.0204 C.ar    1  UNL1       -0.0026
      7 C           4.2395   -1.5440   25.7654 C.ar    1  UNL1       -0.0003
      8 C           3.7663   -0.9939   24.4525 C.ar    1  UNL1       -0.0000
      9 C           3.1231    0.3598   24.3947 C.ar    1  UNL1       -0.0003
     10 C           2.9529    1.1635   25.6497 C.ar    1  UNL1       -0.0026
     11 C           3.9366   -1.7977   23.1975 C.ar    1  UNL1       -0.0000
     12 C           4.7253   -3.0732   23.2249 C.ar    1  UNL1       -0.0001
     13 C           4.8955   -3.8770   21.9699 C.ar    1  UNL1        0.0039
     14 C           4.2770   -3.4052   20.6874 C.ar    1  UNL1        0.0714
     15 C           3.4881   -2.1296   20.6600 C.ar    1  UNL1        0.0039
     16 C           3.3180   -1.3259   21.9150 C.ar    1  UNL1       -0.0001
     17 C           4.4471   -4.2089   19.4324 C.3     1  UNL1        0.4186
     18 F           4.6173   -5.0125   18.1774 F       1  UNL1       -0.1659
     19 F           5.8835   -4.4571   19.7862 F       1  UNL1       -0.1659
     20 F           3.0108   -3.9606   19.0787 F       1  UNL1       -0.1659
     21 C           1.3127    0.3226   29.5504 C.3     1  UNL1        0.1111
     22 C           0.2312    1.3362   29.7803 C.3     1  UNL1        0.0939
     23 N           0.5750    2.6873   30.3337 N.3     1  UNL1       -0.2712
     24 C           1.7862    3.8944   32.2897 C.3     1  UNL1        0.0188
     25 C           0.8193    2.8555   31.8042 C.3     1  UNL1        0.0722
     26 C           0.6745    3.8702   29.4168 C.3     1  UNL1        0.0722
     27 C           0.4177    3.7044   27.9482 C.3     1  UNL1        0.0188
     28 C           3.1556   -0.1164   31.8766 C.3     1  UNL1        0.1934
     29 N           3.8952    0.0537   33.1704 N.ar    1  UNL1       -0.2979
     30 C           3.7473    1.3221   33.9576 C.ar    1  UNL1        0.0786
     31 C           4.4869    1.4923   35.2514 C.ar    1  UNL1        0.0574
     32 C           5.3744    0.3941   35.7581 C.ar    1  UNL1        0.2786
     33 O           6.1140    0.5643   37.0519 O.2     1  UNL1       -0.2654
     34 N           5.5222   -0.8741   34.9709 N.ar    1  UNL1       -0.1847
     35 C           4.7826   -1.0443   33.6770 C.ar    1  UNL1        0.1750
     36 C           4.3391    2.7605   36.0386 C.3     1  UNL1        0.0622
     37 C           3.6047    2.7501   37.3466 C.ar    1  UNL1        0.0220
     38 C           4.0390    3.4376   38.6070 C.ar    1  UNL1        0.1177
     39 N           3.0098    3.1628   39.6631 N.ar    1  UNL1       -0.1679
     40 N           1.9394    2.3055   39.0553 N.ar    1  UNL1       -0.2477
     41 C           0.7162    1.7932   39.7562 C.3     1  UNL1        0.1537
     42 C           2.3071    2.0504   37.6236 C.ar    1  UNL1        0.0927
     43 S           4.9305   -2.3125   32.8898 S.3     1  UNL1       -0.0724
     44 C           6.2910   -2.7719   32.4563 C.3     1  UNL1        0.0913
     45 C           6.4587   -3.4930   31.1518 C.ar    1  UNL1       -0.0108
     46 C           6.8524   -4.9403   31.1401 C.ar    1  UNL1       -0.0011
     47 C           7.0202   -5.6615   29.8356 C.ar    1  UNL1        0.0293
     48 C           6.7941   -4.9353   28.5427 C.ar    1  UNL1        0.1401
     49 F           6.9618   -5.6565   27.2382 F       1  UNL1       -0.2042
     50 C           6.4004   -3.4879   28.5544 C.ar    1  UNL1        0.0293
     51 C           6.2327   -2.7668   29.8589 C.ar    1  UNL1       -0.0011
@<TRIPOS>BOND
     1    24    25    1
     2    25    23    1
     3    23    26    1
     4    26    27    1
     5    23    22    1
     6    22    21    1
     7    21     1    1
     8     1     4    1
     9     4     5    1
    10     5     6   ar
    11     6     7   ar
    12     7     8   ar
    13     8    11    1
    14    11    12   ar
    15    12    13   ar
    16    13    14   ar
    17    14    17    1
    18    17    18    1
    19    17    19    1
    20    17    20    1
    21    14    15   ar
    22    15    16   ar
    23     8     9   ar
    24     9    10   ar
    25     1     2   am
    26     2     3    2
    27     2    28    1
    28    28    29    1
    29    29    30   ar
    30    30    31   ar
    31    31    36    1
    32    36    37    1
    33    37    38   ar
    34    38    39   ar
    35    39    40   ar
    36    40    41    1
    37    40    42   ar
    38    31    32   ar
    39    32    33    2
    40    32    34   ar
    41    34    35   ar
    42    35    43    1
    43    43    44    1
    44    44    45    1
    45    45    46   ar
    46    46    47   ar
    47    47    48   ar
    48    48    49    1
    49    48    50   ar
    50    50    51   ar
    51    10     5   ar
    52    35    29   ar
    53    51    45   ar
    54    16    11   ar
    55    42    37   ar
@<TRIPOS>MOLECULE
*****
 51 55 0 0 0
SMALL
GASTEIGER

@<TRIPOS>ATOM
      1 N           3.5875    0.4675   26.3657 N.am    1  UNL1       -0.2724
      2 C           4.0486   -0.2189   25.1142 C.2     1  UNL1        0.2491
      3 O           4.1406    0.5481   23.8285 O.2     1  UNL1       -0.2727
      4 C           3.2184    1.9210   26.3315 C.3     1  UNL1        0.1202
      5 C           1.7933    2.3277   26.0998 C.ar    1  UNL1       -0.0023
      6 C           0.8331    1.3669   25.4634 C.ar    1  UNL1       -0.0026
      7 C          -0.5919    1.7736   25.2318 C.ar    1  UNL1       -0.0003
      8 C          -1.0569    3.1411   25.6365 C.ar    1  UNL1       -0.0000
      9 C          -0.0967    4.1019   26.2729 C.ar    1  UNL1       -0.0003
     10 C           1.3283    3.6952   26.5045 C.ar    1  UNL1       -0.0026
     11 C          -2.4820    3.5478   25.4049 C.ar    1  UNL1       -0.0000
     12 C          -3.0319    3.5926   24.0100 C.ar    1  UNL1       -0.0001
     13 C          -4.4571    3.9993   23.7784 C.ar    1  UNL1        0.0039
     14 C          -5.3323    4.3612   24.9416 C.ar    1  UNL1        0.0714
     15 C          -4.7823    4.3164   26.3365 C.ar    1  UNL1        0.0039
     16 C          -3.3572    3.9097   26.5681 C.ar    1  UNL1       -0.0001
     17 C          -6.7574    4.7679   24.7100 C.3     1  UNL1        0.4186
     18 F          -8.1824    5.1746   24.4784 F       1  UNL1       -0.1659
     19 F          -6.7572    5.5106   26.0131 F       1  UNL1       -0.1659
     20 F          -6.7575    4.0251   23.4068 F       1  UNL1       -0.1659
     21 C           3.4955   -0.2996   27.6515 C.3     1  UNL1        0.1111
     22 C           2.1581   -0.5438   28.2850 C.3     1  UNL1        0.0939
     23 N           1.6036    0.4421   29.2702 N.3     1  UNL1       -0.2712
     24 C           2.9060    2.6055   29.8814 C.3     1  UNL1        0.0188
     25 C           2.5280    1.1866   30.1874 C.3     1  UNL1        0.0722
     26 C           0.1247    0.6836   29.3381 C.3     1  UNL1        0.0722
     27 C          -0.8082   -0.1333   28.4940 C.3     1  UNL1        0.0188
     28 C           4.4177   -1.6724   25.1485 C.3     1  UNL1        0.1934
     29 N           4.7427   -2.3939   23.8742 N.ar    1  UNL1       -0.2979
     30 C           3.9600   -2.1044   22.6278 C.ar    1  UNL1        0.0786
     31 C           4.2850   -2.8259   21.3535 C.ar    1  UNL1        0.0574
     32 C           5.3928   -3.8369   21.3257 C.ar    1  UNL1        0.2786
     33 O           5.7178   -4.5584   20.0514 O.2     1  UNL1       -0.2654
     34 N           6.1755   -4.1264   22.5721 N.ar    1  UNL1       -0.1847
     35 C           5.8504   -3.4049   23.8463 C.ar    1  UNL1        0.1750
     36 C           3.5024   -2.5364   20.1071 C.3     1  UNL1        0.0622
     37 C           2.9159   -1.1730   19.8893 C.ar    1  UNL1        0.0220
     38 C           3.6359    0.0170   19.3276 C.ar    1  UNL1        0.1177
     39 N           2.6715    1.1652   19.2862 N.ar    1  UNL1       -0.1679
     40 N           1.3555    0.6848   19.8225 N.ar    1  UNL1       -0.2477
     41 C           0.1077    1.5054   19.9615 C.3     1  UNL1        0.1537
     42 C           1.5066   -0.7602   20.1952 C.ar    1  UNL1        0.0927
     43 S           6.6331   -3.6944   25.0928 S.3     1  UNL1       -0.0724
     44 C           6.9339   -5.1129   25.4770 C.3     1  UNL1        0.0913
     45 C           7.2109   -5.4591   26.9100 C.ar    1  UNL1       -0.0108
     46 C           8.2712   -6.4651   27.2470 C.ar    1  UNL1       -0.0011
     47 C           8.5483   -6.8114   28.6800 C.ar    1  UNL1        0.0293
     48 C           7.7650   -6.1515   29.7759 C.ar    1  UNL1        0.1401
     49 F           8.0421   -6.4977   31.2088 F       1  UNL1       -0.2042
     50 C           6.7047   -5.1454   29.4389 C.ar    1  UNL1        0.0293
     51 C           6.4277   -4.7992   28.0059 C.ar    1  UNL1       -0.0011
@<TRIPOS>BOND
     1    24    25    1
     2    25    23    1
     3    23    26    1
     4    26    27    1
     5    23    22    1
     6    22    21    1
     7    21     1    1
     8     1     4    1
     9     4     5    1
    10     5     6   ar
    11     6     7   ar
    12     7     8   ar
    13     8    11    1
    14    11    12   ar
    15    12    13   ar
    16    13    14   ar
    17    14    17    1
    18    17    18    1
    19    17    19    1
    20    17    20    1
    21    14    15   ar
    22    15    16   ar
    23     8     9   ar
    24     9    10   ar
    25     1     2   am
    26     2     3    2
    27     2    28    1
    28    28    29    1
    29    29    30   ar
    30    30    31   ar
    31    31    36    1
    32    36    37    1
    33    37    38   ar
    34    38    39   ar
    35    39    40   ar
    36    40    41    1
    37    40    42   ar
    38    31    32   ar
    39    32    33    2
    40    32    34   ar
    41    34    35   ar
    42    35    43    1
    43    43    44    1
    44    44    45    1
    45    45    46   ar
    46    46    47   ar
    47    47    48   ar
    48    48    49    1
    49    48    50   ar
    50    50    51   ar
    51    10     5   ar
    52    35    29   ar
    53    51    45   ar
    54    16    11   ar
    55    42    37   ar
@<TRIPOS>MOLECULE
*****
 51 55 0 0 0
SMALL
GASTEIGER

@<TRIPOS>ATOM
      1 N           3.4244    0.6115   26.5944 N.am    1  UNL1       -0.2724
      2 C           3.9425   -0.1907   25.4376 C.2     1  UNL1        0.2491
      3 O           4.0860    0.4467   24.0874 O.2     1  UNL1       -0.2727
      4 C           3.0498    2.0510   26.4009 C.3     1  UNL1        0.1202
      5 C           1.6266    2.4227   26.1067 C.ar    1  UNL1       -0.0023
      6 C           0.9948    3.5871   26.8101 C.ar    1  UNL1       -0.0026
      7 C          -0.4283    3.9588   26.5158 C.ar    1  UNL1       -0.0003
      8 C          -1.2196    3.1659   25.5182 C.ar    1  UNL1       -0.0000
      9 C          -0.5878    2.0014   24.8148 C.ar    1  UNL1       -0.0003
     10 C           0.8353    1.6298   25.1091 C.ar    1  UNL1       -0.0026
     11 C          -2.6427    3.5376   25.2239 C.ar    1  UNL1       -0.0000
     12 C          -3.5562    3.9503   26.3398 C.ar    1  UNL1       -0.0001
     13 C          -4.9794    4.3220   26.0456 C.ar    1  UNL1        0.0039
     14 C          -5.4890    4.2809   24.6354 C.ar    1  UNL1        0.0714
     15 C          -4.5755    3.8682   23.5195 C.ar    1  UNL1        0.0039
     16 C          -3.1524    3.4965   23.8138 C.ar    1  UNL1       -0.0001
     17 C          -6.9121    4.6526   24.3412 C.3     1  UNL1        0.4186
     18 F          -8.3352    5.0242   24.0469 F       1  UNL1       -0.1659
     19 F          -6.9676    5.4468   25.6124 F       1  UNL1       -0.1659
     20 F          -6.8567    3.8583   23.0699 F       1  UNL1       -0.1659
     21 C           3.2809   -0.0260   27.9447 C.3     1  UNL1        0.1111
     22 C           1.9378   -0.5070   28.4080 C.3     1  UNL1        0.0939
     23 N           0.9017    0.4801   28.8573 N.3     1  UNL1       -0.2712
     24 C          -1.5740   -0.2609   29.1255 C.3     1  UNL1        0.0188
     25 C          -0.4957    0.3985   28.3180 C.3     1  UNL1        0.0722
     26 C           1.2628    1.5488   29.8460 C.3     1  UNL1        0.0722
     27 C           1.8616    1.1747   31.1695 C.3     1  UNL1        0.0188
     28 C           4.3170   -1.6303   25.6311 C.3     1  UNL1        0.1934
     29 N           4.9836   -2.3875   24.5210 N.ar    1  UNL1       -0.2979
     30 C           4.3342   -2.4659   23.1711 C.ar    1  UNL1        0.0786
     31 C           5.0008   -3.2232   22.0610 C.ar    1  UNL1        0.0574
     32 C           6.3168   -3.9020   22.3009 C.ar    1  UNL1        0.2786
     33 O           6.9833   -4.6593   21.1908 O.2     1  UNL1       -0.2654
     34 N           6.9661   -3.8236   23.6508 N.ar    1  UNL1       -0.1847
     35 C           6.2995   -3.0664   24.7608 C.ar    1  UNL1        0.1750
     36 C           4.3515   -3.3016   20.7112 C.3     1  UNL1        0.0622
     37 C           4.8521   -2.4437   19.5871 C.ar    1  UNL1        0.0220
     38 C           5.5596   -2.9277   18.3562 C.ar    1  UNL1        0.1177
     39 N           5.8778   -1.7343   17.5050 N.ar    1  UNL1       -0.1679
     40 N           5.3669   -0.5126   18.2098 N.ar    1  UNL1       -0.2477
     41 C           5.4716    0.8994   17.7148 C.3     1  UNL1        0.1537
     42 C           4.7330   -0.9511   19.4966 C.ar    1  UNL1        0.0927
     43 S           6.9488   -2.9879   26.1107 S.3     1  UNL1       -0.0724
     44 C           6.6952   -4.0603   27.1285 C.3     1  UNL1        0.0913
     45 C           6.5724   -3.7027   28.5800 C.ar    1  UNL1       -0.0108
     46 C           6.0699   -2.3468   28.9785 C.ar    1  UNL1       -0.0011
     47 C           5.9472   -1.9892   30.4301 C.ar    1  UNL1        0.0293
     48 C           6.3269   -2.9876   31.4832 C.ar    1  UNL1        0.1401
     49 F           6.2042   -2.6300   32.9347 F       1  UNL1       -0.2042
     50 C           6.8294   -4.3436   31.0846 C.ar    1  UNL1        0.0293
     51 C           6.9522   -4.7011   29.6331 C.ar    1  UNL1       -0.0011
@<TRIPOS>BOND
     1    24    25    1
     2    25    23    1
     3    23    26    1
     4    26    27    1
     5    23    22    1
     6    22    21    1
     7    21     1    1
     8     1     4    1
     9     4     5    1
    10     5     6   ar
    11     6     7   ar
    12     7     8   ar
    13     8    11    1
    14    11    12   ar
    15    12    13   ar
    16    13    14   ar
    17    14    17    1
    18    17    18    1
    19    17    19    1
    20    17    20    1
    21    14    15   ar
    22    15    16   ar
    23     8     9   ar
    24     9    10   ar
    25     1     2   am
    26     2     3    2
    27     2    28    1
    28    28    29    1
    29    29    30   ar
    30    30    31   ar
    31    31    36    1
    32    36    37    1
    33    37    38   ar
    34    38    39   ar
    35    39    40   ar
    36    40    41    1
    37    40    42   ar
    38    31    32   ar
    39    32    33    2
    40    32    34   ar
    41    34    35   ar
    42    35    43    1
    43    43    44    1
    44    44    45    1
    45    45    46   ar
    46    46    47   ar
    47    47    48   ar
    48    48    49    1
    49    48    50   ar
    50    50    51   ar
    51    10     5   ar
    52    35    29   ar
    53    51    45   ar
    54    16    11   ar
    55    42    37   ar
@<TRIPOS>MOLECULE
*****
 51 55 0 0 0
SMALL
GASTEIGER

@<TRIPOS>ATOM
      1 N           3.2317    1.3198   29.1846 N.am    1  UNL1       -0.2724
      2 C           2.9111    0.2244   30.1579 C.2     1  UNL1        0.2491
      3 O           1.7500   -0.6901   29.9021 O.2     1  UNL1       -0.2727
      4 C           2.3912    1.5007   27.9555 C.3     1  UNL1        0.1202
      5 C           2.6928    0.7093   26.7174 C.ar    1  UNL1       -0.0023
      6 C           3.6158   -0.4709   26.7880 C.ar    1  UNL1       -0.0026
      7 C           3.9174   -1.2622   25.5500 C.ar    1  UNL1       -0.0003
      8 C           3.2961   -0.8733   24.2413 C.ar    1  UNL1       -0.0000
      9 C           2.3731    0.3070   24.1707 C.ar    1  UNL1       -0.0003
     10 C           2.0715    1.0983   25.4087 C.ar    1  UNL1       -0.0026
     11 C           3.5977   -1.6647   23.0032 C.ar    1  UNL1       -0.0000
     12 C           3.0716   -1.2084   21.6747 C.ar    1  UNL1       -0.0001
     13 C           3.3732   -1.9998   20.4366 C.ar    1  UNL1        0.0039
     14 C           4.2010   -3.2474   20.5271 C.ar    1  UNL1        0.0714
     15 C           4.7272   -3.7037   21.8557 C.ar    1  UNL1        0.0039
     16 C           4.4255   -2.9123   23.0937 C.ar    1  UNL1       -0.0001
     17 C           4.5027   -4.0388   19.2891 C.3     1  UNL1        0.4186
     18 F           4.8043   -4.8302   18.0511 F       1  UNL1       -0.1659
     19 F           3.0508   -4.3937   19.1622 F       1  UNL1       -0.1659
     20 F           5.9545   -3.6840   19.4161 F       1  UNL1       -0.1659
     21 C           4.3929    2.2343   29.4404 C.3     1  UNL1        0.1111
     22 C           5.0769    2.9170   28.2933 C.3     1  UNL1        0.0939
     23 N           6.0630    2.1625   27.4517 N.3     1  UNL1       -0.2712
     24 C           5.1188    3.2484   25.2885 C.3     1  UNL1        0.0188
     25 C           5.9526    2.1953   25.9561 C.3     1  UNL1        0.0722
     26 C           7.1596    1.3751   28.1057 C.3     1  UNL1        0.0722
     27 C           8.4218    1.0780   27.3517 C.3     1  UNL1        0.0188
     28 C           3.7517    0.0435   31.3871 C.3     1  UNL1        0.1934
     29 N           4.8869   -0.9369   31.3817 N.ar    1  UNL1       -0.2979
     30 C           5.6625   -1.1795   30.1208 C.ar    1  UNL1        0.0786
     31 C           6.7977   -2.1600   30.1154 C.ar    1  UNL1        0.0574
     32 C           7.1573   -2.8979   31.3710 C.ar    1  UNL1        0.2786
     33 O           8.2925   -3.8783   31.3656 O.2     1  UNL1       -0.2654
     34 N           6.3818   -2.6553   32.6318 N.ar    1  UNL1       -0.1847
     35 C           5.2466   -1.6748   32.6371 C.ar    1  UNL1        0.1750
     36 C           7.5732   -2.4026   28.8546 C.3     1  UNL1        0.0622
     37 C           7.2946   -3.6212   28.0255 C.ar    1  UNL1        0.0220
     38 C           6.3155   -4.7082   28.3568 C.ar    1  UNL1        0.1177
     39 N           6.3621   -5.7255   27.2555 N.ar    1  UNL1       -0.1679
     40 N           7.3699   -5.2672   26.2434 N.ar    1  UNL1       -0.2477
     41 C           7.7370   -5.9836   24.9777 C.3     1  UNL1        0.1537
     42 C           7.9463   -3.9667   26.7193 C.ar    1  UNL1        0.0927
     43 S           4.4710   -1.4322   33.8979 S.3     1  UNL1       -0.0724
     44 C           5.0994   -0.6768   35.0314 C.3     1  UNL1        0.0913
     45 C           4.3387    0.4210   35.7140 C.ar    1  UNL1       -0.0108
     46 C           4.3332    0.5109   37.2113 C.ar    1  UNL1       -0.0011
     47 C           3.5725    1.6088   37.8939 C.ar    1  UNL1        0.0293
     48 C           2.8173    2.6168   37.0793 C.ar    1  UNL1        0.1401
     49 F           2.0566    3.7146   37.7619 F       1  UNL1       -0.2042
     50 C           2.8228    2.5268   35.5819 C.ar    1  UNL1        0.0293
     51 C           3.5835    1.4290   34.8993 C.ar    1  UNL1       -0.0011
@<TRIPOS>BOND
     1    24    25    1
     2    25    23    1
     3    23    26    1
     4    26    27    1
     5    23    22    1
     6    22    21    1
     7    21     1    1
     8     1     4    1
     9     4     5    1
    10     5     6   ar
    11     6     7   ar
    12     7     8   ar
    13     8    11    1
    14    11    12   ar
    15    12    13   ar
    16    13    14   ar
    17    14    17    1
    18    17    18    1
    19    17    19    1
    20    17    20    1
    21    14    15   ar
    22    15    16   ar
    23     8     9   ar
    24     9    10   ar
    25     1     2   am
    26     2     3    2
    27     2    28    1
    28    28    29    1
    29    29    30   ar
    30    30    31   ar
    31    31    36    1
    32    36    37    1
    33    37    38   ar
    34    38    39   ar
    35    39    40   ar
    36    40    41    1
    37    40    42   ar
    38    31    32   ar
    39    32    33    2
    40    32    34   ar
    41    34    35   ar
    42    35    43    1
    43    43    44    1
    44    44    45    1
    45    45    46   ar
    46    46    47   ar
    47    47    48   ar
    48    48    49    1
    49    48    50   ar
    50    50    51   ar
    51    10     5   ar
    52    35    29   ar
    53    51    45   ar
    54    16    11   ar
    55    42    37   ar
@<TRIPOS>MOLECULE
*****
 51 55 0 0 0
SMALL
GASTEIGER

@<TRIPOS>ATOM
      1 N           3.6133    1.3789   28.9911 N.am    1  UNL1       -0.2724
      2 C           3.3103    0.0937   29.7027 C.2     1  UNL1        0.2491
      3 O           2.3168   -0.8687   29.1225 O.2     1  UNL1       -0.2727
      4 C           2.9228    1.7018   27.6993 C.3     1  UNL1        0.1202
      5 C           3.1467    0.8386   26.4930 C.ar    1  UNL1       -0.0023
      6 C           2.1704    0.8726   25.3548 C.ar    1  UNL1       -0.0026
      7 C           2.3943    0.0095   24.1486 C.ar    1  UNL1       -0.0003
      8 C           3.5945   -0.8876   24.0807 C.ar    1  UNL1       -0.0000
      9 C           4.5709   -0.9216   25.2189 C.ar    1  UNL1       -0.0003
     10 C           4.3470   -0.0585   26.4251 C.ar    1  UNL1       -0.0026
     11 C           3.8184   -1.7507   22.8744 C.ar    1  UNL1       -0.0000
     12 C           3.2871   -1.3243   21.5381 C.ar    1  UNL1       -0.0001
     13 C           3.5110   -2.1875   20.3318 C.ar    1  UNL1        0.0039
     14 C           4.2662   -3.4769   20.4620 C.ar    1  UNL1        0.0714
     15 C           4.7976   -3.9032   21.7985 C.ar    1  UNL1        0.0039
     16 C           4.5737   -3.0401   23.0046 C.ar    1  UNL1       -0.0001
     17 C           4.4901   -4.3400   19.2559 C.3     1  UNL1        0.4186
     18 F           4.7140   -5.2031   18.0497 F       1  UNL1       -0.1659
     19 F           3.2763   -5.1476   19.6084 F       1  UNL1       -0.1659
     20 F           5.7039   -3.5324   18.9033 F       1  UNL1       -0.1659
     21 C           4.6069    2.3413   29.5714 C.3     1  UNL1        0.1111
     22 C           4.1410    3.4531   30.4640 C.3     1  UNL1        0.0939
     23 N           2.6733    3.7020   30.6482 N.3     1  UNL1       -0.2712
     24 C           0.8954    3.6379   32.5416 C.3     1  UNL1        0.0188
     25 C           1.9070    2.9356   31.6853 C.3     1  UNL1        0.0722
     26 C           1.9720    4.7172   29.7954 C.3     1  UNL1        0.0722
     27 C           0.8174    4.3025   28.9321 C.3     1  UNL1        0.0188
     28 C           4.0009   -0.2291   30.9946 C.3     1  UNL1        0.1934
     29 N           5.1603   -1.1808   31.0079 N.ar    1  UNL1       -0.2979
     30 C           5.9577   -1.4089   29.7580 C.ar    1  UNL1        0.0786
     31 C           7.1171   -2.3605   29.7712 C.ar    1  UNL1        0.0574
     32 C           7.4791   -3.0840   31.0344 C.ar    1  UNL1        0.2786
     33 O           8.6385   -4.0357   31.0477 O.2     1  UNL1       -0.2654
     34 N           6.6817   -2.8559   32.2842 N.ar    1  UNL1       -0.1847
     35 C           5.5223   -1.9043   32.2710 C.ar    1  UNL1        0.1750
     36 C           7.9145   -2.5886   28.5214 C.3     1  UNL1        0.0622
     37 C           7.5238   -3.6819   27.5715 C.ar    1  UNL1        0.0220
     38 C           6.8926   -3.4950   26.2237 C.ar    1  UNL1        0.1177
     39 N           6.6744   -4.8516   25.6220 N.ar    1  UNL1       -0.1679
     40 N           7.1708   -5.8769   26.5979 N.ar    1  UNL1       -0.2477
     41 C           7.1465   -7.3640   26.4031 C.3     1  UNL1        0.1537
     42 C           7.6957   -5.1540   27.8028 C.ar    1  UNL1        0.0927
     43 S           4.7249   -1.6762   33.5208 S.3     1  UNL1       -0.0724
     44 C           5.3250   -0.9134   34.6646 C.3     1  UNL1        0.0913
     45 C           4.5221    0.1419   35.3657 C.ar    1  UNL1       -0.0108
     46 C           4.4942    0.1908   36.8646 C.ar    1  UNL1       -0.0011
     47 C           3.6913    1.2462   37.5658 C.ar    1  UNL1        0.0293
     48 C           2.9163    2.2526   36.7680 C.ar    1  UNL1        0.1401
     49 F           2.1134    3.3079   37.4691 F       1  UNL1       -0.2042
     50 C           2.9442    2.2036   35.2690 C.ar    1  UNL1        0.0293
     51 C           3.7471    1.1483   34.5679 C.ar    1  UNL1       -0.0011
@<TRIPOS>BOND
     1    24    25    1
     2    25    23    1
     3    23    26    1
     4    26    27    1
     5    23    22    1
     6    22    21    1
     7    21     1    1
     8     1     4    1
     9     4     5    1
    10     5     6   ar
    11     6     7   ar
    12     7     8   ar
    13     8    11    1
    14    11    12   ar
    15    12    13   ar
    16    13    14   ar
    17    14    17    1
    18    17    18    1
    19    17    19    1
    20    17    20    1
    21    14    15   ar
    22    15    16   ar
    23     8     9   ar
    24     9    10   ar
    25     1     2   am
    26     2     3    2
    27     2    28    1
    28    28    29    1
    29    29    30   ar
    30    30    31   ar
    31    31    36    1
    32    36    37    1
    33    37    38   ar
    34    38    39   ar
    35    39    40   ar
    36    40    41    1
    37    40    42   ar
    38    31    32   ar
    39    32    33    2
    40    32    34   ar
    41    34    35   ar
    42    35    43    1
    43    43    44    1
    44    44    45    1
    45    45    46   ar
    46    46    47   ar
    47    47    48   ar
    48    48    49    1
    49    48    50   ar
    50    50    51   ar
    51    10     5   ar
    52    35    29   ar
    53    51    45   ar
    54    16    11   ar
    55    42    37   ar
@<TRIPOS>MOLECULE
*****
 51 55 0 0 0
SMALL
GASTEIGER

@<TRIPOS>ATOM
      1 N           7.3582   -3.3171   28.6385 N.am    1  UNL1       -0.2724
      2 C           7.5330   -2.4169   27.4515 C.2     1  UNL1        0.2491
      3 O           8.4196   -1.2109   27.5489 O.2     1  UNL1       -0.2727
      4 C           8.0699   -3.0113   29.9230 C.3     1  UNL1        0.1202
      5 C           7.3494   -2.2972   31.0280 C.ar    1  UNL1       -0.0023
      6 C           7.7606   -0.9080   31.4166 C.ar    1  UNL1       -0.0026
      7 C           7.0402   -0.1940   32.5215 C.ar    1  UNL1       -0.0003
      8 C           5.9084   -0.8691   33.2380 C.ar    1  UNL1       -0.0000
      9 C           5.4971   -2.2583   32.8494 C.ar    1  UNL1       -0.0003
     10 C           6.2176   -2.9723   31.7445 C.ar    1  UNL1       -0.0026
     11 C           5.1879   -0.1550   34.3430 C.ar    1  UNL1       -0.0000
     12 C           4.1368    0.8643   34.0171 C.ar    1  UNL1       -0.0001
     13 C           3.4163    1.5784   35.1221 C.ar    1  UNL1        0.0039
     14 C           3.7469    1.2732   36.5530 C.ar    1  UNL1        0.0714
     15 C           4.7981    0.2539   36.8789 C.ar    1  UNL1        0.0039
     16 C           5.5185   -0.4602   35.7739 C.ar    1  UNL1       -0.0001
     17 C           3.0265    1.9872   37.6580 C.3     1  UNL1        0.4186
     18 F           2.3061    2.7013   38.7630 F       1  UNL1       -0.1659
     19 F           2.5154    2.9962   36.6728 F       1  UNL1       -0.1659
     20 F           3.5376    0.9783   38.6432 F       1  UNL1       -0.1659
     21 C           6.4716   -4.5232   28.5410 C.3     1  UNL1        0.1111
     22 C           6.7973   -5.7589   29.3265 C.3     1  UNL1        0.0939
     23 N           8.0151   -6.5653   28.9852 N.3     1  UNL1       -0.2712
     24 C           8.9420   -6.4281   31.4085 C.3     1  UNL1        0.0188
     25 C           9.1724   -6.6160   29.9383 C.3     1  UNL1        0.0722
     26 C           8.0758   -7.3210   27.6909 C.3     1  UNL1        0.0722
     27 C           9.0132   -6.8778   26.6069 C.3     1  UNL1        0.0188
     28 C           6.8213   -2.7228   26.1670 C.3     1  UNL1        0.1934
     29 N           5.6388   -1.8994   25.7502 N.ar    1  UNL1       -0.2979
     30 C           5.0677   -0.8783   26.6890 C.ar    1  UNL1        0.0786
     31 C           3.8852   -0.0548   26.2723 C.ar    1  UNL1        0.0574
     32 C           3.2739   -0.2525   24.9168 C.ar    1  UNL1        0.2786
     33 O           2.0914    0.5710   24.5001 O.2     1  UNL1       -0.2654
     34 N           3.8450   -1.2735   23.9781 N.ar    1  UNL1       -0.1847
     35 C           5.0275   -2.0970   24.3948 C.ar    1  UNL1        0.1750
     36 C           3.3141    0.9662   27.2110 C.3     1  UNL1        0.0622
     37 C           2.1692    0.6019   28.1092 C.ar    1  UNL1        0.0220
     38 C           2.2804    0.0468   29.4982 C.ar    1  UNL1        0.1177
     39 N           0.8921   -0.1694   30.0235 N.ar    1  UNL1       -0.1679
     40 N          -0.0771    0.2522   28.9591 N.ar    1  UNL1       -0.2477
     41 C          -1.5730    0.2053   29.0601 C.3     1  UNL1        0.1537
     42 C           0.7122    0.7289   27.7760 C.ar    1  UNL1        0.0927
     43 S           5.5986   -3.1180   23.4562 S.3     1  UNL1       -0.0724
     44 C           4.7161   -3.7777   22.4382 C.3     1  UNL1        0.0913
     45 C           4.5948   -3.1957   21.0611 C.ar    1  UNL1       -0.0108
     46 C           5.5369   -3.6300   19.9777 C.ar    1  UNL1       -0.0011
     47 C           5.4156   -3.0480   18.6005 C.ar    1  UNL1        0.0293
     48 C           4.3521   -2.0318   18.3067 C.ar    1  UNL1        0.1401
     49 F           4.2308   -1.4498   16.9296 F       1  UNL1       -0.2042
     50 C           3.4100   -1.5975   19.3902 C.ar    1  UNL1        0.0293
     51 C           3.5313   -2.1795   20.7673 C.ar    1  UNL1       -0.0011
@<TRIPOS>BOND
     1    24    25    1
     2    25    23    1
     3    23    26    1
     4    26    27    1
     5    23    22    1
     6    22    21    1
     7    21     1    1
     8     1     4    1
     9     4     5    1
    10     5     6   ar
    11     6     7   ar
    12     7     8   ar
    13     8    11    1
    14    11    12   ar
    15    12    13   ar
    16    13    14   ar
    17    14    17    1
    18    17    18    1
    19    17    19    1
    20    17    20    1
    21    14    15   ar
    22    15    16   ar
    23     8     9   ar
    24     9    10   ar
    25     1     2   am
    26     2     3    2
    27     2    28    1
    28    28    29    1
    29    29    30   ar
    30    30    31   ar
    31    31    36    1
    32    36    37    1
    33    37    38   ar
    34    38    39   ar
    35    39    40   ar
    36    40    41    1
    37    40    42   ar
    38    31    32   ar
    39    32    33    2
    40    32    34   ar
    41    34    35   ar
    42    35    43    1
    43    43    44    1
    44    44    45    1
    45    45    46   ar
    46    46    47   ar
    47    47    48   ar
    48    48    49    1
    49    48    50   ar
    50    50    51   ar
    51    10     5   ar
    52    35    29   ar
    53    51    45   ar
    54    16    11   ar
    55    42    37   ar
@<TRIPOS>MOLECULE
*****
 51 55 0 0 0
SMALL
GASTEIGER

@<TRIPOS>ATOM
      1 N           2.5120    1.6951   23.3631 N.am    1  UNL1       -0.2724
      2 C           2.7691    2.5184   24.5903 C.2     1  UNL1        0.2491
      3 O           4.1773    2.8232   25.0075 O.2     1  UNL1       -0.2727
      4 C           3.6630    1.1767   22.5530 C.3     1  UNL1        0.1202
      5 C           4.3908   -0.0601   22.9898 C.ar    1  UNL1       -0.0023
      6 C           5.8200    0.0289   23.4363 C.ar    1  UNL1       -0.0026
      7 C           6.5477   -1.2078   23.8731 C.ar    1  UNL1       -0.0003
      8 C           5.8462   -2.5336   23.8634 C.ar    1  UNL1       -0.0000
      9 C           4.4170   -2.6227   23.4170 C.ar    1  UNL1       -0.0003
     10 C           3.6893   -1.3859   22.9802 C.ar    1  UNL1       -0.0026
     11 C           6.5740   -3.7704   24.3003 C.ar    1  UNL1       -0.0000
     12 C           7.2499   -4.6415   23.2833 C.ar    1  UNL1       -0.0001
     13 C           7.9777   -5.8783   23.7201 C.ar    1  UNL1        0.0039
     14 C           8.0295   -6.2440   25.1740 C.ar    1  UNL1        0.0714
     15 C           7.3534   -5.3728   26.1909 C.ar    1  UNL1        0.0039
     16 C           6.6257   -4.1361   25.7541 C.ar    1  UNL1       -0.0001
     17 C           8.7572   -7.4807   25.6108 C.3     1  UNL1        0.4186
     18 F           9.4849   -8.7174   26.0477 F       1  UNL1       -0.1659
     19 F           8.6760   -7.0245   27.0374 F       1  UNL1       -0.1659
     20 F           8.8384   -7.9368   24.1842 F       1  UNL1       -0.1659
     21 C           1.1037    1.3903   22.9460 C.3     1  UNL1        0.1111
     22 C           0.5078    2.0815   21.7556 C.3     1  UNL1        0.0939
     23 N           0.5752    1.4372   20.4027 N.3     1  UNL1       -0.2712
     24 C           1.6415   -0.9063   20.0548 C.3     1  UNL1        0.0188
     25 C           0.4293   -0.0500   20.2721 C.3     1  UNL1        0.0722
     26 C           0.7885    2.2801   19.1804 C.3     1  UNL1        0.0722
     27 C           0.8746    3.7726   19.3042 C.3     1  UNL1        0.0188
     28 C           1.6179    3.0368   25.4004 C.3     1  UNL1        0.1934
     29 N           0.9804    2.1649   26.4413 N.ar    1  UNL1       -0.2979
     30 C           1.8277    1.2485   27.2734 C.ar    1  UNL1        0.0786
     31 C           1.1902    0.3766   28.3142 C.ar    1  UNL1        0.0574
     32 C          -0.2946    0.4210   28.5229 C.ar    1  UNL1        0.2786
     33 O          -0.9321   -0.4509   29.5637 O.2     1  UNL1       -0.2654
     34 N          -1.1418    1.3374   27.6908 N.ar    1  UNL1       -0.1847
     35 C          -0.5043    2.2093   26.6499 C.ar    1  UNL1        0.1750
     36 C           2.0374   -0.5398   29.1464 C.3     1  UNL1        0.0622
     37 C           2.4535   -0.1284   30.5276 C.ar    1  UNL1        0.0220
     38 C           2.0394    1.1272   31.2360 C.ar    1  UNL1        0.1177
     39 N           2.6868    1.1311   32.5891 N.ar    1  UNL1       -0.1679
     40 N           3.5011   -0.1222   32.7170 N.ar    1  UNL1       -0.2477
     41 C           4.3163   -0.5261   33.9096 C.3     1  UNL1        0.1537
     42 C           3.3569   -0.9006   31.4429 C.ar    1  UNL1        0.0927
     43 S          -1.3515    3.1257   25.8178 S.3     1  UNL1       -0.0724
     44 C          -2.6380    3.6649   26.3694 C.3     1  UNL1        0.0913
     45 C          -3.8293    3.8264   25.4725 C.ar    1  UNL1       -0.0108
     46 C          -5.0372    4.5722   25.9570 C.ar    1  UNL1       -0.0011
     47 C          -6.2286    4.7338   25.0600 C.ar    1  UNL1        0.0293
     48 C          -6.2121    4.1495   23.6786 C.ar    1  UNL1        0.1401
     49 F          -7.4035    4.3111   22.7817 F       1  UNL1       -0.2042
     50 C          -5.0042    3.4037   23.1941 C.ar    1  UNL1        0.0293
     51 C          -3.8128    3.2421   24.0910 C.ar    1  UNL1       -0.0011
@<TRIPOS>BOND
     1    24    25    1
     2    25    23    1
     3    23    26    1
     4    26    27    1
     5    23    22    1
     6    22    21    1
     7    21     1    1
     8     1     4    1
     9     4     5    1
    10     5     6   ar
    11     6     7   ar
    12     7     8   ar
    13     8    11    1
    14    11    12   ar
    15    12    13   ar
    16    13    14   ar
    17    14    17    1
    18    17    18    1
    19    17    19    1
    20    17    20    1
    21    14    15   ar
    22    15    16   ar
    23     8     9   ar
    24     9    10   ar
    25     1     2   am
    26     2     3    2
    27     2    28    1
    28    28    29    1
    29    29    30   ar
    30    30    31   ar
    31    31    36    1
    32    36    37    1
    33    37    38   ar
    34    38    39   ar
    35    39    40   ar
    36    40    41    1
    37    40    42   ar
    38    31    32   ar
    39    32    33    2
    40    32    34   ar
    41    34    35   ar
    42    35    43    1
    43    43    44    1
    44    44    45    1
    45    45    46   ar
    46    46    47   ar
    47    47    48   ar
    48    48    49    1
    49    48    50   ar
    50    50    51   ar
    51    10     5   ar
    52    35    29   ar
    53    51    45   ar
    54    16    11   ar
    55    42    37   ar
@<TRIPOS>MOLECULE
*****
 51 55 0 0 0
SMALL
GASTEIGER

@<TRIPOS>ATOM
      1 N           4.0285    0.5120   30.9387 N.am    1  UNL1       -0.2724
      2 C           3.8111    1.5970   31.9513 C.2     1  UNL1        0.2491
      3 O           4.6750    2.8231   31.9340 O.2     1  UNL1       -0.2727
      4 C           5.1097    0.6531   29.9086 C.3     1  UNL1        0.1202
      5 C           4.8960    0.1272   28.5201 C.ar    1  UNL1       -0.0023
      6 C           3.9201    0.8039   27.6038 C.ar    1  UNL1       -0.0026
      7 C           3.7065    0.2780   26.2154 C.ar    1  UNL1       -0.0003
      8 C           4.4687   -0.9245   25.7433 C.ar    1  UNL1       -0.0000
      9 C           5.4446   -1.6012   26.6596 C.ar    1  UNL1       -0.0003
     10 C           5.6583   -1.0753   28.0480 C.ar    1  UNL1       -0.0026
     11 C           4.2551   -1.4503   24.3547 C.ar    1  UNL1       -0.0000
     12 C           4.9222   -2.7228   23.9237 C.ar    1  UNL1       -0.0001
     13 C           4.7085   -3.2486   22.5352 C.ar    1  UNL1        0.0039
     14 C           3.8277   -2.5020   21.5778 C.ar    1  UNL1        0.0714
     15 C           3.1606   -1.2295   22.0089 C.ar    1  UNL1        0.0039
     16 C           3.3742   -0.7037   23.3973 C.ar    1  UNL1       -0.0001
     17 C           3.6140   -3.0277   20.1893 C.3     1  UNL1        0.4186
     18 F           3.4003   -3.5535   18.8009 F       1  UNL1       -0.1659
     19 F           2.6569   -1.9066   19.9121 F       1  UNL1       -0.1659
     20 F           4.5711   -4.1489   20.4666 F       1  UNL1       -0.1659
     21 C           3.1645   -0.7142   30.9561 C.3     1  UNL1        0.1111
     22 C           3.5553   -1.8951   31.7944 C.3     1  UNL1        0.0939
     23 N           4.9008   -1.9326   32.4563 N.3     1  UNL1       -0.2712
     24 C           6.6595   -3.8083   32.0836 C.3     1  UNL1        0.0188
     25 C           6.0872   -2.4721   31.7137 C.3     1  UNL1        0.0722
     26 C           5.0599   -1.4307   33.8609 C.3     1  UNL1        0.0722
     27 C           6.1152   -0.4131   34.1786 C.3     1  UNL1        0.0188
     28 C           2.7299    1.4559   32.9814 C.3     1  UNL1        0.1934
     29 N           2.0238    2.6738   33.4993 N.ar    1  UNL1       -0.2979
     30 C           2.3859    3.2366   34.8418 C.ar    1  UNL1        0.0786
     31 C           1.6798    4.4545   35.3597 C.ar    1  UNL1        0.0574
     32 C           0.6117    5.1096   34.5350 C.ar    1  UNL1        0.2786
     33 O          -0.0944    6.3275   35.0529 O.2     1  UNL1       -0.2654
     34 N           0.2496    4.5468   33.1926 N.ar    1  UNL1       -0.1847
     35 C           0.9557    3.3289   32.6747 C.ar    1  UNL1        0.1750
     36 C           2.0419    5.0173   36.7021 C.3     1  UNL1        0.0622
     37 C           2.7137    4.1479   37.7234 C.ar    1  UNL1        0.0220
     38 C           2.0539    3.0778   38.5416 C.ar    1  UNL1        0.1177
     39 N           3.0957    2.4647   39.4297 N.ar    1  UNL1       -0.1679
     40 N           4.3995    3.1559   39.1603 N.ar    1  UNL1       -0.2477
     41 C           5.7093    2.8589   39.8283 C.3     1  UNL1        0.1537
     42 C           4.1633    4.1962   38.1058 C.ar    1  UNL1        0.0927
     43 S           0.5937    2.7661   31.3323 S.3     1  UNL1       -0.0724
     44 C           1.0389    3.4642   30.0815 C.3     1  UNL1        0.0913
     45 C           0.7765    2.8427   28.7418 C.ar    1  UNL1       -0.0108
     46 C          -0.0194    1.5750   28.6461 C.ar    1  UNL1       -0.0011
     47 C          -0.2818    0.9534   27.3064 C.ar    1  UNL1        0.0293
     48 C           0.2517    1.5997   26.0623 C.ar    1  UNL1        0.1401
     49 F          -0.0107    0.9782   24.7226 F       1  UNL1       -0.2042
     50 C           1.0477    2.8676   26.1580 C.ar    1  UNL1        0.0293
     51 C           1.3100    3.4891   27.4978 C.ar    1  UNL1       -0.0011
@<TRIPOS>BOND
     1    24    25    1
     2    25    23    1
     3    23    26    1
     4    26    27    1
     5    23    22    1
     6    22    21    1
     7    21     1    1
     8     1     4    1
     9     4     5    1
    10     5     6   ar
    11     6     7   ar
    12     7     8   ar
    13     8    11    1
    14    11    12   ar
    15    12    13   ar
    16    13    14   ar
    17    14    17    1
    18    17    18    1
    19    17    19    1
    20    17    20    1
    21    14    15   ar
    22    15    16   ar
    23     8     9   ar
    24     9    10   ar
    25     1     2   am
    26     2     3    2
    27     2    28    1
    28    28    29    1
    29    29    30   ar
    30    30    31   ar
    31    31    36    1
    32    36    37    1
    33    37    38   ar
    34    38    39   ar
    35    39    40   ar
    36    40    41    1
    37    40    42   ar
    38    31    32   ar
    39    32    33    2
    40    32    34   ar
    41    34    35   ar
    42    35    43    1
    43    43    44    1
    44    44    45    1
    45    45    46   ar
    46    46    47   ar
    47    47    48   ar
    48    48    49    1
    49    48    50   ar
    50    50    51   ar
    51    10     5   ar
    52    35    29   ar
    53    51    45   ar
    54    16    11   ar
    55    42    37   ar
@<TRIPOS>MOLECULE
*****
 51 55 0 0 0
SMALL
GASTEIGER

@<TRIPOS>ATOM
      1 N           2.6534    2.5403   30.3668 N.am    1  UNL1       -0.2724
      2 C           2.1921    1.5111   31.3557 C.2     1  UNL1        0.2491
      3 O           0.8970    1.7021   32.0880 O.2     1  UNL1       -0.2727
      4 C           1.8196    3.7604   30.1100 C.3     1  UNL1        0.1202
      5 C           0.7655    3.7377   29.0429 C.ar    1  UNL1       -0.0023
      6 C           0.2203    2.4282   28.5552 C.ar    1  UNL1       -0.0026
      7 C          -0.8337    2.4055   27.4882 C.ar    1  UNL1       -0.0003
      8 C          -1.3424    3.6922   26.9089 C.ar    1  UNL1       -0.0000
      9 C          -0.7972    5.0016   27.3967 C.ar    1  UNL1       -0.0003
     10 C           0.2568    5.0244   28.4637 C.ar    1  UNL1       -0.0026
     11 C          -2.3964    3.6694   25.8418 C.ar    1  UNL1       -0.0000
     12 C          -2.0009    3.5601   24.3991 C.ar    1  UNL1       -0.0001
     13 C          -3.0549    3.5373   23.3320 C.ar    1  UNL1        0.0039
     14 C          -4.5045    3.6238   23.7078 C.ar    1  UNL1        0.0714
     15 C          -4.9001    3.7331   25.1506 C.ar    1  UNL1        0.0039
     16 C          -3.8460    3.7559   26.2176 C.ar    1  UNL1       -0.0001
     17 C          -5.5585    3.6010   22.6408 C.3     1  UNL1        0.4186
     18 F          -6.6125    3.5783   21.5738 F       1  UNL1       -0.1659
     19 F          -6.4808    4.3749   23.5354 F       1  UNL1       -0.1659
     20 F          -4.6362    2.8272   21.7462 F       1  UNL1       -0.1659
     21 C           3.9486    2.3493   29.6345 C.3     1  UNL1        0.1111
     22 C           3.9529    2.2163   28.1405 C.3     1  UNL1        0.0939
     23 N           3.8693    0.8586   27.5082 N.3     1  UNL1       -0.2712
     24 C           2.6659    0.8106   25.2061 C.3     1  UNL1        0.0188
     25 C           2.6790    0.4927   26.6719 C.3     1  UNL1        0.0722
     26 C           4.9761   -0.1331   27.7120 C.3     1  UNL1        0.0722
     27 C           6.4050    0.2938   27.5498 C.3     1  UNL1        0.0188
     28 C           3.0260    0.2910   31.6124 C.3     1  UNL1        0.1934
     29 N           3.8203    0.1785   32.8799 N.ar    1  UNL1       -0.2979
     30 C           3.6744    1.2183   33.9512 C.ar    1  UNL1        0.0786
     31 C           4.4687    1.1058   35.2187 C.ar    1  UNL1        0.0574
     32 C           5.4089   -0.0465   35.4148 C.ar    1  UNL1        0.2786
     33 O           6.2033   -0.1590   36.6822 O.2     1  UNL1       -0.2654
     34 N           5.5548   -1.0862   34.3435 N.ar    1  UNL1       -0.1847
     35 C           4.7605   -0.9737   33.0760 C.ar    1  UNL1        0.1750
     36 C           4.3228    2.1455   36.2900 C.3     1  UNL1        0.0622
     37 C           3.1786    2.0705   37.2570 C.ar    1  UNL1        0.0220
     38 C           2.1757    3.1541   37.5220 C.ar    1  UNL1        0.1177
     39 N           1.2137    2.6521   38.5576 N.ar    1  UNL1       -0.1679
     40 N           1.6220    1.2583   38.9327 N.ar    1  UNL1       -0.2477
     41 C           0.9363    0.3784   39.9355 C.3     1  UNL1        0.1537
     42 C           2.8363    0.8989   38.1289 C.ar    1  UNL1        0.0927
     43 S           4.9064   -2.0134   32.0048 S.3     1  UNL1       -0.0724
     44 C           6.0094   -3.0266   32.0881 C.3     1  UNL1        0.0913
     45 C           6.4887   -3.7173   30.8459 C.ar    1  UNL1       -0.0108
     46 C           6.5420   -2.9709   29.5459 C.ar    1  UNL1       -0.0011
     47 C           7.0214   -3.6616   28.3036 C.ar    1  UNL1        0.0293
     48 C           7.4475   -5.0987   28.3614 C.ar    1  UNL1        0.1401
     49 F           7.9268   -5.7894   27.1192 F       1  UNL1       -0.2042
     50 C           7.3942   -5.8450   29.6615 C.ar    1  UNL1        0.0293
     51 C           6.9149   -5.1543   30.9037 C.ar    1  UNL1       -0.0011
@<TRIPOS>BOND
     1    24    25    1
     2    25    23    1
     3    23    26    1
     4    26    27    1
     5    23    22    1
     6    22    21    1
     7    21     1    1
     8     1     4    1
     9     4     5    1
    10     5     6   ar
    11     6     7   ar
    12     7     8   ar
    13     8    11    1
    14    11    12   ar
    15    12    13   ar
    16    13    14   ar
    17    14    17    1
    18    17    18    1
    19    17    19    1
    20    17    20    1
    21    14    15   ar
    22    15    16   ar
    23     8     9   ar
    24     9    10   ar
    25     1     2   am
    26     2     3    2
    27     2    28    1
    28    28    29    1
    29    29    30   ar
    30    30    31   ar
    31    31    36    1
    32    36    37    1
    33    37    38   ar
    34    38    39   ar
    35    39    40   ar
    36    40    41    1
    37    40    42   ar
    38    31    32   ar
    39    32    33    2
    40    32    34   ar
    41    34    35   ar
    42    35    43    1
    43    43    44    1
    44    44    45    1
    45    45    46   ar
    46    46    47   ar
    47    47    48   ar
    48    48    49    1
    49    48    50   ar
    50    50    51   ar
    51    10     5   ar
    52    35    29   ar
    53    51    45   ar
    54    16    11   ar
    55    42    37   ar
