@<TRIPOS>MOLECULE
*****
 23 25 0 0 0
SMALL
GASTEIGER

@<TRIPOS>ATOM
      1 C          -7.7090  -17.6463   22.2317 C.3     1  UNL1        0.1895
      2 C          -6.4165  -18.3593   21.9651 C.ar    1  UNL1        0.0172
      3 C          -6.3206  -19.3410   20.8349 C.ar    1  UNL1       -0.0008
      4 C          -5.0281  -20.0539   20.5684 C.ar    1  UNL1       -0.0002
      5 C          -3.8314  -19.7852   21.4320 C.ar    1  UNL1       -0.0000
      6 C          -3.9273  -18.8036   22.5621 C.ar    1  UNL1       -0.0002
      7 C          -5.2198  -18.0906   22.8286 C.ar    1  UNL1       -0.0008
      8 C          -7.7538  -16.5195   23.2208 C.3     1  UNL1        0.0615
      9 C          -8.1832  -16.6213   24.6544 C.3     1  UNL1        0.0224
     10 C          -8.0719  -15.2578   25.2696 C.3     1  UNL1        0.0687
     11 N          -7.5737  -14.3132   24.2161 N.3     1  UNL1       -0.2973
     12 C          -7.3771  -15.0931   22.9498 C.3     1  UNL1        0.0725
     13 H          -6.6878  -13.9023   24.5106 H       1  UNL1        0.1232
     14 O          -8.9566  -18.0601   21.5091 O.3     1  UNL1       -0.4717
     15 C         -11.2796  -16.9838   21.9514 C.ar    1  UNL1        0.1732
     16 C         -12.5965  -16.9855   22.6695 C.ar    1  UNL1        0.0514
     17 C         -12.9075  -18.0651   23.6633 C.ar    1  UNL1        0.0609
     18 CL        -14.2245  -18.0667   24.3814 Cl      1  UNL1       -0.0821
     19 C         -11.9016  -19.1431   23.9391 C.ar    1  UNL1        0.0147
     20 C         -10.5847  -19.1414   23.2210 C.ar    1  UNL1        0.0409
     21 C         -10.2737  -18.0618   22.2272 C.ar    1  UNL1        0.1726
     22 C         -11.6253  -15.9143   19.6091 C.3     1  UNL1        0.2526
     23 O         -10.9685  -15.9042   20.9576 O.3     1  UNL1       -0.4683
@<TRIPOS>BOND
     1    22    23    1
     2    23    15    1
     3    15    16   ar
     4    16    17   ar
     5    17    18    1
     6    17    19   ar
     7    19    20   ar
     8    20    21   ar
     9    21    14    1
    10     1    14    1
    11     1     2    1
    12     2     3   ar
    13     3     4   ar
    14     4     5   ar
    15     5     6   ar
    16     6     7   ar
    17     1     8    1
    18     8     9    1
    19     9    10    1
    20    10    11    1
    21    11    12    1
    22    21    15   ar
    23     7     2   ar
    24    12     8    1
    25    11    13    1
@<TRIPOS>MOLECULE
*****
 23 25 0 0 0
SMALL
GASTEIGER

@<TRIPOS>ATOM
      1 C          -8.6561  -16.5250   23.5926 C.3     1  UNL1        0.1895
      2 C         -10.0715  -17.0215   23.5795 C.ar    1  UNL1        0.0172
      3 C         -10.4303  -18.2838   24.3061 C.ar    1  UNL1       -0.0008
      4 C         -11.8457  -18.7803   24.2931 C.ar    1  UNL1       -0.0002
      5 C         -12.9023  -18.0144   23.5534 C.ar    1  UNL1       -0.0000
      6 C         -12.5436  -16.7521   22.8269 C.ar    1  UNL1       -0.0002
      7 C         -11.1282  -16.2557   22.8399 C.ar    1  UNL1       -0.0008
      8 C          -8.0540  -16.0091   24.8659 C.3     1  UNL1        0.0615
      9 C          -8.6171  -16.1904   26.2443 C.3     1  UNL1        0.0224
     10 C          -7.6942  -15.5147   27.2147 C.3     1  UNL1        0.0687
     11 N          -6.5606  -14.9157   26.4359 N.3     1  UNL1       -0.2973
     12 C          -6.7830  -15.2214   24.9843 C.3     1  UNL1        0.0725
     13 H          -5.6768  -15.3215   26.7436 H       1  UNL1        0.1232
     14 O          -7.8429  -16.5445   22.3324 O.3     1  UNL1       -0.4717
     15 C          -8.1197  -18.5956   20.7619 C.ar    1  UNL1        0.1732
     16 C          -7.6049  -19.8968   20.2215 C.ar    1  UNL1        0.0514
     17 C          -6.2986  -20.4479   20.7111 C.ar    1  UNL1        0.0609
     18 CL         -5.7838  -21.7491   20.1707 Cl      1  UNL1       -0.0821
     19 C          -5.5070  -19.6980   21.7412 C.ar    1  UNL1        0.0147
     20 C          -6.0218  -18.3969   22.2815 C.ar    1  UNL1        0.0409
     21 C          -7.3281  -17.8457   21.7919 C.ar    1  UNL1        0.1726
     22 C         -10.6552  -18.9039   20.2866 C.3     1  UNL1        0.2526
     23 O          -9.4260  -18.0445   20.2723 O.3     1  UNL1       -0.4683
@<TRIPOS>BOND
     1    22    23    1
     2    23    15    1
     3    15    16   ar
     4    16    17   ar
     5    17    18    1
     6    17    19   ar
     7    19    20   ar
     8    20    21   ar
     9    21    14    1
    10     1    14    1
    11     1     2    1
    12     2     3   ar
    13     3     4   ar
    14     4     5   ar
    15     5     6   ar
    16     6     7   ar
    17     1     8    1
    18     8     9    1
    19     9    10    1
    20    10    11    1
    21    11    12    1
    22    21    15   ar
    23     7     2   ar
    24    12     8    1
    25    11    13    1
@<TRIPOS>MOLECULE
*****
 23 25 0 0 0
SMALL
GASTEIGER

@<TRIPOS>ATOM
      1 C          -8.5783  -16.6240   23.4857 C.3     1  UNL1        0.1895
      2 C          -7.9570  -16.1499   24.7660 C.ar    1  UNL1        0.0172
      3 C          -8.7700  -16.1143   26.0261 C.ar    1  UNL1       -0.0008
      4 C          -8.1487  -15.6402   27.3064 C.ar    1  UNL1       -0.0002
      5 C          -6.7144  -15.2015   27.3266 C.ar    1  UNL1       -0.0000
      6 C          -5.9014  -15.2371   26.0666 C.ar    1  UNL1       -0.0002
      7 C          -6.5227  -15.7112   24.7863 C.ar    1  UNL1       -0.0008
      8 C         -10.0088  -17.0751   23.4683 C.3     1  UNL1        0.0615
      9 C         -10.5432  -18.3362   24.0797 C.3     1  UNL1        0.0224
     10 C         -12.0207  -18.3847   23.8256 C.3     1  UNL1        0.0687
     11 N         -12.3996  -17.1534   23.0572 N.3     1  UNL1       -0.2973
     12 C         -11.1560  -16.3439   22.8363 C.3     1  UNL1        0.0725
     13 H         -13.0776  -16.6081   23.5895 H       1  UNL1        0.1232
     14 O          -7.7691  -16.6472   22.2229 O.3     1  UNL1       -0.4717
     15 C          -8.0545  -18.7044   20.6620 C.ar    1  UNL1        0.1732
     16 C          -7.5422  -20.0072   20.1233 C.ar    1  UNL1        0.0514
     17 C          -6.2324  -20.5557   20.6067 C.ar    1  UNL1        0.0609
     18 CL         -5.7202  -21.8585   20.0679 Cl      1  UNL1       -0.0821
     19 C          -5.4349  -19.8013   21.6288 C.ar    1  UNL1        0.0147
     20 C          -5.9471  -18.4985   22.1676 C.ar    1  UNL1        0.0409
     21 C          -7.2569  -17.9501   21.6841 C.ar    1  UNL1        0.1726
     22 C         -10.5850  -19.0276   20.1701 C.3     1  UNL1        0.2526
     23 O          -9.3642  -18.1560   20.1786 O.3     1  UNL1       -0.4683
@<TRIPOS>BOND
     1    22    23    1
     2    23    15    1
     3    15    16   ar
     4    16    17   ar
     5    17    18    1
     6    17    19   ar
     7    19    20   ar
     8    20    21   ar
     9    21    14    1
    10     1    14    1
    11     1     2    1
    12     2     3   ar
    13     3     4   ar
    14     4     5   ar
    15     5     6   ar
    16     6     7   ar
    17     1     8    1
    18     8     9    1
    19     9    10    1
    20    10    11    1
    21    11    12    1
    22    21    15   ar
    23     7     2   ar
    24    12     8    1
    25    11    13    1
@<TRIPOS>MOLECULE
*****
 23 25 0 0 0
SMALL
GASTEIGER

@<TRIPOS>ATOM
      1 C          -8.8854  -16.8961   23.7322 C.3     1  UNL1        0.1895
      2 C          -7.9799  -16.2985   24.7681 C.ar    1  UNL1        0.0172
      3 C          -8.4703  -16.1080   26.1728 C.ar    1  UNL1       -0.0008
      4 C          -7.5648  -15.5104   27.2087 C.ar    1  UNL1       -0.0002
      5 C          -6.1689  -15.1033   26.8398 C.ar    1  UNL1       -0.0000
      6 C          -5.6787  -15.2939   25.4350 C.ar    1  UNL1       -0.0002
      7 C          -6.5841  -15.8915   24.3992 C.ar    1  UNL1       -0.0008
      8 C         -10.0015  -17.8080   24.1479 C.3     1  UNL1        0.0615
      9 C         -11.4550  -17.6270   23.8242 C.3     1  UNL1        0.0224
     10 C         -12.2118  -18.7681   24.4366 C.3     1  UNL1        0.0687
     11 N         -11.2262  -19.6545   25.1387 N.3     1  UNL1       -0.2973
     12 C          -9.8601  -19.0610   24.9603 C.3     1  UNL1        0.0725
     13 H         -11.2526  -20.5903   24.7339 H       1  UNL1        0.1232
     14 O          -8.6748  -16.5819   22.2807 O.3     1  UNL1       -0.4717
     15 C          -7.5429  -18.5179   20.9690 C.ar    1  UNL1        0.1732
     16 C          -7.6187  -19.6123   19.9460 C.ar    1  UNL1        0.0514
     17 C          -8.9020  -19.8651   19.2117 C.ar    1  UNL1        0.0609
     18 CL         -8.9777  -20.9595   18.1887 Cl      1  UNL1       -0.0821
     19 C         -10.1096  -19.0235   19.5004 C.ar    1  UNL1        0.0147
     20 C         -10.0338  -17.9291   20.5234 C.ar    1  UNL1        0.0409
     21 C          -8.7505  -17.6763   21.2577 C.ar    1  UNL1        0.1726
     22 C          -5.2851  -19.3851   21.9179 C.3     1  UNL1        0.2526
     23 O          -6.2596  -18.2652   21.7033 O.3     1  UNL1       -0.4683
@<TRIPOS>BOND
     1    22    23    1
     2    23    15    1
     3    15    16   ar
     4    16    17   ar
     5    17    18    1
     6    17    19   ar
     7    19    20   ar
     8    20    21   ar
     9    21    14    1
    10     1    14    1
    11     1     2    1
    12     2     3   ar
    13     3     4   ar
    14     4     5   ar
    15     5     6   ar
    16     6     7   ar
    17     1     8    1
    18     8     9    1
    19     9    10    1
    20    10    11    1
    21    11    12    1
    22    21    15   ar
    23     7     2   ar
    24    12     8    1
    25    11    13    1
@<TRIPOS>MOLECULE
*****
 23 25 0 0 0
SMALL
GASTEIGER

@<TRIPOS>ATOM
      1 C          -8.3484  -17.6127   21.7880 C.3     1  UNL1        0.1895
      2 C          -9.8457  -17.6793   21.8467 C.ar    1  UNL1        0.0172
      3 C         -10.6695  -16.9498   20.8271 C.ar    1  UNL1       -0.0008
      4 C         -12.1669  -17.0165   20.8858 C.ar    1  UNL1       -0.0002
      5 C         -12.8405  -17.8127   21.9640 C.ar    1  UNL1       -0.0000
      6 C         -12.0167  -18.5421   22.9835 C.ar    1  UNL1       -0.0002
      7 C         -10.5194  -18.4754   22.9248 C.ar    1  UNL1       -0.0008
      8 C          -7.5603  -18.8151   21.3600 C.3     1  UNL1        0.0615
      9 C          -7.3945  -19.3052   19.9520 C.3     1  UNL1        0.0224
     10 C          -6.5314  -20.5315   19.9867 C.3     1  UNL1        0.0687
     11 N          -6.1638  -20.7994   21.4162 N.3     1  UNL1       -0.2973
     12 C          -6.7998  -19.7385   22.2649 C.3     1  UNL1        0.0725
     13 H          -5.1501  -20.7680   21.5246 H       1  UNL1        0.1232
     14 O          -7.6391  -16.3436   22.1573 O.3     1  UNL1       -0.4717
     15 C          -6.0204  -15.8713   24.1338 C.ar    1  UNL1        0.1732
     16 C          -5.7977  -15.5293   25.5772 C.ar    1  UNL1        0.0514
     17 C          -6.9710  -15.3177   26.4875 C.ar    1  UNL1        0.0609
     18 CL         -6.7482  -14.9757   27.9310 Cl      1  UNL1       -0.0821
     19 C          -8.3669  -15.4481   25.9544 C.ar    1  UNL1        0.0147
     20 C          -8.5896  -15.7900   24.5110 C.ar    1  UNL1        0.0409
     21 C          -7.4163  -16.0016   23.6007 C.ar    1  UNL1        0.1726
     22 C          -4.0607  -17.3580   23.2977 C.3     1  UNL1        0.2526
     23 O          -4.8471  -16.0829   23.2235 O.3     1  UNL1       -0.4683
@<TRIPOS>BOND
     1    22    23    1
     2    23    15    1
     3    15    16   ar
     4    16    17   ar
     5    17    18    1
     6    17    19   ar
     7    19    20   ar
     8    20    21   ar
     9    21    14    1
    10     1    14    1
    11     1     2    1
    12     2     3   ar
    13     3     4   ar
    14     4     5   ar
    15     5     6   ar
    16     6     7   ar
    17     1     8    1
    18     8     9    1
    19     9    10    1
    20    10    11    1
    21    11    12    1
    22    21    15   ar
    23     7     2   ar
    24    12     8    1
    25    11    13    1
@<TRIPOS>MOLECULE
*****
 23 25 0 0 0
SMALL
GASTEIGER

@<TRIPOS>ATOM
      1 C          -8.7607  -17.5617   23.0743 C.3     1  UNL1        0.1895
      2 C         -10.1011  -17.3255   22.4438 C.ar    1  UNL1        0.0172
      3 C         -10.2329  -16.3641   21.2999 C.ar    1  UNL1       -0.0008
      4 C         -11.5733  -16.1279   20.6693 C.ar    1  UNL1       -0.0002
      5 C         -12.7819  -16.8531   21.1827 C.ar    1  UNL1       -0.0000
      6 C         -12.6500  -17.8144   22.3265 C.ar    1  UNL1       -0.0002
      7 C         -11.3096  -18.0507   22.9571 C.ar    1  UNL1       -0.0008
      8 C          -8.1237  -16.4885   23.9064 C.3     1  UNL1        0.0615
      9 C          -8.3312  -16.2725   25.3762 C.3     1  UNL1        0.0224
     10 C          -7.5031  -15.0933   25.7929 C.3     1  UNL1        0.0687
     11 N          -6.7837  -14.5804   24.5807 N.3     1  UNL1       -0.2973
     12 C          -7.1673  -15.4427   23.4147 C.3     1  UNL1        0.0725
     13 H          -5.7759  -14.6285   24.7300 H       1  UNL1        0.1232
     14 O          -8.0573  -18.8712   22.8728 O.3     1  UNL1       -0.4717
     15 C          -6.9961  -19.0104   20.5054 C.ar    1  UNL1        0.1732
     16 C          -5.7811  -19.0819   19.6286 C.ar    1  UNL1        0.0514
     17 C          -4.4125  -19.0859   20.2424 C.ar    1  UNL1        0.0609
     18 CL         -3.1975  -19.1575   19.3656 Cl      1  UNL1       -0.0821
     19 C          -4.2587  -19.0182   21.7330 C.ar    1  UNL1        0.0147
     20 C          -5.4737  -18.9467   22.6097 C.ar    1  UNL1        0.0409
     21 C          -6.8423  -18.9427   21.9959 C.ar    1  UNL1        0.1726
     22 C          -8.7381  -20.0536   18.8847 C.3     1  UNL1        0.2526
     23 O          -8.3647  -19.0064   19.8916 O.3     1  UNL1       -0.4683
@<TRIPOS>BOND
     1    22    23    1
     2    23    15    1
     3    15    16   ar
     4    16    17   ar
     5    17    18    1
     6    17    19   ar
     7    19    20   ar
     8    20    21   ar
     9    21    14    1
    10     1    14    1
    11     1     2    1
    12     2     3   ar
    13     3     4   ar
    14     4     5   ar
    15     5     6   ar
    16     6     7   ar
    17     1     8    1
    18     8     9    1
    19     9    10    1
    20    10    11    1
    21    11    12    1
    22    21    15   ar
    23     7     2   ar
    24    12     8    1
    25    11    13    1
@<TRIPOS>MOLECULE
*****
 23 25 0 0 0
SMALL
GASTEIGER

@<TRIPOS>ATOM
      1 C          -8.5662  -17.4685   21.5868 C.3     1  UNL1        0.1895
      2 C          -7.7538  -18.6713   21.2081 C.ar    1  UNL1        0.0172
      3 C          -6.7442  -19.2270   22.1683 C.ar    1  UNL1       -0.0008
      4 C          -5.9319  -20.4298   21.7897 C.ar    1  UNL1       -0.0002
      5 C          -6.1290  -21.0768   20.4508 C.ar    1  UNL1       -0.0000
      6 C          -7.1386  -20.5210   19.4906 C.ar    1  UNL1       -0.0002
      7 C          -7.9509  -19.3182   19.8693 C.ar    1  UNL1       -0.0008
      8 C         -10.0640  -17.5270   21.5301 C.3     1  UNL1        0.0615
      9 C         -10.9562  -18.2360   22.5053 C.3     1  UNL1        0.0224
     10 C         -12.3762  -18.0339   22.0661 C.3     1  UNL1        0.0687
     11 N         -12.3615  -17.1999   20.8194 N.3     1  UNL1       -0.2973
     12 C         -10.9324  -16.8866   20.4881 C.3     1  UNL1        0.0725
     13 H         -12.8784  -16.3345   20.9757 H       1  UNL1        0.1232
     14 O          -7.8808  -16.2073   22.0222 O.3     1  UNL1       -0.4717
     15 C          -6.2482  -15.8839   24.0172 C.ar    1  UNL1        0.1732
     16 C          -6.0150  -15.6221   25.4756 C.ar    1  UNL1        0.0514
     17 C          -7.1812  -15.4219   26.3975 C.ar    1  UNL1        0.0609
     18 CL         -6.9480  -15.1601   27.8560 Cl      1  UNL1       -0.0821
     19 C          -8.5806  -15.4835   25.8610 C.ar    1  UNL1        0.0147
     20 C          -8.8138  -15.7453   24.4025 C.ar    1  UNL1        0.0409
     21 C          -7.6476  -15.9455   23.4807 C.ar    1  UNL1        0.1726
     22 C          -4.0870  -17.1725   23.3700 C.3     1  UNL1        0.2526
     23 O          -5.0820  -16.0841   23.0953 O.3     1  UNL1       -0.4683
@<TRIPOS>BOND
     1    22    23    1
     2    23    15    1
     3    15    16   ar
     4    16    17   ar
     5    17    18    1
     6    17    19   ar
     7    19    20   ar
     8    20    21   ar
     9    21    14    1
    10     1    14    1
    11     1     2    1
    12     2     3   ar
    13     3     4   ar
    14     4     5   ar
    15     5     6   ar
    16     6     7   ar
    17     1     8    1
    18     8     9    1
    19     9    10    1
    20    10    11    1
    21    11    12    1
    22    21    15   ar
    23     7     2   ar
    24    12     8    1
    25    11    13    1
@<TRIPOS>MOLECULE
*****
 23 25 0 0 0
SMALL
GASTEIGER

@<TRIPOS>ATOM
      1 C          -7.5851  -18.1752   21.6750 C.3     1  UNL1        0.1895
      2 C          -6.2856  -18.8803   21.4220 C.ar    1  UNL1        0.0172
      3 C          -5.1419  -18.7108   22.3777 C.ar    1  UNL1       -0.0008
      4 C          -3.8424  -19.4159   22.1248 C.ar    1  UNL1       -0.0002
      5 C          -3.6865  -20.2906   20.9161 C.ar    1  UNL1       -0.0000
      6 C          -4.8302  -20.4601   19.9605 C.ar    1  UNL1       -0.0002
      7 C          -6.1297  -19.7549   20.2134 C.ar    1  UNL1       -0.0008
      8 C          -8.8782  -18.9299   21.5831 C.3     1  UNL1        0.0615
      9 C          -9.4960  -19.7564   22.6718 C.3     1  UNL1        0.0224
     10 C         -10.7801  -20.3279   22.1479 C.3     1  UNL1        0.0687
     11 N         -10.9559  -19.8547   20.7353 N.3     1  UNL1       -0.2973
     12 C          -9.7804  -18.9906   20.3863 C.3     1  UNL1        0.0725
     13 H         -11.8179  -19.3151   20.6558 H       1  UNL1        0.1232
     14 O          -7.5916  -16.7154   22.0198 O.3     1  UNL1       -0.4717
     15 C          -8.5466  -16.3694   24.4111 C.ar    1  UNL1        0.1732
     16 C          -8.3593  -15.9341   25.8342 C.ar    1  UNL1        0.0514
     17 C          -7.0298  -15.4094   26.2893 C.ar    1  UNL1        0.0609
     18 CL         -6.8425  -14.9741   27.7125 Cl      1  UNL1       -0.0821
     19 C          -5.8875  -15.3201   25.3212 C.ar    1  UNL1        0.0147
     20 C          -6.0748  -15.7554   23.8980 C.ar    1  UNL1        0.0409
     21 C          -7.4044  -16.2801   23.4430 C.ar    1  UNL1        0.1726
     22 C         -10.7028  -16.1027   22.9864 C.3     1  UNL1        0.2526
     23 O          -9.8761  -16.8941   23.9561 O.3     1  UNL1       -0.4683
@<TRIPOS>BOND
     1    22    23    1
     2    23    15    1
     3    15    16   ar
     4    16    17   ar
     5    17    18    1
     6    17    19   ar
     7    19    20   ar
     8    20    21   ar
     9    21    14    1
    10     1    14    1
    11     1     2    1
    12     2     3   ar
    13     3     4   ar
    14     4     5   ar
    15     5     6   ar
    16     6     7   ar
    17     1     8    1
    18     8     9    1
    19     9    10    1
    20    10    11    1
    21    11    12    1
    22    21    15   ar
    23     7     2   ar
    24    12     8    1
    25    11    13    1
@<TRIPOS>MOLECULE
*****
 23 25 0 0 0
SMALL
GASTEIGER

@<TRIPOS>ATOM
      1 C          -7.3318  -18.3062   22.5927 C.3     1  UNL1        0.1895
      2 C          -8.5778  -18.8792   21.9852 C.ar    1  UNL1        0.0172
      3 C          -8.7634  -18.8610   20.4968 C.ar    1  UNL1       -0.0008
      4 C         -10.0095  -19.4340   19.8893 C.ar    1  UNL1       -0.0002
      5 C         -11.0699  -20.0252   20.7702 C.ar    1  UNL1       -0.0000
      6 C         -10.8843  -20.0434   22.2586 C.ar    1  UNL1       -0.0002
      7 C          -9.6382  -19.4705   22.8661 C.ar    1  UNL1       -0.0008
      8 C          -7.3148  -16.8835   23.0678 C.3     1  UNL1        0.0615
      9 C          -6.5929  -16.3662   24.2766 C.3     1  UNL1        0.0224
     10 C          -6.8487  -14.8913   24.3734 C.3     1  UNL1        0.0687
     11 N          -7.7287  -14.4971   23.2243 N.3     1  UNL1       -0.2973
     12 C          -8.0167  -15.7284   22.4174 C.3     1  UNL1        0.0725
     13 H          -7.2519  -13.8068   22.6442 H       1  UNL1        0.1232
     14 O          -6.1028  -19.1559   22.7251 O.3     1  UNL1       -0.4717
     15 C          -4.5558  -19.0629   20.6398 C.ar    1  UNL1        0.1732
     16 C          -3.2732  -18.6326   19.9920 C.ar    1  UNL1        0.0514
     17 C          -2.2548  -17.8649   20.7817 C.ar    1  UNL1        0.0609
     18 CL         -0.9722  -17.4346   20.1338 Cl      1  UNL1       -0.0821
     19 C          -2.5191  -17.5276   22.2191 C.ar    1  UNL1        0.0147
     20 C          -3.8017  -17.9579   22.8669 C.ar    1  UNL1        0.0409
     21 C          -4.8201  -18.7256   22.0772 C.ar    1  UNL1        0.1726
     22 C          -5.8867  -21.2526   20.2109 C.3     1  UNL1        0.2526
     23 O          -5.5742  -19.8306   19.8501 O.3     1  UNL1       -0.4683
@<TRIPOS>BOND
     1    22    23    1
     2    23    15    1
     3    15    16   ar
     4    16    17   ar
     5    17    18    1
     6    17    19   ar
     7    19    20   ar
     8    20    21   ar
     9    21    14    1
    10     1    14    1
    11     1     2    1
    12     2     3   ar
    13     3     4   ar
    14     4     5   ar
    15     5     6   ar
    16     6     7   ar
    17     1     8    1
    18     8     9    1
    19     9    10    1
    20    10    11    1
    21    11    12    1
    22    21    15   ar
    23     7     2   ar
    24    12     8    1
    25    11    13    1
