@<TRIPOS>MOLECULE
*****
 38 41 0 0 0
SMALL
GASTEIGER

@<TRIPOS>ATOM
      1 N          -9.2372  -19.3775   22.8059 N.pl3   1  UNL1       -0.3316
      2 H          -9.6675  -20.2309   23.0423 H       1  UNL1        0.1468
      3 C          -7.9226  -19.3753   22.0835 C.ar    1  UNL1        0.0577
      4 C          -6.6440  -19.2260   22.8535 C.ar    1  UNL1        0.0462
      5 C          -5.3294  -19.2237   22.1310 C.ar    1  UNL1        0.1602
      6 F          -4.0507  -19.0745   22.9010 F       1  UNL1       -0.2027
      7 C          -5.2934  -19.3707   20.6387 C.ar    1  UNL1        0.1534
      8 C          -6.5720  -19.5200   19.8687 C.ar    1  UNL1        0.0351
      9 C          -7.8866  -19.5222   20.5911 C.ar    1  UNL1        0.0722
     10 CL         -9.1652  -19.6715   19.8211 Cl      1  UNL1       -0.0809
     11 S          -3.9788  -19.3684   19.9163 S.O2    1  UNL1        0.0772
     12 O          -4.4081  -18.1597   19.1389 O.2     1  UNL1       -0.1498
     13 O          -3.5495  -20.5772   20.6938 O.2     1  UNL1       -0.1498
     14 N          -2.6642  -19.3661   19.1939 N.pl3   1  UNL1       -0.1936
     15 H          -2.5244  -19.9638   18.4242 H       1  UNL1        0.1758
     16 C          -1.5626  -18.4532   19.6443 C.ar    1  UNL1        0.1786
     17 N          -0.0914  -18.7120   19.5072 N.ar    1  UNL1       -0.2214
     18 C           0.6417  -17.5399   20.0890 C.ar    1  UNL1        0.1079
     19 C          -0.3763  -16.5566   20.5858 C.ar    1  UNL1        0.0588
     20 S          -1.7386  -17.1210   20.3110 S.2     1  UNL1       -0.0497
     21 C          -9.8962  -18.0796   23.1680 C.3     1  UNL1        0.0927
     22 C         -11.0661  -17.0649   21.0820 C.3     1  UNL1        0.0600
     23 C         -11.1825  -15.9723   20.0609 C.3     1  UNL1        0.0208
     24 C         -10.2454  -14.8019   20.1047 C.3     1  UNL1        0.0271
     25 C          -9.1919  -14.7240   21.1695 C.2     1  UNL1       -0.0303
     26 C          -9.0755  -15.8166   22.1906 C.2     1  UNL1       -0.0238
     27 C         -10.0126  -16.9870   22.1468 C.3     1  UNL1        0.0559
     28 C          -8.0220  -15.7388   23.2556 C.ar    1  UNL1       -0.0040
     29 C          -8.4199  -15.6254   24.6974 C.ar    1  UNL1        0.0020
     30 C          -7.3664  -15.5475   25.7623 C.ar    1  UNL1        0.0296
     31 C          -5.9149  -15.5831   25.3854 C.ar    1  UNL1        0.1401
     32 F          -4.8614  -15.5053   26.4503 F       1  UNL1       -0.2042
     33 C          -5.5170  -15.6965   23.9436 C.ar    1  UNL1        0.0296
     34 C          -6.5705  -15.7744   22.8787 C.ar    1  UNL1        0.0020
     35 N         -12.0032  -18.2353   21.0382 N.3     1  UNL1       -0.2982
     36 H         -12.2288  -18.3953   20.0564 H       1  UNL1        0.1232
     37 C         -13.3280  -17.8164   23.2335 C.3     1  UNL1        0.0185
     38 C         -13.3066  -18.1807   21.7786 C.3     1  UNL1        0.0686
@<TRIPOS>BOND
     1    37    38    1
     2    38    35    1
     3    22    35    1
     4    22    23    1
     5    23    24    1
     6    24    25    1
     7    25    26    2
     8    26    28    1
     9    28    29   ar
    10    29    30   ar
    11    30    31   ar
    12    31    32    1
    13    31    33   ar
    14    33    34   ar
    15    26    27    1
    16    27    21    1
    17    21     1    1
    18     1     3    1
    19     3     4   ar
    20     4     5   ar
    21     5     6    1
    22     5     7   ar
    23     7    11    1
    24    11    12    2
    25    11    13    2
    26    11    14    1
    27    14    16    1
    28    16    17   ar
    29    17    18   ar
    30    18    19   ar
    31    19    20   ar
    32     7     8   ar
    33     8     9   ar
    34     9    10    1
    35    27    22    1
    36     9     3   ar
    37    34    28   ar
    38    20    16   ar
    39    35    36    1
    40     1     2    1
    41    14    15    1
@<TRIPOS>MOLECULE
*****
 38 41 0 0 0
SMALL
GASTEIGER

@<TRIPOS>ATOM
      1 N           4.6592   -2.1719   23.6750 N.pl3   1  UNL1       -0.3316
      2 H           5.1016   -1.8798   24.5046 H       1  UNL1        0.1468
      3 C           3.6751   -1.2692   22.9919 C.ar    1  UNL1        0.0577
      4 C           3.4466   -1.3902   21.5143 C.ar    1  UNL1        0.0462
      5 C           2.4625   -0.4875   20.8312 C.ar    1  UNL1        0.1602
      6 F           2.2340   -0.6085   19.3536 F       1  UNL1       -0.2027
      7 C           1.7070    0.5362   21.6256 C.ar    1  UNL1        0.1534
      8 C           1.9354    0.6572   23.1031 C.ar    1  UNL1        0.0351
      9 C           2.9195   -0.2455   23.7863 C.ar    1  UNL1        0.0722
     10 CL          3.1480   -0.1245   25.2638 Cl      1  UNL1       -0.0809
     11 S           0.7229    1.4389   20.9424 S.O2    1  UNL1        0.0772
     12 O          -0.2599    0.3085   20.8645 O.2     1  UNL1       -0.1498
     13 O           1.7058    2.5693   21.0204 O.2     1  UNL1       -0.1498
     14 N          -0.2612    2.3417   20.2592 N.pl3   1  UNL1       -0.1936
     15 H          -0.1414    2.5715   19.3095 H       1  UNL1        0.1758
     16 C          -1.4279    2.8941   21.0232 C.ar    1  UNL1        0.1786
     17 N          -2.8602    2.8792   20.5778 N.ar    1  UNL1       -0.2214
     18 C          -3.6847    3.5344   21.6460 C.ar    1  UNL1        0.1079
     19 C          -2.7619    3.9542   22.7515 C.ar    1  UNL1        0.0588
     20 S          -1.3671    3.5586   22.3667 S.2     1  UNL1       -0.0497
     21 C           4.9692   -3.5198   23.0943 C.3     1  UNL1        0.0927
     22 C           7.1272   -4.5293   24.1305 C.3     1  UNL1        0.0600
     23 C           8.5524   -4.9739   23.9861 C.3     1  UNL1        0.0208
     24 C           9.2450   -4.8536   22.6610 C.3     1  UNL1        0.0271
     25 C           8.5123   -4.2887   21.4804 C.2     1  UNL1       -0.0303
     26 C           7.0871   -3.8441   21.6248 C.2     1  UNL1       -0.0238
     27 C           6.3945   -3.9644   22.9499 C.3     1  UNL1        0.0559
     28 C           6.3543   -3.2792   20.4441 C.ar    1  UNL1       -0.0040
     29 C           5.3360   -4.1128   19.7244 C.ar    1  UNL1        0.0020
     30 C           4.6032   -3.5478   18.5437 C.ar    1  UNL1        0.0296
     31 C           4.8889   -2.1493   18.0828 C.ar    1  UNL1        0.1401
     32 F           4.1562   -1.5843   16.9021 F       1  UNL1       -0.2042
     33 C           5.9073   -1.3157   18.8025 C.ar    1  UNL1        0.0296
     34 C           6.6400   -1.8806   19.9832 C.ar    1  UNL1        0.0020
     35 N           6.4346   -4.6496   25.4556 N.3     1  UNL1       -0.2982
     36 H           5.4357   -4.7176   25.2607 H       1  UNL1        0.1232
     37 C           7.3709   -2.3308   26.1602 C.3     1  UNL1        0.0185
     38 C           6.6019   -3.5759   26.4896 C.3     1  UNL1        0.0686
@<TRIPOS>BOND
     1    37    38    1
     2    38    35    1
     3    22    35    1
     4    22    23    1
     5    23    24    1
     6    24    25    1
     7    25    26    2
     8    26    28    1
     9    28    29   ar
    10    29    30   ar
    11    30    31   ar
    12    31    32    1
    13    31    33   ar
    14    33    34   ar
    15    26    27    1
    16    27    21    1
    17    21     1    1
    18     1     3    1
    19     3     4   ar
    20     4     5   ar
    21     5     6    1
    22     5     7   ar
    23     7    11    1
    24    11    12    2
    25    11    13    2
    26    11    14    1
    27    14    16    1
    28    16    17   ar
    29    17    18   ar
    30    18    19   ar
    31    19    20   ar
    32     7     8   ar
    33     8     9   ar
    34     9    10    1
    35    27    22    1
    36     9     3   ar
    37    34    28   ar
    38    20    16   ar
    39    35    36    1
    40     1     2    1
    41    14    15    1
@<TRIPOS>MOLECULE
*****
 38 41 0 0 0
SMALL
GASTEIGER

@<TRIPOS>ATOM
      1 N           6.2148   -0.7059   21.9506 N.pl3   1  UNL1       -0.3316
      2 H           7.1973   -0.7662   21.9315 H       1  UNL1        0.1468
      3 C           5.4985   -0.5462   23.2587 C.ar    1  UNL1        0.0577
      4 C           4.0300   -0.2407   23.2773 C.ar    1  UNL1        0.0462
      5 C           3.3137   -0.0810   24.5856 C.ar    1  UNL1        0.1602
      6 F           1.8452    0.2244   24.6041 F       1  UNL1       -0.2027
      7 C           4.0658   -0.2267   25.8751 C.ar    1  UNL1        0.1534
      8 C           5.5343   -0.5321   25.8565 C.ar    1  UNL1        0.0351
      9 C           6.2506   -0.6918   24.5484 C.ar    1  UNL1        0.0722
     10 CL          7.7191   -0.9972   24.5298 Cl      1  UNL1       -0.0809
     11 S           3.3495   -0.0669   27.1833 S.O2    1  UNL1        0.0772
     12 O           3.1610   -1.5530   27.2615 O.2     1  UNL1       -0.1498
     13 O           3.5379    1.4191   27.1050 O.2     1  UNL1       -0.1498
     14 N           2.6331    0.0927   28.4915 N.pl3   1  UNL1       -0.1936
     15 H           3.1380    0.0625   29.3361 H       1  UNL1        0.1758
     16 C           1.1474    0.2985   28.5128 C.ar    1  UNL1        0.1786
     17 N           0.1848   -0.3247   29.4796 N.ar    1  UNL1       -0.2214
     18 C          -1.1941    0.1552   29.1354 C.ar    1  UNL1        0.1079
     19 C          -1.0836    1.0751   27.9557 C.ar    1  UNL1        0.0588
     20 S           0.3636    1.1637   27.5709 S.2     1  UNL1       -0.0497
     21 C           5.4342   -0.7738   20.6715 C.3     1  UNL1        0.0927
     22 C           5.9046   -3.2803   20.1750 C.3     1  UNL1        0.0600
     23 C           5.4490   -4.6071   19.6439 C.3     1  UNL1        0.0208
     24 C           4.0676   -4.7543   19.0783 C.3     1  UNL1        0.0271
     25 C           3.1417   -3.5747   19.0437 C.2     1  UNL1       -0.0303
     26 C           3.5973   -2.2479   19.5748 C.2     1  UNL1       -0.0238
     27 C           4.9787   -2.1007   20.1404 C.3     1  UNL1        0.0559
     28 C           2.6713   -1.0682   19.5402 C.ar    1  UNL1       -0.0040
     29 C           1.6490   -0.8852   20.6225 C.ar    1  UNL1        0.0020
     30 C           0.7231    0.2945   20.5880 C.ar    1  UNL1        0.0296
     31 C           0.8196    1.2911   19.4711 C.ar    1  UNL1        0.1401
     32 F          -0.1062    2.4707   19.4365 F       1  UNL1       -0.2042
     33 C           1.8420    1.1081   18.3888 C.ar    1  UNL1        0.0296
     34 C           2.7678   -0.0716   18.4234 C.ar    1  UNL1        0.0020
     35 N           7.2860   -3.1331   20.7406 N.3     1  UNL1       -0.2982
     36 H           7.9362   -3.4155   20.0071 H       1  UNL1        0.1232
     37 C           6.6555   -4.1509   23.0463 C.3     1  UNL1        0.0185
     38 C           7.6744   -3.8876   21.9774 C.3     1  UNL1        0.0686
@<TRIPOS>BOND
     1    37    38    1
     2    38    35    1
     3    22    35    1
     4    22    23    1
     5    23    24    1
     6    24    25    1
     7    25    26    2
     8    26    28    1
     9    28    29   ar
    10    29    30   ar
    11    30    31   ar
    12    31    32    1
    13    31    33   ar
    14    33    34   ar
    15    26    27    1
    16    27    21    1
    17    21     1    1
    18     1     3    1
    19     3     4   ar
    20     4     5   ar
    21     5     6    1
    22     5     7   ar
    23     7    11    1
    24    11    12    2
    25    11    13    2
    26    11    14    1
    27    14    16    1
    28    16    17   ar
    29    17    18   ar
    30    18    19   ar
    31    19    20   ar
    32     7     8   ar
    33     8     9   ar
    34     9    10    1
    35    27    22    1
    36     9     3   ar
    37    34    28   ar
    38    20    16   ar
    39    35    36    1
    40     1     2    1
    41    14    15    1
@<TRIPOS>MOLECULE
*****
 38 41 0 0 0
SMALL
GASTEIGER

@<TRIPOS>ATOM
      1 N           5.9826    0.0966   20.9504 N.pl3   1  UNL1       -0.3316
      2 H           6.9308    0.1886   21.1987 H       1  UNL1        0.1468
      3 C           4.9110    0.4962   21.9208 C.ar    1  UNL1        0.0577
      4 C           4.5882   -0.3887   23.0881 C.ar    1  UNL1        0.0462
      5 C           3.5164    0.0110   24.0585 C.ar    1  UNL1        0.1602
      6 F           3.1936   -0.8740   25.2258 F       1  UNL1       -0.2027
      7 C           2.7676    1.2956   23.8616 C.ar    1  UNL1        0.1534
      8 C           3.0904    2.1806   22.6943 C.ar    1  UNL1        0.0351
      9 C           4.1620    1.7810   21.7239 C.ar    1  UNL1        0.0722
     10 CL          4.4848    2.6660   20.5566 Cl      1  UNL1       -0.0809
     11 S           1.6959    1.6953   24.8320 S.O2    1  UNL1        0.0772
     12 O           2.6640    2.6074   25.5254 O.2     1  UNL1       -0.1498
     13 O           0.7278    0.7832   24.1386 O.2     1  UNL1       -0.1498
     14 N           0.6242    2.0950   25.8025 N.pl3   1  UNL1       -0.1936
     15 H           0.0568    2.8773   25.6146 H       1  UNL1        0.1758
     16 C           0.4170    1.3027   27.0592 C.ar    1  UNL1        0.1786
     17 N           1.4427    0.4464   27.7408 N.ar    1  UNL1       -0.2214
     18 C           0.8074   -0.1579   28.9579 C.ar    1  UNL1        0.1079
     19 C          -0.6110    0.3250   29.0285 C.ar    1  UNL1        0.0588
     20 S          -0.8523    1.2277   27.8551 S.2     1  UNL1       -0.0497
     21 C           5.6097   -0.4433   19.6015 C.3     1  UNL1        0.0927
     22 C           6.0913   -2.9898   19.4179 C.3     1  UNL1        0.0600
     23 C           5.5957   -4.3993   19.2851 C.3     1  UNL1        0.0208
     24 C           4.1230   -4.6719   19.2031 C.3     1  UNL1        0.0271
     25 C           3.1458   -3.5350   19.2539 C.2     1  UNL1       -0.0303
     26 C           3.6414   -2.1255   19.3867 C.2     1  UNL1       -0.0238
     27 C           5.1141   -1.8529   19.4687 C.3     1  UNL1        0.0559
     28 C           2.6642   -0.9886   19.4375 C.ar    1  UNL1       -0.0040
     29 C           1.6842   -0.8919   20.5690 C.ar    1  UNL1        0.0020
     30 C           0.7070    0.2451   20.6198 C.ar    1  UNL1        0.0296
     31 C           0.7099    1.2853   19.5391 C.ar    1  UNL1        0.1401
     32 F          -0.2672    2.4222   19.5898 F       1  UNL1       -0.2042
     33 C           1.6900    1.1886   18.4076 C.ar    1  UNL1        0.0296
     34 C           2.6671    0.0517   18.3568 C.ar    1  UNL1        0.0020
     35 N           7.5640   -2.7172   19.4999 N.3     1  UNL1       -0.2982
     36 H           7.9984   -3.2086   18.7188 H       1  UNL1        0.1232
     37 C           7.7140   -2.9113   22.0864 C.3     1  UNL1        0.0185
     38 C           8.3300   -3.0992   20.7317 C.3     1  UNL1        0.0686
@<TRIPOS>BOND
     1    37    38    1
     2    38    35    1
     3    22    35    1
     4    22    23    1
     5    23    24    1
     6    24    25    1
     7    25    26    2
     8    26    28    1
     9    28    29   ar
    10    29    30   ar
    11    30    31   ar
    12    31    32    1
    13    31    33   ar
    14    33    34   ar
    15    26    27    1
    16    27    21    1
    17    21     1    1
    18     1     3    1
    19     3     4   ar
    20     4     5   ar
    21     5     6    1
    22     5     7   ar
    23     7    11    1
    24    11    12    2
    25    11    13    2
    26    11    14    1
    27    14    16    1
    28    16    17   ar
    29    17    18   ar
    30    18    19   ar
    31    19    20   ar
    32     7     8   ar
    33     8     9   ar
    34     9    10    1
    35    27    22    1
    36     9     3   ar
    37    34    28   ar
    38    20    16   ar
    39    35    36    1
    40     1     2    1
    41    14    15    1
@<TRIPOS>MOLECULE
*****
 38 41 0 0 0
SMALL
GASTEIGER

@<TRIPOS>ATOM
      1 N           2.8618   -0.5917   23.0951 N.pl3   1  UNL1       -0.3316
      2 H           1.9841   -0.4403   22.6756 H       1  UNL1        0.1468
      3 C           3.0225   -0.4295   24.5776 C.ar    1  UNL1        0.0577
      4 C           3.8928   -1.3793   25.3460 C.ar    1  UNL1        0.0462
      5 C           4.0535   -1.2171   26.8286 C.ar    1  UNL1        0.1602
      6 F           4.9237   -2.1669   27.5970 F       1  UNL1       -0.2027
      7 C           3.3439   -0.1050   27.5426 C.ar    1  UNL1        0.1534
      8 C           2.4737    0.8448   26.7742 C.ar    1  UNL1        0.0351
      9 C           2.3129    0.6826   25.2917 C.ar    1  UNL1        0.0722
     10 CL          1.4427    1.6324   24.5233 Cl      1  UNL1       -0.0809
     11 S           3.5046    0.0572   29.0251 S.O2    1  UNL1        0.0772
     12 O           2.4130   -0.9459   29.2532 O.2     1  UNL1       -0.1498
     13 O           4.5963    1.0602   28.7970 O.2     1  UNL1       -0.1498
     14 N           3.6653    0.2193   30.5077 N.pl3   1  UNL1       -0.1936
     15 H           3.3814    1.0543   30.9452 H       1  UNL1        0.1758
     16 C           4.2586   -0.8908   31.3236 C.ar    1  UNL1        0.1786
     17 N           3.6705   -1.4789   32.5719 N.ar    1  UNL1       -0.2214
     18 C           4.5925   -2.5592   33.0543 C.ar    1  UNL1        0.1079
     19 C           5.7505   -2.6389   32.1041 C.ar    1  UNL1        0.0588
     20 S           5.5441   -1.6077   31.0344 S.2     1  UNL1       -0.0497
     21 C           4.0383   -0.9846   22.2516 C.3     1  UNL1        0.0927
     22 C           4.5198   -3.4999   21.8143 C.3     1  UNL1        0.0600
     23 C           4.4348   -4.7028   20.9223 C.3     1  UNL1        0.0208
     24 C           3.7833   -4.5934   19.5756 C.3     1  UNL1        0.0271
     25 C           3.2168   -3.2810   19.1209 C.2     1  UNL1       -0.0303
     26 C           3.3019   -2.0781   20.0129 C.2     1  UNL1       -0.0238
     27 C           3.9533   -2.1876   21.3596 C.3     1  UNL1        0.0559
     28 C           2.7354   -0.7656   19.5582 C.ar    1  UNL1       -0.0040
     29 C           1.3012   -0.4295   19.8411 C.ar    1  UNL1        0.0020
     30 C           0.7347    0.8830   19.3865 C.ar    1  UNL1        0.0296
     31 C           1.6025    1.8592   18.6489 C.ar    1  UNL1        0.1401
     32 F           1.0361    3.1716   18.1943 F       1  UNL1       -0.2042
     33 C           3.0368    1.5230   18.3661 C.ar    1  UNL1        0.0296
     34 C           3.6032    0.2106   18.8207 C.ar    1  UNL1        0.0020
     35 N           5.1713   -3.6094   23.1610 N.3     1  UNL1       -0.2982
     36 H           4.8313   -2.8249   23.7172 H       1  UNL1        0.1232
     37 C           7.3920   -4.8463   23.6981 C.3     1  UNL1        0.0185
     38 C           6.6670   -3.6037   23.2732 C.3     1  UNL1        0.0686
@<TRIPOS>BOND
     1    37    38    1
     2    38    35    1
     3    22    35    1
     4    22    23    1
     5    23    24    1
     6    24    25    1
     7    25    26    2
     8    26    28    1
     9    28    29   ar
    10    29    30   ar
    11    30    31   ar
    12    31    32    1
    13    31    33   ar
    14    33    34   ar
    15    26    27    1
    16    27    21    1
    17    21     1    1
    18     1     3    1
    19     3     4   ar
    20     4     5   ar
    21     5     6    1
    22     5     7   ar
    23     7    11    1
    24    11    12    2
    25    11    13    2
    26    11    14    1
    27    14    16    1
    28    16    17   ar
    29    17    18   ar
    30    18    19   ar
    31    19    20   ar
    32     7     8   ar
    33     8     9   ar
    34     9    10    1
    35    27    22    1
    36     9     3   ar
    37    34    28   ar
    38    20    16   ar
    39    35    36    1
    40     1     2    1
    41    14    15    1
@<TRIPOS>MOLECULE
*****
 38 41 0 0 0
SMALL
GASTEIGER

@<TRIPOS>ATOM
      1 N          -9.1973  -15.6951   23.6370 N.pl3   1  UNL1       -0.3316
      2 H          -9.3984  -14.7867   23.3151 H       1  UNL1        0.1468
      3 C          -7.8467  -16.2977   23.3865 C.ar    1  UNL1        0.0577
      4 C          -7.7072  -17.4646   22.4543 C.ar    1  UNL1        0.0462
      5 C          -6.3566  -18.0672   22.2038 C.ar    1  UNL1        0.1602
      6 F          -6.2171  -19.2341   21.2717 F       1  UNL1       -0.2027
      7 C          -5.1454  -17.5029   22.8855 C.ar    1  UNL1        0.1534
      8 C          -5.2849  -16.3360   23.8177 C.ar    1  UNL1        0.0351
      9 C          -6.6355  -15.7334   24.0682 C.ar    1  UNL1        0.0722
     10 CL         -6.7749  -14.5665   25.0003 Cl      1  UNL1       -0.0809
     11 S          -3.7949  -18.1055   22.6350 S.O2    1  UNL1        0.0772
     12 O          -4.3461  -19.4671   22.9385 O.2     1  UNL1       -0.1498
     13 O          -3.2437  -16.7439   22.3315 O.2     1  UNL1       -0.1498
     14 N          -2.4443  -18.7082   22.3845 N.pl3   1  UNL1       -0.1936
     15 H          -2.0224  -19.2735   23.0713 H       1  UNL1        0.1758
     16 C          -1.7364  -18.4495   21.0875 C.ar    1  UNL1        0.1786
     17 N          -0.2768  -18.1443   20.9253 N.ar    1  UNL1       -0.2214
     18 C          -0.0022  -17.9567   19.4626 C.ar    1  UNL1        0.1079
     19 C          -1.2922  -18.1459   18.7208 C.ar    1  UNL1        0.0588
     20 S          -2.3640  -18.4505   19.7251 S.2     1  UNL1       -0.0497
     21 C         -10.2415  -16.4766   24.3780 C.3     1  UNL1        0.0927
     22 C          -9.8907  -18.8431   25.3910 C.3     1  UNL1        0.0600
     23 C          -9.9475  -20.3359   25.2550 C.3     1  UNL1        0.0208
     24 C         -10.4117  -20.9548   23.9699 C.3     1  UNL1        0.0271
     25 C         -10.8192  -20.0810   22.8209 C.2     1  UNL1       -0.0303
     26 C         -10.7624  -18.5883   22.9569 C.2     1  UNL1       -0.0238
     27 C         -10.2982  -17.9693   24.2420 C.3     1  UNL1        0.0559
     28 C         -11.1699  -17.7144   21.8078 C.ar    1  UNL1       -0.0040
     29 C         -10.4042  -17.7646   20.5190 C.ar    1  UNL1        0.0020
     30 C         -10.8117  -16.8907   19.3699 C.ar    1  UNL1        0.0296
     31 C         -11.9849  -15.9666   19.5097 C.ar    1  UNL1        0.1401
     32 F         -12.3924  -15.0928   18.3607 F       1  UNL1       -0.2042
     33 C         -12.7506  -15.9164   20.7986 C.ar    1  UNL1        0.0296
     34 C         -12.3431  -16.7903   21.9476 C.ar    1  UNL1        0.0020
     35 N          -9.4265  -18.2242   26.6761 N.3     1  UNL1       -0.2982
     36 H         -10.2234  -17.7200   27.0649 H       1  UNL1        0.1232
     37 C          -8.2815  -16.0743   27.5799 C.3     1  UNL1        0.0185
     38 C          -8.2694  -17.2697   26.6739 C.3     1  UNL1        0.0686
@<TRIPOS>BOND
     1    37    38    1
     2    38    35    1
     3    22    35    1
     4    22    23    1
     5    23    24    1
     6    24    25    1
     7    25    26    2
     8    26    28    1
     9    28    29   ar
    10    29    30   ar
    11    30    31   ar
    12    31    32    1
    13    31    33   ar
    14    33    34   ar
    15    26    27    1
    16    27    21    1
    17    21     1    1
    18     1     3    1
    19     3     4   ar
    20     4     5   ar
    21     5     6    1
    22     5     7   ar
    23     7    11    1
    24    11    12    2
    25    11    13    2
    26    11    14    1
    27    14    16    1
    28    16    17   ar
    29    17    18   ar
    30    18    19   ar
    31    19    20   ar
    32     7     8   ar
    33     8     9   ar
    34     9    10    1
    35    27    22    1
    36     9     3   ar
    37    34    28   ar
    38    20    16   ar
    39    35    36    1
    40     1     2    1
    41    14    15    1
@<TRIPOS>MOLECULE
*****
 38 41 0 0 0
SMALL
GASTEIGER

@<TRIPOS>ATOM
      1 N           2.4095   -1.2991   19.5840 N.pl3   1  UNL1       -0.3316
      2 H           2.0450   -2.2018   19.4372 H       1  UNL1        0.1468
      3 C           2.1545   -0.5891   20.8805 C.ar    1  UNL1        0.0577
      4 C           1.0875    0.4620   20.9627 C.ar    1  UNL1        0.0462
      5 C           0.8325    1.1720   22.2593 C.ar    1  UNL1        0.1602
      6 F          -0.2344    2.2231   22.3415 F       1  UNL1       -0.2027
      7 C           1.6444    0.8309   23.4735 C.ar    1  UNL1        0.1534
      8 C           2.7114   -0.2203   23.3912 C.ar    1  UNL1        0.0351
      9 C           2.9664   -0.9303   22.0948 C.ar    1  UNL1        0.0722
     10 CL          4.0334   -1.9814   22.0126 Cl      1  UNL1       -0.0809
     11 S           1.3894    1.5409   24.7699 S.O2    1  UNL1        0.0772
     12 O           2.7182    2.2272   24.6555 O.2     1  UNL1       -0.1498
     13 O           0.0606    0.8545   24.8844 O.2     1  UNL1       -0.1498
     14 N           1.1344    2.2509   26.0664 N.pl3   1  UNL1       -0.1936
     15 H           1.1821    3.2334   26.1073 H       1  UNL1        0.1758
     16 C           0.8068    1.4640   27.3007 C.ar    1  UNL1        0.1786
     17 N          -0.5054    1.4693   28.0273 N.ar    1  UNL1       -0.2214
     18 C          -0.3893    0.5422   29.2008 C.ar    1  UNL1        0.1079
     19 C           0.9947   -0.0362   29.1993 C.ar    1  UNL1        0.0588
     20 S           1.7340    0.5334   28.0250 S.2     1  UNL1       -0.0497
     21 C           3.2199   -0.6338   18.5113 C.3     1  UNL1        0.0927
     22 C           5.5368   -1.7869   18.2824 C.3     1  UNL1        0.0600
     23 C           7.0314   -1.7331   18.3962 C.3     1  UNL1        0.0208
     24 C           7.7040   -0.4724   18.8527 C.3     1  UNL1        0.0271
     25 C           6.8818    0.7344   19.1954 C.2     1  UNL1       -0.0303
     26 C           5.3872    0.6806   19.0816 C.2     1  UNL1       -0.0238
     27 C           4.7146   -0.5801   18.6251 C.3     1  UNL1        0.0559
     28 C           4.5649    1.8875   19.4243 C.ar    1  UNL1       -0.0040
     29 C           3.9596    2.7176   18.3314 C.ar    1  UNL1        0.0020
     30 C           3.1374    3.9245   18.6741 C.ar    1  UNL1        0.0296
     31 C           2.9205    4.3013   20.1097 C.ar    1  UNL1        0.1401
     32 F           2.0984    5.5081   20.4525 F       1  UNL1       -0.2042
     33 C           3.5259    3.4711   21.2027 C.ar    1  UNL1        0.0296
     34 C           4.3481    2.2643   20.8599 C.ar    1  UNL1        0.0020
     35 N           4.8642   -3.0476   17.8259 N.3     1  UNL1       -0.2982
     36 H           3.9026   -2.8004   17.5924 H       1  UNL1        0.1232
     37 C           3.4746   -4.6842   19.2889 C.3     1  UNL1        0.0185
     38 C           4.7963   -4.2348   18.7402 C.3     1  UNL1        0.0686
@<TRIPOS>BOND
     1    37    38    1
     2    38    35    1
     3    22    35    1
     4    22    23    1
     5    23    24    1
     6    24    25    1
     7    25    26    2
     8    26    28    1
     9    28    29   ar
    10    29    30   ar
    11    30    31   ar
    12    31    32    1
    13    31    33   ar
    14    33    34   ar
    15    26    27    1
    16    27    21    1
    17    21     1    1
    18     1     3    1
    19     3     4   ar
    20     4     5   ar
    21     5     6    1
    22     5     7   ar
    23     7    11    1
    24    11    12    2
    25    11    13    2
    26    11    14    1
    27    14    16    1
    28    16    17   ar
    29    17    18   ar
    30    18    19   ar
    31    19    20   ar
    32     7     8   ar
    33     8     9   ar
    34     9    10    1
    35    27    22    1
    36     9     3   ar
    37    34    28   ar
    38    20    16   ar
    39    35    36    1
    40     1     2    1
    41    14    15    1
@<TRIPOS>MOLECULE
*****
 38 41 0 0 0
SMALL
GASTEIGER

@<TRIPOS>ATOM
      1 N           1.3373   -0.0018   21.3594 N.pl3   1  UNL1       -0.3316
      2 H           0.7768    0.3065   22.1078 H       1  UNL1        0.1468
      3 C           2.5652   -0.8199   21.6295 C.ar    1  UNL1        0.0577
      4 C           3.1915   -1.6195   20.5256 C.ar    1  UNL1        0.0462
      5 C           4.4194   -2.4375   20.7957 C.ar    1  UNL1        0.1602
      6 F           5.0457   -3.2371   19.6918 F       1  UNL1       -0.2027
      7 C           5.0211   -2.4561   22.1696 C.ar    1  UNL1        0.1534
      8 C           4.3948   -1.6565   23.2735 C.ar    1  UNL1        0.0351
      9 C           3.1669   -0.8385   23.0034 C.ar    1  UNL1        0.0722
     10 CL          2.5406   -0.0389   24.1073 Cl      1  UNL1       -0.0809
     11 S           6.2490   -3.2741   22.4396 S.O2    1  UNL1        0.0772
     12 O           7.0302   -2.0186   22.6909 O.2     1  UNL1       -0.1498
     13 O           5.4677   -4.5297   22.1884 O.2     1  UNL1       -0.1498
     14 N           7.4770   -4.0922   22.7097 N.pl3   1  UNL1       -0.1936
     15 H           8.2695   -3.9952   22.1338 H       1  UNL1        0.1758
     16 C           7.4974   -5.0580   23.8572 C.ar    1  UNL1        0.1786
     17 N           7.9172   -6.4965   23.7916 N.ar    1  UNL1       -0.2214
     18 C           7.7808   -7.0824   25.1657 C.ar    1  UNL1        0.1079
     19 C           7.2766   -6.0059   26.0806 C.ar    1  UNL1        0.0588
     20 S           7.1014   -4.7547   25.2720 S.2     1  UNL1       -0.0497
     21 C           0.9632    0.3464   19.9492 C.3     1  UNL1        0.0927
     22 C          -0.0510    2.7329   19.7877 C.3     1  UNL1        0.0600
     23 C           0.0405    4.1541   19.3167 C.3     1  UNL1        0.0208
     24 C           1.2375    4.6100   18.5362 C.3     1  UNL1        0.0271
     25 C           2.3431    3.6447   18.2266 C.2     1  UNL1       -0.0303
     26 C           2.2517    2.2236   18.6976 C.2     1  UNL1       -0.0238
     27 C           1.0546    1.7677   19.4782 C.3     1  UNL1        0.0559
     28 C           3.3573    1.2582   18.3881 C.ar    1  UNL1       -0.0040
     29 C           3.1186    0.1251   17.4347 C.ar    1  UNL1        0.0020
     30 C           4.2243   -0.8402   17.1252 C.ar    1  UNL1        0.0296
     31 C           5.5686   -0.6724   17.7691 C.ar    1  UNL1        0.1401
     32 F           6.6742   -1.6377   17.4596 F       1  UNL1       -0.2042
     33 C           5.8073    0.4608   18.7225 C.ar    1  UNL1        0.0296
     34 C           4.7017    1.4261   19.0320 C.ar    1  UNL1        0.0020
     35 N          -1.2480    2.2770   20.5682 N.3     1  UNL1       -0.2982
     36 H          -1.7056    1.5556   20.0110 H       1  UNL1        0.1232
     37 C          -3.5437    3.4061   20.1159 C.3     1  UNL1        0.0185
     38 C          -2.3099    3.2626   20.9567 C.3     1  UNL1        0.0686
@<TRIPOS>BOND
     1    37    38    1
     2    38    35    1
     3    22    35    1
     4    22    23    1
     5    23    24    1
     6    24    25    1
     7    25    26    2
     8    26    28    1
     9    28    29   ar
    10    29    30   ar
    11    30    31   ar
    12    31    32    1
    13    31    33   ar
    14    33    34   ar
    15    26    27    1
    16    27    21    1
    17    21     1    1
    18     1     3    1
    19     3     4   ar
    20     4     5   ar
    21     5     6    1
    22     5     7   ar
    23     7    11    1
    24    11    12    2
    25    11    13    2
    26    11    14    1
    27    14    16    1
    28    16    17   ar
    29    17    18   ar
    30    18    19   ar
    31    19    20   ar
    32     7     8   ar
    33     8     9   ar
    34     9    10    1
    35    27    22    1
    36     9     3   ar
    37    34    28   ar
    38    20    16   ar
    39    35    36    1
    40     1     2    1
    41    14    15    1
@<TRIPOS>MOLECULE
*****
 38 41 0 0 0
SMALL
GASTEIGER

@<TRIPOS>ATOM
      1 N           5.6802    1.3128   20.6778 N.pl3   1  UNL1       -0.3316
      2 H           5.6505    2.0795   21.2947 H       1  UNL1        0.1468
      3 C           6.1882   -0.0151   21.1558 C.ar    1  UNL1        0.0577
      4 C           7.0937   -0.8306   20.2812 C.ar    1  UNL1        0.0462
      5 C           7.6018   -2.1586   20.7593 C.ar    1  UNL1        0.1602
      6 F           8.5073   -2.9742   19.8847 F       1  UNL1       -0.2027
      7 C           7.2042   -2.6710   22.1118 C.ar    1  UNL1        0.1534
      8 C           6.2987   -1.8555   22.9864 C.ar    1  UNL1        0.0351
      9 C           5.7907   -0.5275   22.5084 C.ar    1  UNL1        0.0722
     10 CL          4.8852    0.2880   23.3830 Cl      1  UNL1       -0.0809
     11 S           7.7123   -3.9989   22.5898 S.O2    1  UNL1        0.0772
     12 O           6.4357   -4.6479   22.1436 O.2     1  UNL1       -0.1498
     13 O           8.9889   -3.3500   23.0359 O.2     1  UNL1       -0.1498
     14 N           8.2203   -5.3269   23.0677 N.pl3   1  UNL1       -0.1936
     15 H           8.8410   -5.8470   22.5078 H       1  UNL1        0.1758
     16 C           7.7825   -5.8625   24.3987 C.ar    1  UNL1        0.1786
     17 N           7.0266   -5.1039   25.4490 N.ar    1  UNL1       -0.2214
     18 C           6.8007   -6.0232   26.6126 C.ar    1  UNL1        0.1079
     19 C           7.4171   -7.3500   26.2815 C.ar    1  UNL1        0.0588
     20 S           8.0240   -7.2507   24.9132 S.2     1  UNL1       -0.0497
     21 C           5.2174    1.4726   19.2600 C.3     1  UNL1        0.0927
     22 C           3.1510    2.9892   18.8355 C.3     1  UNL1        0.0600
     23 C           1.6888    3.1385   18.5363 C.3     1  UNL1        0.0208
     24 C           0.8307    1.9206   18.3621 C.3     1  UNL1        0.0271
     25 C           1.4348    0.5534   18.4873 C.2     1  UNL1       -0.0303
     26 C           2.8970    0.4041   18.7866 C.2     1  UNL1       -0.0238
     27 C           3.7551    1.6220   18.9607 C.3     1  UNL1        0.0559
     28 C           3.5012   -0.9632   18.9117 C.ar    1  UNL1       -0.0040
     29 C           3.2254   -1.7965   20.1280 C.ar    1  UNL1        0.0020
     30 C           3.8296   -3.1638   20.2532 C.ar    1  UNL1        0.0296
     31 C           4.7095   -3.6977   19.1620 C.ar    1  UNL1        0.1401
     32 F           5.3137   -5.0649   19.2871 F       1  UNL1       -0.2042
     33 C           4.9852   -2.8643   17.9456 C.ar    1  UNL1        0.0296
     34 C           4.3811   -1.4971   17.8205 C.ar    1  UNL1        0.0020
     35 N           4.0091    4.2071   19.0097 N.3     1  UNL1       -0.2982
     36 H           3.4857    4.8543   19.5993 H       1  UNL1        0.1232
     37 C           5.3938    4.3560   16.8164 C.3     1  UNL1        0.0185
     38 C           4.4609    4.9842   17.8089 C.3     1  UNL1        0.0686
@<TRIPOS>BOND
     1    37    38    1
     2    38    35    1
     3    22    35    1
     4    22    23    1
     5    23    24    1
     6    24    25    1
     7    25    26    2
     8    26    28    1
     9    28    29   ar
    10    29    30   ar
    11    30    31   ar
    12    31    32    1
    13    31    33   ar
    14    33    34   ar
    15    26    27    1
    16    27    21    1
    17    21     1    1
    18     1     3    1
    19     3     4   ar
    20     4     5   ar
    21     5     6    1
    22     5     7   ar
    23     7    11    1
    24    11    12    2
    25    11    13    2
    26    11    14    1
    27    14    16    1
    28    16    17   ar
    29    17    18   ar
    30    18    19   ar
    31    19    20   ar
    32     7     8   ar
    33     8     9   ar
    34     9    10    1
    35    27    22    1
    36     9     3   ar
    37    34    28   ar
    38    20    16   ar
    39    35    36    1
    40     1     2    1
    41    14    15    1
