@<TRIPOS>MOLECULE
*****
 32 34 0 0 0
SMALL
GASTEIGER

@<TRIPOS>ATOM
      1 C          -4.8224  -18.5852   22.2727 C.ar    1  UNL1        0.0764
      2 C          -5.3277  -17.4454   23.1067 C.ar    1  UNL1        0.0522
      3 C          -4.5018  -16.2023   23.2571 C.ar    1  UNL1        0.1515
      4 N          -3.1707  -16.0990   22.5735 N.ar    1  UNL1       -0.1329
      5 N          -2.6653  -17.2388   21.7395 N.ar    1  UNL1       -0.1409
      6 C          -3.4912  -18.4819   21.5892 C.ar    1  UNL1        0.1691
      7 C          -2.9859  -19.6217   20.7552 C.2     1  UNL1        0.2635
      8 N          -3.6065  -19.9067   19.4197 N.am    1  UNL1       -0.3240
      9 O          -1.8600  -20.4764   21.2568 O.2     1  UNL1       -0.2686
     10 H          -4.3455  -19.3457   19.0905 H       1  UNL1        0.1453
     11 H          -3.2748  -20.6548   18.8724 H       1  UNL1        0.1453
     12 N          -5.6483  -19.8283   22.1224 N.pl3   1  UNL1       -0.2965
     13 H          -5.2384  -20.7119   22.2659 H       1  UNL1        0.1537
     14 C         -11.4493  -19.4159   20.6466 C.3     1  UNL1        0.0323
     15 C          -9.9990  -19.5190   21.0155 C.ar    1  UNL1       -0.0081
     16 C          -8.9454  -19.4098   19.9536 C.ar    1  UNL1       -0.0002
     17 C          -7.4951  -19.5129   20.3225 C.ar    1  UNL1        0.0341
     18 C          -7.0985  -19.7252   21.7534 C.ar    1  UNL1        0.1318
     19 N          -8.1522  -19.8344   22.8154 N.ar    1  UNL1       -0.2352
     20 C          -9.6024  -19.7313   22.4465 C.ar    1  UNL1        0.0568
     21 C         -10.6561  -19.8405   23.5085 C.3     1  UNL1        0.0518
     22 N          -5.0072  -15.0624   24.0910 N.pl3   1  UNL1       -0.3170
     23 H          -4.6025  -14.1694   24.0011 H       1  UNL1        0.1482
     24 C          -6.1289  -15.2832   25.0621 C.3     1  UNL1        0.0845
     25 C          -5.8283  -15.6680   26.4804 C.3     1  UNL1        0.0209
     26 C          -6.9501  -15.8888   27.4515 C.3     1  UNL1        0.0018
     27 C          -8.3724  -15.7247   27.0041 C.3     1  UNL1        0.0015
     28 C          -8.6730  -15.3399   25.5859 C.3     1  UNL1        0.0172
     29 C          -7.5512  -15.1191   24.6148 C.3     1  UNL1        0.0689
     30 N          -7.8518  -14.7343   23.1966 N.3     1  UNL1       -0.3209
     31 H          -6.9782  -14.6261   22.6812 H       1  UNL1        0.1189
     32 H          -8.3649  -13.8528   23.1849 H       1  UNL1        0.1189
@<TRIPOS>BOND
     1    14    15    1
     2    15    16   ar
     3    16    17   ar
     4    17    18   ar
     5    18    12    1
     6    12     1    1
     7     1     2   ar
     8     2     3   ar
     9     3    22    1
    10    24    22    1
    11    24    25    1
    12    25    26    1
    13    26    27    1
    14    27    28    1
    15    28    29    1
    16    29    30    1
    17     3     4   ar
    18     4     5   ar
    19     5     6   ar
    20     6     7    1
    21     7     8   am
    22     7     9    2
    23    18    19   ar
    24    19    20   ar
    25    20    21    1
    26    20    15   ar
    27     6     1   ar
    28    29    24    1
    29    12    13    1
    30    22    23    1
    31    30    31    1
    32    30    32    1
    33     8    10    1
    34     8    11    1
@<TRIPOS>MOLECULE
*****
 32 34 0 0 0
SMALL
GASTEIGER

@<TRIPOS>ATOM
      1 C          -7.0257  -18.7818   21.5363 C.ar    1  UNL1        0.0764
      2 C          -7.1561  -17.5985   22.4489 C.ar    1  UNL1        0.0522
      3 C          -8.3383  -16.6834   22.3263 C.ar    1  UNL1        0.1515
      4 N          -9.3901  -16.9517   21.2911 N.ar    1  UNL1       -0.1329
      5 N          -9.2598  -18.1349   20.3785 N.ar    1  UNL1       -0.1409
      6 C          -8.0776  -19.0500   20.5011 C.ar    1  UNL1        0.1691
      7 C          -7.9473  -20.2333   19.5885 C.2     1  UNL1        0.2635
      8 N          -8.9763  -20.4770   18.5247 N.am    1  UNL1       -0.3240
      9 O          -6.7878  -21.1729   19.7397 O.2     1  UNL1       -0.2686
     10 H          -9.7373  -19.8603   18.4255 H       1  UNL1        0.1453
     11 H          -8.8908  -21.2536   17.9257 H       1  UNL1        0.1453
     12 N          -5.8435  -19.6968   21.6589 N.pl3   1  UNL1       -0.2965
     13 H          -5.9646  -20.6157   21.9908 H       1  UNL1        0.1537
     14 C          -0.3766  -17.7569   20.1261 C.3     1  UNL1        0.0323
     15 C          -1.7433  -18.2419   20.5093 C.ar    1  UNL1       -0.0081
     16 C          -1.9518  -18.9367   21.8222 C.ar    1  UNL1       -0.0002
     17 C          -3.3185  -19.4216   22.2054 C.ar    1  UNL1        0.0341
     18 C          -4.4768  -19.2119   21.2757 C.ar    1  UNL1        0.1318
     19 N          -4.2683  -18.5171   19.9627 N.ar    1  UNL1       -0.2352
     20 C          -2.9015  -18.0321   19.5796 C.ar    1  UNL1        0.0568
     21 C          -2.6931  -17.3374   18.2666 C.3     1  UNL1        0.0518
     22 N          -8.4686  -15.5001   23.2389 N.pl3   1  UNL1       -0.3170
     23 H          -8.9792  -14.7095   22.9499 H       1  UNL1        0.1482
     24 C          -7.8211  -15.5214   24.5918 C.3     1  UNL1        0.0845
     25 C          -8.6226  -15.9030   25.8010 C.3     1  UNL1        0.0209
     26 C          -7.9750  -15.9243   27.1538 C.3     1  UNL1        0.0018
     27 C          -6.5260  -15.5640   27.2975 C.3     1  UNL1        0.0015
     28 C          -5.7246  -15.1825   26.0883 C.3     1  UNL1        0.0172
     29 C          -6.3721  -15.1612   24.7355 C.3     1  UNL1        0.0689
     30 N          -5.5707  -14.7796   23.5263 N.3     1  UNL1       -0.3209
     31 H          -6.1651  -14.8186   22.6983 H       1  UNL1        0.1189
     32 H          -4.7914  -15.4285   23.4163 H       1  UNL1        0.1189
@<TRIPOS>BOND
     1    14    15    1
     2    15    16   ar
     3    16    17   ar
     4    17    18   ar
     5    18    12    1
     6    12     1    1
     7     1     2   ar
     8     2     3   ar
     9     3    22    1
    10    24    22    1
    11    24    25    1
    12    25    26    1
    13    26    27    1
    14    27    28    1
    15    28    29    1
    16    29    30    1
    17     3     4   ar
    18     4     5   ar
    19     5     6   ar
    20     6     7    1
    21     7     8   am
    22     7     9    2
    23    18    19   ar
    24    19    20   ar
    25    20    21    1
    26    20    15   ar
    27     6     1   ar
    28    29    24    1
    29    12    13    1
    30    22    23    1
    31    30    31    1
    32    30    32    1
    33     8    10    1
    34     8    11    1
@<TRIPOS>MOLECULE
*****
 32 34 0 0 0
SMALL
GASTEIGER

@<TRIPOS>ATOM
      1 C          -5.9970  -18.9014   22.1584 C.ar    1  UNL1        0.0764
      2 C          -6.1435  -17.6972   23.0408 C.ar    1  UNL1        0.0522
      3 C          -5.0033  -16.7344   23.1912 C.ar    1  UNL1        0.1515
      4 N          -3.7164  -16.9756   22.4593 N.ar    1  UNL1       -0.1329
      5 N          -3.5698  -18.1797   21.5769 N.ar    1  UNL1       -0.1409
      6 C          -4.7101  -19.1427   21.4265 C.ar    1  UNL1        0.1691
      7 C          -4.5635  -20.3467   20.5441 C.2     1  UNL1        0.2635
      8 N          -3.1976  -20.8330   20.1596 N.am    1  UNL1       -0.3240
      9 O          -5.7828  -21.0646   20.0462 O.2     1  UNL1       -0.2686
     10 H          -2.3973  -20.3618   20.4864 H       1  UNL1        0.1453
     11 H          -3.1013  -21.6233   19.5805 H       1  UNL1        0.1453
     12 N          -7.1372  -19.8642   22.0080 N.pl3   1  UNL1       -0.2965
     13 H          -6.9696  -20.7793   21.6857 H       1  UNL1        0.1537
     14 C         -12.7201  -18.1390   23.3700 C.3     1  UNL1        0.0323
     15 C         -11.3244  -18.5703   23.0295 C.ar    1  UNL1       -0.0081
     16 C         -10.5990  -19.5347   23.9204 C.ar    1  UNL1       -0.0002
     17 C          -9.2033  -19.9660   23.5799 C.ar    1  UNL1        0.0341
     18 C          -8.5330  -19.4329   22.3485 C.ar    1  UNL1        0.1318
     19 N          -9.2583  -18.4686   21.4576 N.ar    1  UNL1       -0.2352
     20 C         -10.6541  -18.0373   21.7981 C.ar    1  UNL1        0.0568
     21 C         -11.3794  -17.0728   20.9071 C.3     1  UNL1        0.0518
     22 N          -5.1498  -15.5302   24.0736 N.pl3   1  UNL1       -0.3170
     23 H          -4.5411  -14.7640   23.9659 H       1  UNL1        0.1482
     24 C          -6.2239  -15.4935   25.1201 C.3     1  UNL1        0.0845
     25 C          -5.9004  -15.8536   26.5399 C.3     1  UNL1        0.0209
     26 C          -6.9744  -15.8169   27.5863 C.3     1  UNL1        0.0018
     27 C          -8.3720  -15.4201   27.2130 C.3     1  UNL1        0.0015
     28 C          -8.6955  -15.0601   25.7932 C.3     1  UNL1        0.0172
     29 C          -7.6215  -15.0968   24.7468 C.3     1  UNL1        0.0689
     30 N          -7.9449  -14.7367   23.3271 N.3     1  UNL1       -0.3209
     31 H          -7.1034  -14.8155   22.7561 H       1  UNL1        0.1189
     32 H          -8.2924  -13.7784   23.2901 H       1  UNL1        0.1189
@<TRIPOS>BOND
     1    14    15    1
     2    15    16   ar
     3    16    17   ar
     4    17    18   ar
     5    18    12    1
     6    12     1    1
     7     1     2   ar
     8     2     3   ar
     9     3    22    1
    10    24    22    1
    11    24    25    1
    12    25    26    1
    13    26    27    1
    14    27    28    1
    15    28    29    1
    16    29    30    1
    17     3     4   ar
    18     4     5   ar
    19     5     6   ar
    20     6     7    1
    21     7     8   am
    22     7     9    2
    23    18    19   ar
    24    19    20   ar
    25    20    21    1
    26    20    15   ar
    27     6     1   ar
    28    29    24    1
    29    12    13    1
    30    22    23    1
    31    30    31    1
    32    30    32    1
    33     8    10    1
    34     8    11    1
@<TRIPOS>MOLECULE
*****
 32 34 0 0 0
SMALL
GASTEIGER

@<TRIPOS>ATOM
      1 C          -7.6123  -15.6998   24.7871 C.ar    1  UNL1        0.0764
      2 C          -6.5616  -15.7518   23.7178 C.ar    1  UNL1        0.0522
      3 C          -5.1094  -15.7600   24.0930 C.ar    1  UNL1        0.1515
      4 N          -4.7077  -15.7161   25.5376 N.ar    1  UNL1       -0.1329
      5 N          -5.7583  -15.6640   26.6069 N.ar    1  UNL1       -0.1409
      6 C          -7.2107  -15.6558   26.2317 C.ar    1  UNL1        0.1691
      7 C          -8.2613  -15.6038   27.3010 C.2     1  UNL1        0.2635
      8 N          -8.5551  -14.3103   28.0014 N.am    1  UNL1       -0.3240
      9 O          -9.0181  -16.8452   27.6698 O.2     1  UNL1       -0.2686
     10 H          -8.0583  -13.4955   27.7593 H       1  UNL1        0.1453
     11 H          -9.2446  -14.2761   28.7032 H       1  UNL1        0.1453
     12 N          -9.0645  -15.6916   24.4118 N.pl3   1  UNL1       -0.2965
     13 H          -9.6482  -14.9607   24.7189 H       1  UNL1        0.1537
     14 C         -11.3166  -20.1137   21.0394 C.3     1  UNL1        0.0323
     15 C         -10.7536  -19.0082   21.8825 C.ar    1  UNL1       -0.0081
     16 C         -10.2342  -19.3042   23.2582 C.ar    1  UNL1       -0.0002
     17 C          -9.6712  -18.1987   24.1013 C.ar    1  UNL1        0.0341
     18 C          -9.6276  -16.7971   23.5687 C.ar    1  UNL1        0.1318
     19 N         -10.1470  -16.5011   22.1930 N.ar    1  UNL1       -0.2352
     20 C         -10.7100  -17.6066   21.3499 C.ar    1  UNL1        0.0568
     21 C         -11.2294  -17.3105   19.9742 C.3     1  UNL1        0.0518
     22 N          -4.0586  -15.8121   23.0237 N.pl3   1  UNL1       -0.3170
     23 H          -3.6924  -14.9771   22.6523 H       1  UNL1        0.1482
     24 C          -3.5659  -17.1364   22.5203 C.3     1  UNL1        0.0845
     25 C          -4.3767  -18.3766   22.7545 C.3     1  UNL1        0.0209
     26 C          -3.8839  -19.7009   22.2511 C.3     1  UNL1        0.0018
     27 C          -2.5805  -19.7850   21.5134 C.3     1  UNL1        0.0015
     28 C          -1.7699  -18.5449   21.2792 C.3     1  UNL1        0.0172
     29 C          -2.2626  -17.2206   21.7826 C.3     1  UNL1        0.0689
     30 N          -1.4519  -15.9804   21.5484 N.3     1  UNL1       -0.3209
     31 H          -1.9330  -15.1780   21.9547 H       1  UNL1        0.1189
     32 H          -1.3352  -15.8349   20.5456 H       1  UNL1        0.1189
@<TRIPOS>BOND
     1    14    15    1
     2    15    16   ar
     3    16    17   ar
     4    17    18   ar
     5    18    12    1
     6    12     1    1
     7     1     2   ar
     8     2     3   ar
     9     3    22    1
    10    24    22    1
    11    24    25    1
    12    25    26    1
    13    26    27    1
    14    27    28    1
    15    28    29    1
    16    29    30    1
    17     3     4   ar
    18     4     5   ar
    19     5     6   ar
    20     6     7    1
    21     7     8   am
    22     7     9    2
    23    18    19   ar
    24    19    20   ar
    25    20    21    1
    26    20    15   ar
    27     6     1   ar
    28    29    24    1
    29    12    13    1
    30    22    23    1
    31    30    31    1
    32    30    32    1
    33     8    10    1
    34     8    11    1
@<TRIPOS>MOLECULE
*****
 32 34 0 0 0
SMALL
GASTEIGER

@<TRIPOS>ATOM
      1 C          -4.2736  -17.6196   22.4261 C.ar    1  UNL1        0.0764
      2 C          -5.4810  -18.5062   22.5054 C.ar    1  UNL1        0.0522
      3 C          -5.5700  -19.7310   21.6441 C.ar    1  UNL1        0.1515
      4 N          -4.4516  -20.0693   20.7035 N.ar    1  UNL1       -0.1329
      5 N          -3.2442  -19.1828   20.6242 N.ar    1  UNL1       -0.1409
      6 C          -3.1552  -17.9579   21.4855 C.ar    1  UNL1        0.1691
      7 C          -1.9478  -17.0714   21.4062 C.2     1  UNL1        0.2635
      8 N          -0.6135  -17.6522   21.0424 N.am    1  UNL1       -0.3240
      9 O          -2.0748  -15.6042   21.6908 O.2     1  UNL1       -0.2686
     10 H          -0.5302  -18.6152   20.8557 H       1  UNL1        0.1453
     11 H           0.1789  -17.0703   20.9904 H       1  UNL1        0.1453
     12 N          -4.1846  -16.3948   23.2874 N.pl3   1  UNL1       -0.2965
     13 H          -3.4212  -15.7805   23.1923 H       1  UNL1        0.1537
     14 C          -8.4815  -15.2392   27.3126 C.3     1  UNL1        0.0323
     15 C          -7.4073  -15.5281   26.3063 C.ar    1  UNL1       -0.0081
     16 C          -5.9652  -15.4918   26.7173 C.ar    1  UNL1       -0.0002
     17 C          -4.8910  -15.7807   25.7111 C.ar    1  UNL1        0.0341
     18 C          -5.2588  -16.1059   24.2937 C.ar    1  UNL1        0.1318
     19 N          -6.7009  -16.1422   23.8827 N.ar    1  UNL1       -0.2352
     20 C          -7.7752  -15.8533   24.8890 C.ar    1  UNL1        0.0568
     21 C          -9.2173  -15.8896   24.4778 C.3     1  UNL1        0.0518
     22 N          -6.7774  -20.6176   21.7234 N.pl3   1  UNL1       -0.3170
     23 H          -6.6772  -21.5939   21.6454 H       1  UNL1        0.1482
     24 C          -8.1374  -20.0166   21.9214 C.3     1  UNL1        0.0845
     25 C          -8.8175  -20.1230   23.2542 C.3     1  UNL1        0.0209
     26 C         -10.1775  -19.5221   23.4522 C.3     1  UNL1        0.0018
     27 C         -10.8574  -18.8147   22.3175 C.3     1  UNL1        0.0015
     28 C         -10.1773  -18.7084   20.9848 C.3     1  UNL1        0.0172
     29 C          -8.8173  -19.3093   20.7868 C.3     1  UNL1        0.0689
     30 N          -8.1372  -19.2030   19.4541 N.3     1  UNL1       -0.3209
     31 H          -7.2279  -19.6631   19.4987 H       1  UNL1        0.1189
     32 H          -8.0092  -18.2196   19.2152 H       1  UNL1        0.1189
@<TRIPOS>BOND
     1    14    15    1
     2    15    16   ar
     3    16    17   ar
     4    17    18   ar
     5    18    12    1
     6    12     1    1
     7     1     2   ar
     8     2     3   ar
     9     3    22    1
    10    24    22    1
    11    24    25    1
    12    25    26    1
    13    26    27    1
    14    27    28    1
    15    28    29    1
    16    29    30    1
    17     3     4   ar
    18     4     5   ar
    19     5     6   ar
    20     6     7    1
    21     7     8   am
    22     7     9    2
    23    18    19   ar
    24    19    20   ar
    25    20    21    1
    26    20    15   ar
    27     6     1   ar
    28    29    24    1
    29    12    13    1
    30    22    23    1
    31    30    31    1
    32    30    32    1
    33     8    10    1
    34     8    11    1
@<TRIPOS>MOLECULE
*****
 32 34 0 0 0
SMALL
GASTEIGER

@<TRIPOS>ATOM
      1 C          -8.7809  -19.2440   21.8486 C.ar    1  UNL1        0.0764
      2 C          -7.3673  -19.7410   21.9179 C.ar    1  UNL1        0.0522
      3 C          -6.5427  -19.8337   20.6683 C.ar    1  UNL1        0.1515
      4 N          -7.1317  -19.4293   19.3494 N.ar    1  UNL1       -0.1329
      5 N          -8.5452  -18.9324   19.2800 N.ar    1  UNL1       -0.1409
      6 C          -9.3699  -18.8397   20.5296 C.ar    1  UNL1        0.1691
      7 C         -10.7834  -18.3428   20.4602 C.2     1  UNL1        0.2635
      8 N         -11.1096  -17.1189   19.6566 N.am    1  UNL1       -0.3240
      9 O         -11.8708  -19.0697   21.1944 O.2     1  UNL1       -0.2686
     10 H         -10.3958  -16.6418   19.1748 H       1  UNL1        0.1453
     11 H         -12.0374  -16.7927   19.6111 H       1  UNL1        0.1453
     12 N          -9.6055  -19.1514   23.0981 N.pl3   1  UNL1       -0.2965
     13 H         -10.3956  -19.7279   23.2104 H       1  UNL1        0.1537
     14 C          -8.0886  -15.2673   27.4124 C.3     1  UNL1        0.0323
     15 C          -8.4678  -16.2383   26.3338 C.ar    1  UNL1       -0.0081
     16 C          -9.2535  -17.4695   26.6755 C.ar    1  UNL1       -0.0002
     17 C          -9.6327  -18.4405   25.5969 C.ar    1  UNL1        0.0341
     18 C          -9.2263  -18.1804   24.1767 C.ar    1  UNL1        0.1318
     19 N          -8.4406  -16.9492   23.8350 N.ar    1  UNL1       -0.2352
     20 C          -8.0614  -15.9781   24.9136 C.ar    1  UNL1        0.0568
     21 C          -7.2756  -14.7469   24.5719 C.3     1  UNL1        0.0518
     22 N          -5.1291  -20.3306   20.7377 N.pl3   1  UNL1       -0.3170
     23 H          -4.9504  -21.2899   20.8688 H       1  UNL1        0.1482
     24 C          -3.9877  -19.3661   20.6073 C.3     1  UNL1        0.0845
     25 C          -3.3578  -19.1263   19.2672 C.3     1  UNL1        0.0209
     26 C          -2.2165  -18.1618   19.1367 C.3     1  UNL1        0.0018
     27 C          -1.7051  -17.4370   20.3464 C.3     1  UNL1        0.0015
     28 C          -2.3350  -17.6768   21.6864 C.3     1  UNL1        0.0172
     29 C          -3.4764  -18.6413   21.8168 C.3     1  UNL1        0.0689
     30 N          -4.1063  -18.8811   23.1568 N.3     1  UNL1       -0.3209
     31 H          -4.8608  -19.5607   23.0611 H       1  UNL1        0.1189
     32 H          -4.4823  -18.0042   23.5176 H       1  UNL1        0.1189
@<TRIPOS>BOND
     1    14    15    1
     2    15    16   ar
     3    16    17   ar
     4    17    18   ar
     5    18    12    1
     6    12     1    1
     7     1     2   ar
     8     2     3   ar
     9     3    22    1
    10    24    22    1
    11    24    25    1
    12    25    26    1
    13    26    27    1
    14    27    28    1
    15    28    29    1
    16    29    30    1
    17     3     4   ar
    18     4     5   ar
    19     5     6   ar
    20     6     7    1
    21     7     8   am
    22     7     9    2
    23    18    19   ar
    24    19    20   ar
    25    20    21    1
    26    20    15   ar
    27     6     1   ar
    28    29    24    1
    29    12    13    1
    30    22    23    1
    31    30    31    1
    32    30    32    1
    33     8    10    1
    34     8    11    1
@<TRIPOS>MOLECULE
*****
 32 34 0 0 0
SMALL
GASTEIGER

@<TRIPOS>ATOM
      1 C          -6.6313  -15.4783   23.9755 C.ar    1  UNL1        0.0764
      2 C          -7.6068  -15.6507   22.8490 C.ar    1  UNL1        0.0522
      3 C          -9.0595  -15.8805   23.1435 C.ar    1  UNL1        0.1515
      4 N          -9.5368  -15.9381   24.5644 N.ar    1  UNL1       -0.1329
      5 N          -8.5614  -15.7658   25.6908 N.ar    1  UNL1       -0.1409
      6 C          -7.1086  -15.5359   25.3963 C.ar    1  UNL1        0.1691
      7 C          -6.1332  -15.3636   26.5227 C.2     1  UNL1        0.2635
      8 N          -6.4668  -14.4593   27.6720 N.am    1  UNL1       -0.3240
      9 O          -4.8242  -16.0957   26.4999 O.2     1  UNL1       -0.2686
     10 H          -7.3260  -13.9788   27.6870 H       1  UNL1        0.1453
     11 H          -5.8266  -14.3462   28.4113 H       1  UNL1        0.1453
     12 N          -5.1786  -15.2485   23.6810 N.pl3   1  UNL1       -0.2965
     13 H          -4.7635  -14.3824   23.8976 H       1  UNL1        0.1537
     14 C          -1.8976  -19.6067   21.1828 C.3     1  UNL1        0.0323
     15 C          -2.7179  -18.5171   21.8073 C.ar    1  UNL1       -0.0081
     16 C          -3.9140  -18.8642   22.6433 C.ar    1  UNL1       -0.0002
     17 C          -4.7342  -17.7747   23.2678 C.ar    1  UNL1        0.0341
     18 C          -4.3584  -16.3380   23.0564 C.ar    1  UNL1        0.1318
     19 N          -3.1623  -15.9909   22.2205 N.ar    1  UNL1       -0.2352
     20 C          -2.3420  -17.0805   21.5959 C.ar    1  UNL1        0.0568
     21 C          -1.1459  -16.7333   20.7600 C.3     1  UNL1        0.0518
     22 N         -10.0350  -16.0529   22.0170 N.pl3   1  UNL1       -0.3170
     23 H         -10.6943  -15.3475   21.8246 H       1  UNL1        0.1482
     24 C         -10.0059  -17.2999   21.1839 C.3     1  UNL1        0.0845
     25 C          -8.8832  -18.2820   21.3428 C.3     1  UNL1        0.0209
     26 C          -8.8542  -19.5290   20.5096 C.3     1  UNL1        0.0018
     27 C          -9.9477  -19.7939   19.5176 C.3     1  UNL1        0.0015
     28 C         -11.0703  -18.8118   19.3588 C.3     1  UNL1        0.0172
     29 C         -11.0994  -17.5648   20.1919 C.3     1  UNL1        0.0689
     30 N         -12.2220  -16.5827   20.0331 N.3     1  UNL1       -0.3209
     31 H         -12.0824  -15.8005   20.6727 H       1  UNL1        0.1189
     32 H         -13.1078  -17.0416   20.2455 H       1  UNL1        0.1189
@<TRIPOS>BOND
     1    14    15    1
     2    15    16   ar
     3    16    17   ar
     4    17    18   ar
     5    18    12    1
     6    12     1    1
     7     1     2   ar
     8     2     3   ar
     9     3    22    1
    10    24    22    1
    11    24    25    1
    12    25    26    1
    13    26    27    1
    14    27    28    1
    15    28    29    1
    16    29    30    1
    17     3     4   ar
    18     4     5   ar
    19     5     6   ar
    20     6     7    1
    21     7     8   am
    22     7     9    2
    23    18    19   ar
    24    19    20   ar
    25    20    21    1
    26    20    15   ar
    27     6     1   ar
    28    29    24    1
    29    12    13    1
    30    22    23    1
    31    30    31    1
    32    30    32    1
    33     8    10    1
    34     8    11    1
@<TRIPOS>MOLECULE
*****
 32 34 0 0 0
SMALL
GASTEIGER

@<TRIPOS>ATOM
      1 C          -7.1181  -17.8594   22.4877 C.ar    1  UNL1        0.0764
      2 C          -5.7212  -18.4003   22.5657 C.ar    1  UNL1        0.0522
      3 C          -4.6050  -17.5268   23.0565 C.ar    1  UNL1        0.1515
      4 N          -4.8856  -16.1123   23.4693 N.ar    1  UNL1       -0.1329
      5 N          -6.2824  -15.5713   23.3914 N.ar    1  UNL1       -0.1409
      6 C          -7.3987  -16.4449   22.9006 C.ar    1  UNL1        0.1691
      7 C          -8.7956  -15.9039   22.8226 C.2     1  UNL1        0.2635
      8 N          -9.3656  -15.4868   21.4993 N.am    1  UNL1       -0.3240
      9 O          -9.6224  -15.7800   24.0679 O.2     1  UNL1       -0.2686
     10 H          -8.8228  -15.5681   20.6819 H       1  UNL1        0.1453
     11 H         -10.2824  -15.1317   21.4481 H       1  UNL1        0.1453
     12 N          -8.2344  -18.7329   21.9970 N.pl3   1  UNL1       -0.2965
     13 H          -8.0827  -19.3490   21.2442 H       1  UNL1        0.1537
     14 C         -13.6236  -18.4725   24.6216 C.3     1  UNL1        0.0323
     15 C         -12.2763  -18.5376   23.9654 C.ar    1  UNL1       -0.0081
     16 C         -11.0928  -19.0496   24.7317 C.ar    1  UNL1       -0.0002
     17 C          -9.7455  -19.1147   24.0755 C.ar    1  UNL1        0.0341
     18 C          -9.5817  -18.6678   22.6531 C.ar    1  UNL1        0.1318
     19 N         -10.7651  -18.1558   21.8868 N.ar    1  UNL1       -0.2352
     20 C         -12.1124  -18.0907   22.5430 C.ar    1  UNL1        0.0568
     21 C         -13.2959  -17.5786   21.7767 C.3     1  UNL1        0.0518
     22 N          -3.2080  -18.0678   23.1345 N.pl3   1  UNL1       -0.3170
     23 H          -2.9202  -18.5751   23.9276 H       1  UNL1        0.1482
     24 C          -2.2497  -17.8358   22.0041 C.3     1  UNL1        0.0845
     25 C          -1.7659  -16.4480   21.7039 C.3     1  UNL1        0.0209
     26 C          -0.8076  -16.2159   20.5735 C.3     1  UNL1        0.0018
     27 C          -0.3331  -17.3717   19.7433 C.3     1  UNL1        0.0015
     28 C          -0.8169  -18.7594   20.0435 C.3     1  UNL1        0.0172
     29 C          -1.7752  -18.9914   21.1739 C.3     1  UNL1        0.0689
     30 N          -2.2590  -20.3791   21.4742 N.3     1  UNL1       -0.3209
     31 H          -2.8990  -20.3517   22.2679 H       1  UNL1        0.1189
     32 H          -1.4628  -20.9754   21.6998 H       1  UNL1        0.1189
@<TRIPOS>BOND
     1    14    15    1
     2    15    16   ar
     3    16    17   ar
     4    17    18   ar
     5    18    12    1
     6    12     1    1
     7     1     2   ar
     8     2     3   ar
     9     3    22    1
    10    24    22    1
    11    24    25    1
    12    25    26    1
    13    26    27    1
    14    27    28    1
    15    28    29    1
    16    29    30    1
    17     3     4   ar
    18     4     5   ar
    19     5     6   ar
    20     6     7    1
    21     7     8   am
    22     7     9    2
    23    18    19   ar
    24    19    20   ar
    25    20    21    1
    26    20    15   ar
    27     6     1   ar
    28    29    24    1
    29    12    13    1
    30    22    23    1
    31    30    31    1
    32    30    32    1
    33     8    10    1
    34     8    11    1
@<TRIPOS>MOLECULE
*****
 32 34 0 0 0
SMALL
GASTEIGER

@<TRIPOS>ATOM
      1 C          -7.3707  -17.9219   23.0380 C.ar    1  UNL1        0.0764
      2 C          -6.4202  -18.8185   22.3013 C.ar    1  UNL1        0.0522
      3 C          -4.9748  -18.4380   22.1759 C.ar    1  UNL1        0.1515
      4 N          -4.4797  -17.1607   22.7871 N.ar    1  UNL1       -0.1329
      5 N          -5.4301  -16.2641   23.5238 N.ar    1  UNL1       -0.1409
      6 C          -6.8757  -16.6446   23.6492 C.ar    1  UNL1        0.1691
      7 C          -7.8261  -15.7480   24.3859 C.2     1  UNL1        0.2635
      8 N          -7.8148  -14.2702   24.1289 N.am    1  UNL1       -0.3240
      9 O          -8.7878  -16.3291   25.3795 O.2     1  UNL1       -0.2686
     10 H          -7.1836  -13.8888   23.4767 H       1  UNL1        0.1453
     11 H          -8.4386  -13.6817   24.6124 H       1  UNL1        0.1453
     12 N          -8.8162  -18.3024   23.1634 N.pl3   1  UNL1       -0.2965
     13 H          -9.0951  -18.9596   23.8413 H       1  UNL1        0.1537
     14 C         -12.8981  -15.8196   19.5338 C.3     1  UNL1        0.0323
     15 C         -11.8776  -16.4403   20.4412 C.ar    1  UNL1       -0.0081
     16 C         -12.2454  -17.6253   21.2840 C.ar    1  UNL1       -0.0002
     17 C         -11.2249  -18.2460   22.1914 C.ar    1  UNL1        0.0341
     18 C          -9.8367  -17.6817   22.2560 C.ar    1  UNL1        0.1318
     19 N          -9.4689  -16.4967   21.4132 N.ar    1  UNL1       -0.2352
     20 C         -10.4893  -15.8760   20.5058 C.ar    1  UNL1        0.0568
     21 C         -10.1214  -14.6909   19.6630 C.3     1  UNL1        0.0518
     22 N          -4.0243  -19.3346   21.4392 N.pl3   1  UNL1       -0.3170
     23 H          -4.1053  -20.3123   21.5223 H       1  UNL1        0.1482
     24 C          -2.9504  -18.7417   20.5759 C.3     1  UNL1        0.0845
     25 C          -3.1851  -18.5600   19.1055 C.3     1  UNL1        0.0209
     26 C          -2.1113  -17.9670   18.2423 C.3     1  UNL1        0.0018
     27 C          -0.8026  -17.5558   18.8494 C.3     1  UNL1        0.0015
     28 C          -0.5680  -17.7376   20.3197 C.3     1  UNL1        0.0172
     29 C          -1.6419  -18.3305   21.1830 C.3     1  UNL1        0.0689
     30 N          -1.4072  -18.5122   22.6533 N.3     1  UNL1       -0.3209
     31 H          -2.2359  -18.9251   23.0814 H       1  UNL1        0.1189
     32 H          -1.2186  -17.6062   23.0821 H       1  UNL1        0.1189
@<TRIPOS>BOND
     1    14    15    1
     2    15    16   ar
     3    16    17   ar
     4    17    18   ar
     5    18    12    1
     6    12     1    1
     7     1     2   ar
     8     2     3   ar
     9     3    22    1
    10    24    22    1
    11    24    25    1
    12    25    26    1
    13    26    27    1
    14    27    28    1
    15    28    29    1
    16    29    30    1
    17     3     4   ar
    18     4     5   ar
    19     5     6   ar
    20     6     7    1
    21     7     8   am
    22     7     9    2
    23    18    19   ar
    24    19    20   ar
    25    20    21    1
    26    20    15   ar
    27     6     1   ar
    28    29    24    1
    29    12    13    1
    30    22    23    1
    31    30    31    1
    32    30    32    1
    33     8    10    1
    34     8    11    1
