@<TRIPOS>MOLECULE
*****
 41 46 0 0 0
SMALL
GASTEIGER

@<TRIPOS>ATOM
      1 N          -0.2190    2.4566   21.4375 N.3     1  UNL1       -0.1543
      2 C          -0.2484    3.0682   22.8068 C.3     1  UNL1        0.1002
      3 C           0.5992    2.4939   23.9030 C.3     1  UNL1        0.0417
      4 C           1.4761    1.3080   23.6300 C.2     1  UNL1       -0.0333
      5 C           2.3237    0.7336   24.7263 C.2     1  UNL1        0.0109
      6 C           3.2006   -0.4523   24.4533 C.ar    1  UNL1        0.0797
      7 C           3.2299   -1.0639   23.0839 C.ar    1  UNL1        0.0171
      8 C           4.1859   -2.2194   23.1128 C.ar    1  UNL1        0.1177
      9 N           4.7474   -2.3220   24.5000 N.ar    1  UNL1       -0.1639
     10 N           4.1384   -1.2298   25.3284 N.ar    1  UNL1       -0.2300
     11 C           2.3824   -0.4896   21.9876 C.3     1  UNL1        0.0420
     12 C           1.5055    0.6963   22.2607 C.3     1  UNL1        0.0927
     13 C           0.6579    1.2706   21.1645 C.3     1  UNL1        0.1071
     14 C           4.4181   -0.9622   26.7776 C.ar    1  UNL1        0.0829
     15 C           5.8228   -0.7013   27.2346 C.ar    1  UNL1        0.0215
     16 C           6.1024   -0.4336   28.6838 C.ar    1  UNL1        0.0312
     17 C           4.9775   -0.4268   29.6760 C.ar    1  UNL1        0.1402
     18 F           5.2572   -0.1592   31.1252 F       1  UNL1       -0.2042
     19 C           3.5728   -0.6878   29.2189 C.ar    1  UNL1        0.0312
     20 C           3.2932   -0.9554   27.7697 C.ar    1  UNL1        0.0215
     21 S          -1.0666    3.0309   20.3412 S.O2    1  UNL1        0.0664
     22 O          -2.2927    2.8216   21.1795 O.2     1  UNL1       -0.1527
     23 O           0.1595    3.2402   19.5029 O.2     1  UNL1       -0.1527
     24 C          -5.2167    4.8577   17.6356 C.3     1  UNL1        0.1538
     25 N          -3.8218    4.4449   18.0013 N.ar    1  UNL1       -0.2459
     26 C          -3.3885    3.8715   19.3180 C.ar    1  UNL1        0.1166
     27 C          -1.9141    3.6052   19.2449 C.ar    1  UNL1        0.1616
     28 C          -1.4361    4.0140   17.8832 C.ar    1  UNL1        0.1415
     29 N          -2.6151    4.5329   17.1146 N.ar    1  UNL1       -0.1661
     30 C           1.5349    0.0847   20.8914 C.2     1  UNL1        0.1948
     31 O           0.2596   -0.0929   20.1218 O.2     1  UNL1       -0.2894
     32 C           2.8394   -0.3493   20.2917 C.ar    1  UNL1        0.1162
     33 C           3.0066   -1.7556   19.7971 C.ar    1  UNL1        0.0259
     34 C           4.3112   -2.1896   19.1974 C.ar    1  UNL1        0.0745
     35 C           5.4486   -1.2173   19.0922 C.ar    1  UNL1        0.0245
     36 C           5.2814    0.1889   19.5867 C.ar    1  UNL1        0.0989
     37 N           3.9768    0.6229   20.1864 N.ar    1  UNL1       -0.2410
     38 C           4.4784   -3.5958   18.7028 C.3     1  UNL1        0.4187
     39 F           4.6455   -5.0021   18.2083 F       1  UNL1       -0.1659
     40 F           5.7914   -3.2213   18.0819 F       1  UNL1       -0.1659
     41 F           3.1653   -3.9703   19.3237 F       1  UNL1       -0.1659
@<TRIPOS>BOND
     1    24    25    1
     2    25    26   ar
     3    26    27   ar
     4    27    21    1
     5    21    22    2
     6    21    23    2
     7    21     1    1
     8     1     2    1
     9     2     3    1
    10     3     4    1
    11     4     5    2
    12     5     6    1
    13     6     7   ar
    14     7     8   ar
    15     8     9   ar
    16     9    10   ar
    17    10    14    1
    18    14    15   ar
    19    15    16   ar
    20    16    17   ar
    21    17    18    1
    22    17    19   ar
    23    19    20   ar
    24     7    11    1
    25    11    12    1
    26    12    30    1
    27    30    31    2
    28    30    32    1
    29    32    33   ar
    30    33    34   ar
    31    34    38    1
    32    38    39    1
    33    38    40    1
    34    38    41    1
    35    34    35   ar
    36    35    36   ar
    37    36    37   ar
    38    12    13    1
    39    27    28   ar
    40    28    29   ar
    41    29    25   ar
    42    13     1    1
    43    12     4    1
    44    37    32   ar
    45    10     6   ar
    46    20    14   ar
@<TRIPOS>MOLECULE
*****
 41 46 0 0 0
SMALL
GASTEIGER

@<TRIPOS>ATOM
      1 N           1.1375    1.4520   22.0058 N.3     1  UNL1       -0.1543
      2 C           0.7669    1.2495   23.4451 C.3     1  UNL1        0.1002
      3 C           1.7057    0.5294   24.3671 C.3     1  UNL1        0.0417
      4 C           3.0152    0.0120   23.8498 C.2     1  UNL1       -0.0333
      5 C           3.9540   -0.7081   24.7719 C.2     1  UNL1        0.0109
      6 C           5.2635   -1.2256   24.2546 C.ar    1  UNL1        0.0797
      7 C           5.6341   -1.0230   22.8152 C.ar    1  UNL1        0.0171
      8 C           6.9831   -1.6399   22.5927 C.ar    1  UNL1        0.1177
      9 N           7.4462   -2.2238   23.8945 N.ar    1  UNL1       -0.1639
     10 N           6.3835   -1.9677   24.9216 N.ar    1  UNL1       -0.2300
     11 C           4.6952   -0.3030   21.8932 C.3     1  UNL1        0.0420
     12 C           3.3858    0.2145   22.4105 C.3     1  UNL1        0.0927
     13 C           2.4470    0.9345   21.4885 C.3     1  UNL1        0.1071
     14 C           6.4321   -2.3811   26.3627 C.ar    1  UNL1        0.0829
     15 C           6.5361   -3.8334   26.7232 C.ar    1  UNL1        0.0215
     16 C           6.5847   -4.2467   28.1644 C.ar    1  UNL1        0.0312
     17 C           6.5293   -3.2078   29.2449 C.ar    1  UNL1        0.1402
     18 F           6.5779   -3.6212   30.6860 F       1  UNL1       -0.2042
     19 C           6.4253   -1.7555   28.8843 C.ar    1  UNL1        0.0312
     20 C           6.3767   -1.3422   27.4432 C.ar    1  UNL1        0.0215
     21 S           0.1987    2.1721   21.0837 S.O2    1  UNL1        0.0664
     22 O           0.6954    3.4877   21.6054 O.2     1  UNL1       -0.1527
     23 O          -0.2980    0.8564   20.5620 O.2     1  UNL1       -0.1527
     24 C          -4.1368    4.4426   19.1017 C.3     1  UNL1        0.1538
     25 N          -2.7329    3.9358   19.2507 N.ar    1  UNL1       -0.2459
     26 C          -2.1788    3.2112   20.4414 C.ar    1  UNL1        0.1166
     27 C          -0.7401    2.8921   20.1617 C.ar    1  UNL1        0.1616
     28 C          -0.4050    3.4196   18.7981 C.ar    1  UNL1        0.1415
     29 N          -1.6366    4.0646   18.2350 N.ar    1  UNL1       -0.1661
     30 C           3.7564    0.4170   20.9712 C.2     1  UNL1        0.1948
     31 O           3.7074    1.7905   20.3702 O.2     1  UNL1       -0.2894
     32 C           4.1761   -0.7539   20.1329 C.ar    1  UNL1        0.1162
     33 C           3.6462   -2.1235   20.4387 C.ar    1  UNL1        0.0259
     34 C           4.0658   -3.2944   19.6003 C.ar    1  UNL1        0.0745
     35 C           5.0153   -3.0957   18.4562 C.ar    1  UNL1        0.0245
     36 C           5.5452   -1.7262   18.1504 C.ar    1  UNL1        0.0989
     37 N           5.1255   -0.5553   18.9888 N.ar    1  UNL1       -0.2410
     38 C           3.5360   -4.6640   19.9061 C.3     1  UNL1        0.4187
     39 F           3.0061   -6.0336   20.2118 F       1  UNL1       -0.1659
     40 F           4.2858   -4.6641   21.2052 F       1  UNL1       -0.1659
     41 F           2.7861   -4.6639   18.6070 F       1  UNL1       -0.1659
@<TRIPOS>BOND
     1    24    25    1
     2    25    26   ar
     3    26    27   ar
     4    27    21    1
     5    21    22    2
     6    21    23    2
     7    21     1    1
     8     1     2    1
     9     2     3    1
    10     3     4    1
    11     4     5    2
    12     5     6    1
    13     6     7   ar
    14     7     8   ar
    15     8     9   ar
    16     9    10   ar
    17    10    14    1
    18    14    15   ar
    19    15    16   ar
    20    16    17   ar
    21    17    18    1
    22    17    19   ar
    23    19    20   ar
    24     7    11    1
    25    11    12    1
    26    12    30    1
    27    30    31    2
    28    30    32    1
    29    32    33   ar
    30    33    34   ar
    31    34    38    1
    32    38    39    1
    33    38    40    1
    34    38    41    1
    35    34    35   ar
    36    35    36   ar
    37    36    37   ar
    38    12    13    1
    39    27    28   ar
    40    28    29   ar
    41    29    25   ar
    42    13     1    1
    43    12     4    1
    44    37    32   ar
    45    10     6   ar
    46    20    14   ar
@<TRIPOS>MOLECULE
*****
 41 46 0 0 0
SMALL
GASTEIGER

@<TRIPOS>ATOM
      1 N           3.4281    2.9465   36.6096 N.3     1  UNL1       -0.1543
      2 C           2.3523    3.8199   36.0354 C.3     1  UNL1        0.1002
      3 C           1.8130    3.5418   34.6636 C.3     1  UNL1        0.0417
      4 C           2.3495    2.3903   33.8660 C.2     1  UNL1       -0.0333
      5 C           1.8102    2.1122   32.4942 C.2     1  UNL1        0.0109
      6 C           2.3467    0.9607   31.6966 C.ar    1  UNL1        0.0797
      7 C           3.4225    0.0872   32.2709 C.ar    1  UNL1        0.0171
      8 C           3.7534   -0.9677   31.2571 C.ar    1  UNL1        0.1177
      9 N           2.8821   -0.7462   30.0564 N.ar    1  UNL1       -0.1639
     10 N           2.0127    0.4456   30.3280 N.ar    1  UNL1       -0.2300
     11 C           3.9618    0.3653   33.6426 C.3     1  UNL1        0.0420
     12 C           3.4253    1.5169   34.4402 C.3     1  UNL1        0.0927
     13 C           3.9646    1.7950   35.8120 C.3     1  UNL1        0.1071
     14 C           0.9891    1.0212   29.3949 C.ar    1  UNL1        0.0829
     15 C          -0.2493    0.2411   29.0665 C.ar    1  UNL1        0.0215
     16 C          -1.2730    0.8169   28.1333 C.ar    1  UNL1        0.0312
     17 C          -1.0582    2.1727   27.5286 C.ar    1  UNL1        0.1402
     18 F          -2.0819    2.7483   26.5954 F       1  UNL1       -0.2042
     19 C           0.1802    2.9527   27.8570 C.ar    1  UNL1        0.0312
     20 C           1.2038    2.3770   28.7901 C.ar    1  UNL1        0.0215
     21 S           3.9674    3.2246   37.9814 S.O2    1  UNL1        0.0664
     22 O           2.5698    3.2514   38.5254 O.2     1  UNL1       -0.1527
     23 O           5.3650    3.1977   37.4374 O.2     1  UNL1       -0.1527
     24 C           4.6507    5.3223   42.7786 C.3     1  UNL1        0.1538
     25 N           4.8208    4.4669   41.5582 N.ar    1  UNL1       -0.2459
     26 C           3.9891    4.5339   40.3117 C.ar    1  UNL1        0.1166
     27 C           4.5067    3.5026   39.3532 C.ar    1  UNL1        0.1616
     28 C           5.6581    2.7983   40.0073 C.ar    1  UNL1        0.1415
     29 N           5.8523    3.3942   41.3701 N.ar    1  UNL1       -0.1661
     30 C           4.5011    0.6434   35.0144 C.2     1  UNL1        0.1948
     31 O           4.2704   -0.0773   36.3096 O.2     1  UNL1       -0.2894
     32 C           5.8076    0.4907   34.2935 C.ar    1  UNL1        0.1162
     33 C           6.2532   -0.8637   33.8275 C.ar    1  UNL1        0.0259
     34 C           7.5597   -1.0165   33.1066 C.ar    1  UNL1        0.0745
     35 C           8.4206    0.1852   32.8517 C.ar    1  UNL1        0.0245
     36 C           7.9750    1.5395   33.3177 C.ar    1  UNL1        0.0989
     37 N           6.6685    1.6922   34.0386 N.ar    1  UNL1       -0.2410
     38 C           8.0053   -2.3708   32.6406 C.3     1  UNL1        0.4187
     39 F           8.4509   -3.7252   32.1746 F       1  UNL1       -0.1659
     40 F           9.4083   -1.8599   32.4973 F       1  UNL1       -0.1659
     41 F           6.6024   -2.8817   32.7839 F       1  UNL1       -0.1659
@<TRIPOS>BOND
     1    24    25    1
     2    25    26   ar
     3    26    27   ar
     4    27    21    1
     5    21    22    2
     6    21    23    2
     7    21     1    1
     8     1     2    1
     9     2     3    1
    10     3     4    1
    11     4     5    2
    12     5     6    1
    13     6     7   ar
    14     7     8   ar
    15     8     9   ar
    16     9    10   ar
    17    10    14    1
    18    14    15   ar
    19    15    16   ar
    20    16    17   ar
    21    17    18    1
    22    17    19   ar
    23    19    20   ar
    24     7    11    1
    25    11    12    1
    26    12    30    1
    27    30    31    2
    28    30    32    1
    29    32    33   ar
    30    33    34   ar
    31    34    38    1
    32    38    39    1
    33    38    40    1
    34    38    41    1
    35    34    35   ar
    36    35    36   ar
    37    36    37   ar
    38    12    13    1
    39    27    28   ar
    40    28    29   ar
    41    29    25   ar
    42    13     1    1
    43    12     4    1
    44    37    32   ar
    45    10     6   ar
    46    20    14   ar
@<TRIPOS>MOLECULE
*****
 41 46 0 0 0
SMALL
GASTEIGER

@<TRIPOS>ATOM
      1 N           1.5428    0.4875   28.3158 N.3     1  UNL1       -0.1543
      2 C           0.1259    0.4872   28.8080 C.3     1  UNL1        0.1002
      3 C          -0.9541    1.1240   27.9847 C.3     1  UNL1        0.0417
      4 C          -0.6173    1.7612   26.6692 C.2     1  UNL1       -0.0333
      5 C          -1.6975    2.3981   25.8460 C.2     1  UNL1        0.0109
      6 C          -1.3607    3.0353   24.5305 C.ar    1  UNL1        0.0797
      7 C           0.0563    3.0356   24.0382 C.ar    1  UNL1        0.0171
      8 C           0.0860    3.7353   22.7118 C.ar    1  UNL1        0.1177
      9 N          -1.3126    4.1673   22.3842 N.ar    1  UNL1       -0.1639
     10 N          -2.2067    3.7347   23.5082 N.ar    1  UNL1       -0.2300
     11 C           1.1364    2.3987   24.8615 C.3     1  UNL1        0.0420
     12 C           0.7996    1.7615   26.1770 C.3     1  UNL1        0.0927
     13 C           1.8797    1.1247   27.0003 C.3     1  UNL1        0.1071
     14 C          -3.6868    3.9617   23.5948 C.ar    1  UNL1        0.0829
     15 C          -4.2938    4.4749   24.8669 C.ar    1  UNL1        0.0215
     16 C          -5.7740    4.7018   24.9534 C.ar    1  UNL1        0.0312
     17 C          -6.6473    4.4156   23.7678 C.ar    1  UNL1        0.1402
     18 F          -8.1275    4.6425   23.8544 F       1  UNL1       -0.2042
     19 C          -6.0403    3.9023   22.4958 C.ar    1  UNL1        0.0312
     20 C          -4.5601    3.6754   22.4093 C.ar    1  UNL1        0.0215
     21 S           2.6230   -0.1494   29.1390 S.O2    1  UNL1        0.0664
     22 O           2.4801    0.9352   30.1654 O.2     1  UNL1       -0.1527
     23 O           2.7659   -1.2339   28.1127 O.2     1  UNL1       -0.1527
     24 C           5.3119   -2.1294   33.2293 C.3     1  UNL1        0.1538
     25 N           4.9391   -1.6963   31.8424 N.ar    1  UNL1       -0.2459
     26 C           3.6484   -1.0475   31.4384 C.ar    1  UNL1        0.1166
     27 C           3.7031   -0.7862   29.9623 C.ar    1  UNL1        0.1616
     28 C           5.0276   -1.2734   29.4541 C.ar    1  UNL1        0.1415
     29 N           5.7915   -1.8359   30.6160 N.ar    1  UNL1       -0.1661
     30 C           2.2165    1.7619   25.6848 C.2     1  UNL1        0.1948
     31 O           3.1857    2.7893   26.1899 O.2     1  UNL1       -0.2894
     32 C           2.6642    0.7349   24.6874 C.ar    1  UNL1        0.1162
     33 C           1.9583    0.6114   23.3696 C.ar    1  UNL1        0.0259
     34 C           2.4060   -0.4156   22.3722 C.ar    1  UNL1        0.0745
     35 C           3.5597   -1.3191   22.6926 C.ar    1  UNL1        0.0245
     36 C           4.2656   -1.1957   24.0103 C.ar    1  UNL1        0.0989
     37 N           3.8179   -0.1687   25.0077 N.ar    1  UNL1       -0.2410
     38 C           1.7001   -0.5390   21.0545 C.3     1  UNL1        0.4187
     39 F           0.9941   -0.6625   19.7367 F       1  UNL1       -0.1659
     40 F           2.7212   -1.5400   20.6013 F       1  UNL1       -0.1659
     41 F           0.6790    0.4619   21.5077 F       1  UNL1       -0.1659
@<TRIPOS>BOND
     1    24    25    1
     2    25    26   ar
     3    26    27   ar
     4    27    21    1
     5    21    22    2
     6    21    23    2
     7    21     1    1
     8     1     2    1
     9     2     3    1
    10     3     4    1
    11     4     5    2
    12     5     6    1
    13     6     7   ar
    14     7     8   ar
    15     8     9   ar
    16     9    10   ar
    17    10    14    1
    18    14    15   ar
    19    15    16   ar
    20    16    17   ar
    21    17    18    1
    22    17    19   ar
    23    19    20   ar
    24     7    11    1
    25    11    12    1
    26    12    30    1
    27    30    31    2
    28    30    32    1
    29    32    33   ar
    30    33    34   ar
    31    34    38    1
    32    38    39    1
    33    38    40    1
    34    38    41    1
    35    34    35   ar
    36    35    36   ar
    37    36    37   ar
    38    12    13    1
    39    27    28   ar
    40    28    29   ar
    41    29    25   ar
    42    13     1    1
    43    12     4    1
    44    37    32   ar
    45    10     6   ar
    46    20    14   ar
@<TRIPOS>MOLECULE
*****
 41 46 0 0 0
SMALL
GASTEIGER

@<TRIPOS>ATOM
      1 N           1.5101    1.9727   30.6131 N.3     1  UNL1       -0.1543
      2 C           1.1194    3.1456   31.4625 C.3     1  UNL1        0.1002
      3 C           1.6250    3.2533   32.8706 C.3     1  UNL1        0.0417
      4 C           2.5213    2.1882   33.4293 C.2     1  UNL1       -0.0333
      5 C           3.0268    2.2959   34.8374 C.2     1  UNL1        0.0109
      6 C           3.9231    1.2308   35.3961 C.ar    1  UNL1        0.0797
      7 C           4.3139    0.0578   34.5466 C.ar    1  UNL1        0.0171
      8 C           5.2043   -0.8303   35.3640 C.ar    1  UNL1        0.1177
      9 N           5.3640   -0.2063   36.7187 N.ar    1  UNL1       -0.1639
     10 N           4.5722    1.0675   36.7385 N.ar    1  UNL1       -0.2300
     11 C           3.8083   -0.0499   33.1385 C.3     1  UNL1        0.0420
     12 C           2.9120    1.0153   32.5798 C.3     1  UNL1        0.0927
     13 C           2.4064    0.9075   31.1718 C.3     1  UNL1        0.1071
     14 C           4.4506    2.0122   37.8973 C.ar    1  UNL1        0.0829
     15 C           3.1077    2.5589   38.2816 C.ar    1  UNL1        0.0215
     16 C           2.9863    3.5037   39.4404 C.ar    1  UNL1        0.0312
     17 C           4.2077    3.9017   40.2149 C.ar    1  UNL1        0.1402
     18 F           4.0862    4.8464   41.3736 F       1  UNL1       -0.2042
     19 C           5.5506    3.3550   39.8304 C.ar    1  UNL1        0.0312
     20 C           5.6720    2.4103   38.6717 C.ar    1  UNL1        0.0215
     21 S           1.0046    1.8649   29.2049 S.O2    1  UNL1        0.0664
     22 O          -0.1855    1.0922   29.6914 O.2     1  UNL1       -0.1527
     23 O           2.1946    2.6375   28.7185 O.2     1  UNL1       -0.1527
     24 C           0.8098    1.1021   23.9838 C.3     1  UNL1        0.1538
     25 N           0.4095    1.4064   25.3969 N.ar    1  UNL1       -0.2459
     26 C           1.3158    1.3948   26.5921 C.ar    1  UNL1        0.1166
     27 C           0.4990    1.7571   27.7969 C.ar    1  UNL1        0.1616
     28 C          -0.9122    1.9926   27.3464 C.ar    1  UNL1        0.1415
     29 N          -0.9676    1.7759   25.8631 N.ar    1  UNL1       -0.1661
     30 C           3.3027   -0.1576   31.7304 C.2     1  UNL1        0.1948
     31 O           2.2535   -0.9220   30.9787 O.2     1  UNL1       -0.2894
     32 C           4.7427   -0.5663   31.6326 C.ar    1  UNL1        0.1162
     33 C           5.1182   -2.0162   31.7166 C.ar    1  UNL1        0.0259
     34 C           6.5581   -2.4248   31.6188 C.ar    1  UNL1        0.0745
     35 C           7.6226   -1.3836   31.4370 C.ar    1  UNL1        0.0245
     36 C           7.2470    0.0662   31.3530 C.ar    1  UNL1        0.0989
     37 N           5.8071    0.4748   31.4508 N.ar    1  UNL1       -0.2410
     38 C           6.9337   -3.8746   31.7028 C.3     1  UNL1        0.4187
     39 F           7.3092   -5.3244   31.7869 F       1  UNL1       -0.1659
     40 F           7.8840   -3.6948   30.5563 F       1  UNL1       -0.1659
     41 F           5.9833   -4.0543   32.8493 F       1  UNL1       -0.1659
@<TRIPOS>BOND
     1    24    25    1
     2    25    26   ar
     3    26    27   ar
     4    27    21    1
     5    21    22    2
     6    21    23    2
     7    21     1    1
     8     1     2    1
     9     2     3    1
    10     3     4    1
    11     4     5    2
    12     5     6    1
    13     6     7   ar
    14     7     8   ar
    15     8     9   ar
    16     9    10   ar
    17    10    14    1
    18    14    15   ar
    19    15    16   ar
    20    16    17   ar
    21    17    18    1
    22    17    19   ar
    23    19    20   ar
    24     7    11    1
    25    11    12    1
    26    12    30    1
    27    30    31    2
    28    30    32    1
    29    32    33   ar
    30    33    34   ar
    31    34    38    1
    32    38    39    1
    33    38    40    1
    34    38    41    1
    35    34    35   ar
    36    35    36   ar
    37    36    37   ar
    38    12    13    1
    39    27    28   ar
    40    28    29   ar
    41    29    25   ar
    42    13     1    1
    43    12     4    1
    44    37    32   ar
    45    10     6   ar
    46    20    14   ar
@<TRIPOS>MOLECULE
*****
 41 46 0 0 0
SMALL
GASTEIGER

@<TRIPOS>ATOM
      1 N          -3.6453    4.4395   24.4150 N.3     1  UNL1       -0.1543
      2 C          -3.8850    3.8541   23.0550 C.3     1  UNL1        0.1002
      3 C          -2.7455    3.2561   22.2844 C.3     1  UNL1        0.0417
      4 C          -1.3663    3.2435   22.8739 C.2     1  UNL1       -0.0333
      5 C          -0.2267    2.6454   22.1032 C.2     1  UNL1        0.0109
      6 C           1.1525    2.6327   22.6927 C.ar    1  UNL1        0.0797
      7 C           1.3923    3.2182   24.0528 C.ar    1  UNL1        0.0171
      8 C           2.8494    3.0637   24.3736 C.ar    1  UNL1        0.1177
      9 N           3.5102    2.3829   23.2118 N.ar    1  UNL1       -0.1639
     10 N           2.4615    2.1165   22.1730 N.ar    1  UNL1       -0.2300
     11 C           0.2528    3.8162   24.8234 C.3     1  UNL1        0.0420
     12 C          -1.1265    3.8289   24.2339 C.3     1  UNL1        0.0927
     13 C          -2.2660    4.4269   25.0045 C.3     1  UNL1        0.1071
     14 C           2.6828    1.4508   20.8471 C.ar    1  UNL1        0.0829
     15 C           2.6701    2.2652   19.5875 C.ar    1  UNL1        0.0215
     16 C           2.8914    1.5994   18.2617 C.ar    1  UNL1        0.0312
     17 C           3.1255    0.1193   18.1955 C.ar    1  UNL1        0.1402
     18 F           3.3469   -0.5464   16.8697 F       1  UNL1       -0.2042
     19 C           3.1383   -0.6951   19.4551 C.ar    1  UNL1        0.0312
     20 C           2.9170   -0.0293   20.7809 C.ar    1  UNL1        0.0215
     21 S          -4.7848    5.0376   25.1857 S.O2    1  UNL1        0.0664
     22 O          -4.4882    6.3789   24.5832 O.2     1  UNL1       -0.1527
     23 O          -5.0814    3.6963   25.7881 O.2     1  UNL1       -0.1527
     24 C          -7.6562    7.1258   29.0940 C.3     1  UNL1        0.1538
     25 N          -7.2441    6.5956   27.7527 N.ar    1  UNL1       -0.2459
     26 C          -5.8924    6.0511   27.3972 C.ar    1  UNL1        0.1166
     27 C          -5.9243    5.6357   25.9562 C.ar    1  UNL1        0.1616
     28 C          -7.2957    5.9234   25.4212 C.ar    1  UNL1        0.1415
     29 N          -8.1114    6.5166   26.5314 N.ar    1  UNL1       -0.1661
     30 C          -0.8868    4.4142   25.5940 C.2     1  UNL1        0.1948
     31 O          -1.2994    5.8266   25.8860 O.2     1  UNL1       -0.2894
     32 C          -0.2344    3.5874   26.6620 C.ar    1  UNL1        0.1162
     33 C          -0.8366    2.2745   27.0668 C.ar    1  UNL1        0.0259
     34 C          -0.1843    1.4477   28.1349 C.ar    1  UNL1        0.0745
     35 C           1.0703    1.9337   28.7982 C.ar    1  UNL1        0.0245
     36 C           1.6725    3.2465   28.3934 C.ar    1  UNL1        0.0989
     37 N           1.0201    4.0734   27.3253 N.ar    1  UNL1       -0.2410
     38 C          -0.7864    0.1349   28.5397 C.3     1  UNL1        0.4187
     39 F          -1.3886   -1.1780   28.9445 F       1  UNL1       -0.1659
     40 F          -2.1344    0.7848   28.6421 F       1  UNL1       -0.1659
     41 F           0.5616   -0.5150   28.4372 F       1  UNL1       -0.1659
@<TRIPOS>BOND
     1    24    25    1
     2    25    26   ar
     3    26    27   ar
     4    27    21    1
     5    21    22    2
     6    21    23    2
     7    21     1    1
     8     1     2    1
     9     2     3    1
    10     3     4    1
    11     4     5    2
    12     5     6    1
    13     6     7   ar
    14     7     8   ar
    15     8     9   ar
    16     9    10   ar
    17    10    14    1
    18    14    15   ar
    19    15    16   ar
    20    16    17   ar
    21    17    18    1
    22    17    19   ar
    23    19    20   ar
    24     7    11    1
    25    11    12    1
    26    12    30    1
    27    30    31    2
    28    30    32    1
    29    32    33   ar
    30    33    34   ar
    31    34    38    1
    32    38    39    1
    33    38    40    1
    34    38    41    1
    35    34    35   ar
    36    35    36   ar
    37    36    37   ar
    38    12    13    1
    39    27    28   ar
    40    28    29   ar
    41    29    25   ar
    42    13     1    1
    43    12     4    1
    44    37    32   ar
    45    10     6   ar
    46    20    14   ar
@<TRIPOS>MOLECULE
*****
 41 46 0 0 0
SMALL
GASTEIGER

@<TRIPOS>ATOM
      1 N           7.0731   -4.4584   29.6995 N.3     1  UNL1       -0.1543
      2 C           6.8744   -4.9216   31.1123 C.3     1  UNL1        0.1002
      3 C           6.4431   -3.9467   32.1675 C.3     1  UNL1        0.0417
      4 C           6.2104   -2.5087   31.8100 C.2     1  UNL1       -0.0333
      5 C           5.7790   -1.5338   32.8653 C.2     1  UNL1        0.0109
      6 C           5.5463   -0.0957   32.5078 C.ar    1  UNL1        0.0797
      7 C           5.7450    0.3675   31.0950 C.ar    1  UNL1        0.0171
      8 C           5.4418    1.8355   31.0416 C.ar    1  UNL1        0.1177
      9 N           5.0557    2.2796   32.4213 N.ar    1  UNL1       -0.1639
     10 N           5.1203    1.0861   33.3275 N.ar    1  UNL1       -0.2300
     11 C           6.1763   -0.6074   30.0397 C.3     1  UNL1        0.0420
     12 C           6.4090   -2.0455   30.3973 C.3     1  UNL1        0.0927
     13 C           6.8404   -3.0203   29.3420 C.3     1  UNL1        0.1071
     14 C           4.8129    1.0760   34.7956 C.ar    1  UNL1        0.0829
     15 C           5.7305    0.3698   35.7492 C.ar    1  UNL1        0.0215
     16 C           5.4230    0.3598   37.2174 C.ar    1  UNL1        0.0312
     17 C           4.1980    1.0559   37.7319 C.ar    1  UNL1        0.1402
     18 F           3.8906    1.0458   39.2000 F       1  UNL1       -0.2042
     19 C           3.2804    1.7620   36.7782 C.ar    1  UNL1        0.0312
     20 C           3.5879    1.7721   35.3101 C.ar    1  UNL1        0.0215
     21 S           7.5044   -5.4332   28.6442 S.O2    1  UNL1        0.0664
     22 O           6.1437   -5.3570   28.0177 O.2     1  UNL1       -0.1527
     23 O           8.8651   -5.5095   29.2708 O.2     1  UNL1       -0.1527
     24 C           8.7297   -7.5546   23.9667 C.3     1  UNL1        0.1538
     25 N           8.4989   -7.3831   25.4389 N.ar    1  UNL1       -0.2459
     26 C           8.0266   -6.1316   26.1174 C.ar    1  UNL1        0.1166
     27 C           7.9357   -6.4081   27.5889 C.ar    1  UNL1        0.1616
     28 C           8.3518   -7.8305   27.8199 C.ar    1  UNL1        0.1415
     29 N           8.6999   -8.4332   26.4911 N.ar    1  UNL1       -0.1661
     30 C           6.6077   -1.5822   28.9845 C.2     1  UNL1        0.1948
     31 O           7.9774   -1.6049   28.3733 O.2     1  UNL1       -0.2894
     32 C           5.4367   -1.0963   28.1829 C.ar    1  UNL1        0.1162
     33 C           4.0994   -0.9206   28.8394 C.ar    1  UNL1        0.0259
     34 C           2.9284   -0.4347   28.0377 C.ar    1  UNL1        0.0745
     35 C           3.0947   -0.1244   26.5796 C.ar    1  UNL1        0.0245
     36 C           4.4319   -0.3002   25.9231 C.ar    1  UNL1        0.0989
     37 N           5.6029   -0.7861   26.7248 N.ar    1  UNL1       -0.2410
     38 C           1.5912   -0.2589   28.6942 C.3     1  UNL1        0.4187
     39 F           0.2540   -0.0832   29.3507 F       1  UNL1       -0.1659
     40 F           1.0818    0.4408   27.4692 F       1  UNL1       -0.1659
     41 F           2.1007   -0.9587   29.9192 F       1  UNL1       -0.1659
@<TRIPOS>BOND
     1    24    25    1
     2    25    26   ar
     3    26    27   ar
     4    27    21    1
     5    21    22    2
     6    21    23    2
     7    21     1    1
     8     1     2    1
     9     2     3    1
    10     3     4    1
    11     4     5    2
    12     5     6    1
    13     6     7   ar
    14     7     8   ar
    15     8     9   ar
    16     9    10   ar
    17    10    14    1
    18    14    15   ar
    19    15    16   ar
    20    16    17   ar
    21    17    18    1
    22    17    19   ar
    23    19    20   ar
    24     7    11    1
    25    11    12    1
    26    12    30    1
    27    30    31    2
    28    30    32    1
    29    32    33   ar
    30    33    34   ar
    31    34    38    1
    32    38    39    1
    33    38    40    1
    34    38    41    1
    35    34    35   ar
    36    35    36   ar
    37    36    37   ar
    38    12    13    1
    39    27    28   ar
    40    28    29   ar
    41    29    25   ar
    42    13     1    1
    43    12     4    1
    44    37    32   ar
    45    10     6   ar
    46    20    14   ar
@<TRIPOS>MOLECULE
*****
 41 46 0 0 0
SMALL
GASTEIGER

@<TRIPOS>ATOM
      1 N           3.4791   -1.3201   21.2933 N.3     1  UNL1       -0.1543
      2 C           2.4539   -1.6810   20.2596 C.3     1  UNL1        0.1002
      3 C           1.2614   -0.7967   20.0453 C.3     1  UNL1        0.0417
      4 C           1.0941    0.4485   20.8647 C.2     1  UNL1       -0.0333
      5 C          -0.0984    1.3328   20.6503 C.2     1  UNL1        0.0109
      6 C          -0.2657    2.5781   21.4697 C.ar    1  UNL1        0.0797
      7 C           0.7597    2.9390   22.5034 C.ar    1  UNL1        0.0171
      8 C           0.3298    4.2199   23.1550 C.ar    1  UNL1        0.1177
      9 N          -0.9611    4.6506   22.5241 N.ar    1  UNL1       -0.1639
     10 N          -1.3291    3.6359   21.4825 N.ar    1  UNL1       -0.2300
     11 C           1.9521    2.0547   22.7177 C.3     1  UNL1        0.0420
     12 C           2.1194    0.8095   21.8984 C.3     1  UNL1        0.0927
     13 C           3.3118   -0.0748   22.1127 C.3     1  UNL1        0.1071
     14 C          -2.5467    3.6725   20.6073 C.ar    1  UNL1        0.0829
     15 C          -3.8955    3.3614   21.1853 C.ar    1  UNL1        0.0215
     16 C          -5.1131    3.3981   20.3100 C.ar    1  UNL1        0.0312
     17 C          -4.9820    3.7458   18.8568 C.ar    1  UNL1        0.1402
     18 F          -6.1997    3.7824   17.9816 F       1  UNL1       -0.2042
     19 C          -3.6332    4.0568   18.2788 C.ar    1  UNL1        0.0312
     20 C          -2.4156    4.0202   19.1540 C.ar    1  UNL1        0.0215
     21 S           4.6716   -2.2044   21.5077 S.O2    1  UNL1        0.0664
     22 O           5.1186   -1.9428   20.1000 O.2     1  UNL1       -0.1527
     23 O           4.2246   -2.4660   22.9154 O.2     1  UNL1       -0.1527
     24 C           9.2604   -4.7119   20.7755 C.3     1  UNL1        0.1538
     25 N           7.9734   -4.2412   21.3854 N.ar    1  UNL1       -0.2459
     26 C           7.0087   -3.2716   20.7698 C.ar    1  UNL1        0.1166
     27 C           5.8641   -3.0887   21.7220 C.ar    1  UNL1        0.1616
     28 C           6.1215   -3.9452   22.9261 C.ar    1  UNL1        0.1415
     29 N           7.4251   -4.6576   22.7182 N.ar    1  UNL1       -0.1661
     30 C           3.1446    1.1704   22.9321 C.2     1  UNL1        0.1948
     31 O           4.4595    1.7571   22.5114 O.2     1  UNL1       -0.2894
     32 C           2.8550    0.9448   24.3864 C.ar    1  UNL1        0.1162
     33 C           1.4913    1.2444   24.9349 C.ar    1  UNL1        0.0259
     34 C           1.2017    1.0188   26.3892 C.ar    1  UNL1        0.0745
     35 C           2.2757    0.4935   27.2952 C.ar    1  UNL1        0.0245
     36 C           3.6393    0.1940   26.7467 C.ar    1  UNL1        0.0989
     37 N           3.9289    0.4196   25.2924 N.ar    1  UNL1       -0.2410
     38 C          -0.1619    1.3184   26.9377 C.3     1  UNL1        0.4187
     39 F          -1.5256    1.6180   27.4861 F       1  UNL1       -0.1659
     40 F           0.3644    1.1593   28.3332 F       1  UNL1       -0.1659
     41 F          -0.6883    1.4774   25.5422 F       1  UNL1       -0.1659
@<TRIPOS>BOND
     1    24    25    1
     2    25    26   ar
     3    26    27   ar
     4    27    21    1
     5    21    22    2
     6    21    23    2
     7    21     1    1
     8     1     2    1
     9     2     3    1
    10     3     4    1
    11     4     5    2
    12     5     6    1
    13     6     7   ar
    14     7     8   ar
    15     8     9   ar
    16     9    10   ar
    17    10    14    1
    18    14    15   ar
    19    15    16   ar
    20    16    17   ar
    21    17    18    1
    22    17    19   ar
    23    19    20   ar
    24     7    11    1
    25    11    12    1
    26    12    30    1
    27    30    31    2
    28    30    32    1
    29    32    33   ar
    30    33    34   ar
    31    34    38    1
    32    38    39    1
    33    38    40    1
    34    38    41    1
    35    34    35   ar
    36    35    36   ar
    37    36    37   ar
    38    12    13    1
    39    27    28   ar
    40    28    29   ar
    41    29    25   ar
    42    13     1    1
    43    12     4    1
    44    37    32   ar
    45    10     6   ar
    46    20    14   ar
@<TRIPOS>MOLECULE
*****
 41 46 0 0 0
SMALL
GASTEIGER

@<TRIPOS>ATOM
      1 N           4.6154   -0.5378   33.1472 N.3     1  UNL1       -0.1543
      2 C           4.8531   -1.9558   33.5747 C.3     1  UNL1        0.1002
      3 C           5.4281   -2.9451   32.6049 C.3     1  UNL1        0.0417
      4 C           5.7652   -2.5165   31.2075 C.2     1  UNL1       -0.0333
      5 C           6.3402   -3.5059   30.2377 C.2     1  UNL1        0.0109
      6 C           6.6773   -3.0773   28.8403 C.ar    1  UNL1        0.0797
      7 C           6.4395   -1.6593   28.4128 C.ar    1  UNL1        0.0171
      8 C           6.8669   -1.5291   26.9809 C.ar    1  UNL1        0.1177
      9 N           7.3688   -2.8665   26.5234 N.ar    1  UNL1       -0.1639
     10 N           7.2516   -3.8234   27.6726 N.ar    1  UNL1       -0.2300
     11 C           5.8646   -0.6699   29.3826 C.3     1  UNL1        0.0420
     12 C           5.5275   -1.0985   30.7800 C.3     1  UNL1        0.0927
     13 C           4.9526   -0.1092   31.7498 C.3     1  UNL1        0.1071
     14 C           7.6404   -5.2720   27.6569 C.ar    1  UNL1        0.0829
     15 C           7.0460   -6.1971   26.6367 C.ar    1  UNL1        0.0215
     16 C           7.4350   -7.6458   26.6211 C.ar    1  UNL1        0.0312
     17 C           8.4182   -8.1693   27.6256 C.ar    1  UNL1        0.1402
     18 F           8.8071   -9.6180   27.6099 F       1  UNL1       -0.2042
     19 C           9.0126   -7.2442   28.6458 C.ar    1  UNL1        0.0312
     20 C           8.6237   -5.7956   28.6614 C.ar    1  UNL1        0.0215
     21 S           4.0405    0.4516   34.1170 S.O2    1  UNL1        0.0664
     22 O           3.0975    0.9414   33.0583 O.2     1  UNL1       -0.1527
     23 O           4.9834   -0.0381   35.1757 O.2     1  UNL1       -0.1527
     24 C           3.0639    3.1574   38.5449 C.3     1  UNL1        0.1538
     25 N           3.0166    2.6848   37.1221 N.ar    1  UNL1       -0.2459
     26 C           3.8328    1.5714   36.5353 C.ar    1  UNL1        0.1166
     27 C           3.4655    1.4410   35.0868 C.ar    1  UNL1        0.1616
     28 C           2.4223    2.4738   34.7784 C.ar    1  UNL1        0.1415
     29 N           2.1449    3.2424   36.0362 N.ar    1  UNL1       -0.1661
     30 C           5.2897    0.3194   30.3525 C.2     1  UNL1        0.1948
     31 O           6.0500    1.4366   31.0036 O.2     1  UNL1       -0.2894
     32 C           4.2917    0.6202   29.2738 C.ar    1  UNL1        0.1162
     33 C           2.8617    0.1973   29.4359 C.ar    1  UNL1        0.0259
     34 C           1.8637    0.4981   28.3573 C.ar    1  UNL1        0.0745
     35 C           2.2958    1.2219   27.1164 C.ar    1  UNL1        0.0245
     36 C           3.7257    1.6448   26.9543 C.ar    1  UNL1        0.0989
     37 N           4.7237    1.3440   28.0330 N.ar    1  UNL1       -0.2410
     38 C           0.4338    0.0752   28.5193 C.3     1  UNL1        0.4187
     39 F          -0.9963   -0.3477   28.6814 F       1  UNL1       -0.1659
     40 F           0.7659   -0.5389   29.8469 F       1  UNL1       -0.1659
     41 F           0.1017    0.6893   27.1918 F       1  UNL1       -0.1659
@<TRIPOS>BOND
     1    24    25    1
     2    25    26   ar
     3    26    27   ar
     4    27    21    1
     5    21    22    2
     6    21    23    2
     7    21     1    1
     8     1     2    1
     9     2     3    1
    10     3     4    1
    11     4     5    2
    12     5     6    1
    13     6     7   ar
    14     7     8   ar
    15     8     9   ar
    16     9    10   ar
    17    10    14    1
    18    14    15   ar
    19    15    16   ar
    20    16    17   ar
    21    17    18    1
    22    17    19   ar
    23    19    20   ar
    24     7    11    1
    25    11    12    1
    26    12    30    1
    27    30    31    2
    28    30    32    1
    29    32    33   ar
    30    33    34   ar
    31    34    38    1
    32    38    39    1
    33    38    40    1
    34    38    41    1
    35    34    35   ar
    36    35    36   ar
    37    36    37   ar
    38    12    13    1
    39    27    28   ar
    40    28    29   ar
    41    29    25   ar
    42    13     1    1
    43    12     4    1
    44    37    32   ar
    45    10     6   ar
    46    20    14   ar
