@<TRIPOS>MOLECULE
*****
 36 39 0 0 0
SMALL
GASTEIGER

@<TRIPOS>ATOM
      1 N           6.8530   -3.7310   22.3170 N.ar    1  UNL1       -0.2459
      2 C           6.2985   -3.3518   23.6581 C.ar    1  UNL1        0.1116
      3 C           6.7272   -4.3936   24.6485 C.ar    1  UNL1        0.0907
      4 C           7.5468   -5.4167   23.9194 C.ar    1  UNL1        0.1363
      5 N           7.6245   -5.0072   22.4785 N.ar    1  UNL1       -0.1661
      6 N           6.3948   -4.4094   26.1111 N.am    1  UNL1       -0.2775
      7 C           7.4692   -4.1578   27.1271 C.2     1  UNL1        0.2572
      8 O           8.8760   -3.8903   26.6806 O.2     1  UNL1       -0.2692
      9 H           5.4715   -4.5850   26.4042 H       1  UNL1        0.1553
     10 C           7.1367   -4.1737   28.5898 C.ar    1  UNL1        0.1036
     11 C           7.0753   -5.3890   29.4668 C.ar    1  UNL1        0.1105
     12 N           6.7079   -4.9434   30.8512 N.ar    1  UNL1       -0.2351
     13 C           6.5424   -3.4527   30.8298 C.ar    1  UNL1        0.1285
     14 S           6.8074   -2.9769   29.4320 S.2     1  UNL1       -0.0604
     15 C           6.1761   -2.5893   32.0004 C.ar    1  UNL1        0.1050
     16 C           7.1727   -1.6145   32.5543 C.ar    1  UNL1        0.0212
     17 C           6.8064   -0.7511   33.7249 C.ar    1  UNL1        0.0032
     18 C           5.4436   -0.8625   34.3417 C.ar    1  UNL1        0.0207
     19 C           4.4471   -1.8372   33.7878 C.ar    1  UNL1        0.0989
     20 N           4.8134   -2.7006   32.6172 N.ar    1  UNL1       -0.2418
     21 C           7.7669   -2.9384   20.0178 C.3     1  UNL1        0.0312
     22 C           6.6685   -2.9680   21.0388 C.3     1  UNL1        0.1274
     23 C           5.3855   -2.2345   20.7817 C.ar    1  UNL1        0.0038
     24 C           5.1863   -0.8550   21.3358 C.ar    1  UNL1       -0.0025
     25 C           3.9033   -0.1216   21.0786 C.ar    1  UNL1        0.0036
     26 C           2.8196   -0.7678   20.2674 C.ar    1  UNL1        0.0714
     27 C           3.0189   -2.1474   19.7134 C.ar    1  UNL1        0.0074
     28 C           4.3018   -2.8807   19.9705 C.ar    1  UNL1        0.0692
     29 C           1.5366   -0.0344   20.0103 C.3     1  UNL1        0.4186
     30 F           0.2536    0.6990   19.7532 F       1  UNL1       -0.1659
     31 F           2.2960    1.2541   19.8960 F       1  UNL1       -0.1659
     32 F           0.7772   -1.3228   20.1247 F       1  UNL1       -0.1659
     33 C           4.5012   -4.2604   19.4164 C.3     1  UNL1        0.4183
     34 F           4.7005   -5.6400   18.8624 F       1  UNL1       -0.1659
     35 F           3.9146   -4.8470   20.6661 F       1  UNL1       -0.1659
     36 F           5.0877   -3.6738   18.1667 F       1  UNL1       -0.1659
@<TRIPOS>BOND
     1    21    22    1
     2    22    23    1
     3    23    24   ar
     4    24    25   ar
     5    25    26   ar
     6    26    29    1
     7    29    30    1
     8    29    31    1
     9    29    32    1
    10    26    27   ar
    11    27    28   ar
    12    28    33    1
    13    33    34    1
    14    33    35    1
    15    33    36    1
    16    22     1    1
    17     1     2   ar
    18     2     3   ar
    19     3     6    1
    20     6     7   am
    21     7     8    2
    22     7    10    1
    23    10    11   ar
    24    11    12   ar
    25    12    13   ar
    26    13    15    1
    27    15    16   ar
    28    16    17   ar
    29    17    18   ar
    30    18    19   ar
    31    19    20   ar
    32    13    14   ar
    33     3     4   ar
    34     4     5   ar
    35    28    23   ar
    36     5     1   ar
    37    14    10   ar
    38    20    15   ar
    39     6     9    1
@<TRIPOS>MOLECULE
*****
 36 39 0 0 0
SMALL
GASTEIGER

@<TRIPOS>ATOM
      1 N           2.5701    0.9095   22.8487 N.ar    1  UNL1       -0.2459
      2 C           2.9554    0.4995   24.2392 C.ar    1  UNL1        0.1116
      3 C           1.7983    0.7947   25.1470 C.ar    1  UNL1        0.0907
      4 C           0.6979    1.3872   24.3175 C.ar    1  UNL1        0.1363
      5 N           1.1749    1.4581   22.8972 N.ar    1  UNL1       -0.1661
      6 N           1.7501    0.5418   26.6247 N.am    1  UNL1       -0.2775
      7 C           1.9078    1.6822   27.5863 C.2     1  UNL1        0.2572
      8 O           2.1137    3.0755   27.0701 O.2     1  UNL1       -0.2692
      9 H           1.6150   -0.3726   26.9635 H       1  UNL1        0.1553
     10 C           1.8596    1.4293   29.0640 C.ar    1  UNL1        0.1036
     11 C           0.7141    1.7522   29.9769 C.ar    1  UNL1        0.1105
     12 N           1.0951    1.3316   31.3654 N.ar    1  UNL1       -0.2351
     13 C           2.4761    0.7487   31.3107 C.ar    1  UNL1        0.1285
     14 S           2.9487    0.8092   29.8883 S.2     1  UNL1       -0.0604
     15 C           3.2489    0.2016   32.4740 C.ar    1  UNL1        0.1050
     16 C           3.6221    1.1001   33.6158 C.ar    1  UNL1        0.0212
     17 C           4.3949    0.5529   34.7791 C.ar    1  UNL1        0.0032
     18 C           4.7946   -0.8928   34.8007 C.ar    1  UNL1        0.0207
     19 C           4.4215   -1.7912   33.6589 C.ar    1  UNL1        0.0989
     20 N           3.6486   -1.2440   32.4956 N.ar    1  UNL1       -0.2418
     21 C           4.0186    2.0217   21.0008 C.3     1  UNL1        0.0312
     22 C           3.4292    0.7916   21.6248 C.3     1  UNL1        0.1274
     23 C           3.6989   -0.5566   21.0248 C.ar    1  UNL1        0.0038
     24 C           4.8528   -1.3791   21.5166 C.ar    1  UNL1       -0.0025
     25 C           5.1225   -2.7271   20.9166 C.ar    1  UNL1        0.0036
     26 C           4.2382   -3.2527   19.8249 C.ar    1  UNL1        0.0714
     27 C           3.0842   -2.4302   19.3331 C.ar    1  UNL1        0.0074
     28 C           2.8146   -1.0821   19.9331 C.ar    1  UNL1        0.0692
     29 C           4.5079   -4.6008   19.2249 C.3     1  UNL1        0.4186
     30 F           4.7776   -5.9489   18.6250 F       1  UNL1       -0.1659
     31 F           3.0962   -4.6591   18.7213 F       1  UNL1       -0.1659
     32 F           5.9195   -4.5425   19.7285 F       1  UNL1       -0.1659
     33 C           1.6606   -0.2595   19.4414 C.3     1  UNL1        0.4183
     34 F           0.5066    0.5630   18.9497 F       1  UNL1       -0.1659
     35 F           0.7746   -0.8822   20.4792 F       1  UNL1       -0.1659
     36 F           2.5466    0.3632   18.4035 F       1  UNL1       -0.1659
@<TRIPOS>BOND
     1    21    22    1
     2    22    23    1
     3    23    24   ar
     4    24    25   ar
     5    25    26   ar
     6    26    29    1
     7    29    30    1
     8    29    31    1
     9    29    32    1
    10    26    27   ar
    11    27    28   ar
    12    28    33    1
    13    33    34    1
    14    33    35    1
    15    33    36    1
    16    22     1    1
    17     1     2   ar
    18     2     3   ar
    19     3     6    1
    20     6     7   am
    21     7     8    2
    22     7    10    1
    23    10    11   ar
    24    11    12   ar
    25    12    13   ar
    26    13    15    1
    27    15    16   ar
    28    16    17   ar
    29    17    18   ar
    30    18    19   ar
    31    19    20   ar
    32    13    14   ar
    33     3     4   ar
    34     4     5   ar
    35    28    23   ar
    36     5     1   ar
    37    14    10   ar
    38    20    15   ar
    39     6     9    1
@<TRIPOS>MOLECULE
*****
 36 39 0 0 0
SMALL
GASTEIGER

@<TRIPOS>ATOM
      1 N           4.7275    0.9266   33.4527 N.ar    1  UNL1       -0.2459
      2 C           5.7918    0.1068   32.7855 C.ar    1  UNL1        0.1116
      3 C           5.1256   -0.7960   31.7899 C.ar    1  UNL1        0.0907
      4 C           3.6496   -0.5341   31.8417 C.ar    1  UNL1        0.1363
      5 N           3.4035    0.5305   32.8694 N.ar    1  UNL1       -0.1661
      6 N           5.8146   -1.7867   30.8989 N.am    1  UNL1       -0.2775
      7 C           6.1271   -3.1627   31.4079 C.2     1  UNL1        0.2572
      8 O           5.7506   -3.5479   32.8079 O.2     1  UNL1       -0.2692
      9 H           6.0617   -1.5339   29.9801 H       1  UNL1        0.1553
     10 C           6.8160   -4.1534   30.5169 C.ar    1  UNL1        0.1036
     11 C           7.7622   -5.2294   30.9607 C.ar    1  UNL1        0.1105
     12 N           8.2107   -5.9830   29.7437 N.ar    1  UNL1       -0.2351
     13 C           7.5417   -5.3728   28.5479 C.ar    1  UNL1        0.1285
     14 S           6.6797   -4.2419   29.0257 S.2     1  UNL1       -0.0604
     15 C           7.7058   -5.8156   27.1241 C.ar    1  UNL1        0.1050
     16 C           7.7765   -7.2778   26.7969 C.ar    1  UNL1        0.0212
     17 C           7.9406   -7.7206   25.3731 C.ar    1  UNL1        0.0032
     18 C           8.0340   -6.7011   24.2767 C.ar    1  UNL1        0.0207
     19 C           7.9633   -5.2390   24.6040 C.ar    1  UNL1        0.0989
     20 N           7.7992   -4.7962   26.0277 N.ar    1  UNL1       -0.2418
     21 C           6.0436    2.9740   34.3614 C.3     1  UNL1        0.0312
     22 C           4.9484    1.9609   34.5163 C.3     1  UNL1        0.1274
     23 C           4.0739    1.9821   35.7350 C.ar    1  UNL1        0.0038
     24 C           2.9033    2.9175   35.8019 C.ar    1  UNL1       -0.0025
     25 C           2.0289    2.9387   37.0205 C.ar    1  UNL1        0.0036
     26 C           2.3252    2.0244   38.1721 C.ar    1  UNL1        0.0714
     27 C           3.4959    1.0890   38.1052 C.ar    1  UNL1        0.0074
     28 C           4.3702    1.0679   36.8866 C.ar    1  UNL1        0.0692
     29 C           1.4508    2.0456   39.3908 C.3     1  UNL1        0.4186
     30 F           0.5764    2.0668   40.6093 F       1  UNL1       -0.1659
     31 F           0.7602    0.8012   38.9170 F       1  UNL1       -0.1659
     32 F           2.1413    3.2900   39.8646 F       1  UNL1       -0.1659
     33 C           5.5409    0.1324   36.8197 C.3     1  UNL1        0.4183
     34 F           6.7116   -0.8030   36.7527 F       1  UNL1       -0.1659
     35 F           4.6890   -0.8836   36.1184 F       1  UNL1       -0.1659
     36 F           6.3929    1.1484   37.5209 F       1  UNL1       -0.1659
@<TRIPOS>BOND
     1    21    22    1
     2    22    23    1
     3    23    24   ar
     4    24    25   ar
     5    25    26   ar
     6    26    29    1
     7    29    30    1
     8    29    31    1
     9    29    32    1
    10    26    27   ar
    11    27    28   ar
    12    28    33    1
    13    33    34    1
    14    33    35    1
    15    33    36    1
    16    22     1    1
    17     1     2   ar
    18     2     3   ar
    19     3     6    1
    20     6     7   am
    21     7     8    2
    22     7    10    1
    23    10    11   ar
    24    11    12   ar
    25    12    13   ar
    26    13    15    1
    27    15    16   ar
    28    16    17   ar
    29    17    18   ar
    30    18    19   ar
    31    19    20   ar
    32    13    14   ar
    33     3     4   ar
    34     4     5   ar
    35    28    23   ar
    36     5     1   ar
    37    14    10   ar
    38    20    15   ar
    39     6     9    1
@<TRIPOS>MOLECULE
*****
 36 39 0 0 0
SMALL
GASTEIGER

@<TRIPOS>ATOM
      1 N           5.0310   -3.7009   21.2653 N.ar    1  UNL1       -0.2459
      2 C           4.7307   -3.5310   22.7250 C.ar    1  UNL1        0.1116
      3 C           5.9800   -3.8423   23.4946 C.ar    1  UNL1        0.0907
      4 C           7.0524   -4.2047   22.5105 C.ar    1  UNL1        0.1363
      5 N           6.4659   -4.1173   21.1327 N.ar    1  UNL1       -0.1661
      6 N           6.1303   -3.7990   24.9864 N.am    1  UNL1       -0.2775
      7 C           6.3750   -2.4905   25.6778 C.2     1  UNL1        0.2572
      8 O           6.4693   -1.2254   24.8774 O.2     1  UNL1       -0.2692
      9 H           6.0685   -4.6293   25.5118 H       1  UNL1        0.1553
     10 C           6.5254   -2.4471   27.1696 C.ar    1  UNL1        0.1036
     11 C           7.7232   -2.9036   27.9487 C.ar    1  UNL1        0.1105
     12 N           7.4424   -2.6782   29.4048 N.ar    1  UNL1       -0.2351
     13 C           6.0711   -2.0824   29.5257 C.ar    1  UNL1        0.1285
     14 S           5.5043   -1.9395   28.1442 S.2     1  UNL1       -0.0604
     15 C           5.3868   -1.6971   30.8037 C.ar    1  UNL1        0.1050
     16 C           5.6633   -2.4635   32.0632 C.ar    1  UNL1        0.0212
     17 C           4.9789   -2.0781   33.3411 C.ar    1  UNL1        0.0032
     18 C           4.0180   -0.9264   33.3596 C.ar    1  UNL1        0.0207
     19 C           3.7416   -0.1601   32.1002 C.ar    1  UNL1        0.0989
     20 N           4.4259   -0.5454   30.8222 N.ar    1  UNL1       -0.2418
     21 C           3.5027   -4.6717   19.4020 C.3     1  UNL1        0.0312
     22 C           4.0659   -3.4912   20.1363 C.3     1  UNL1        0.1274
     23 C           3.6639   -2.1010   19.7416 C.ar    1  UNL1        0.0038
     24 C           2.3752   -1.5214   20.2449 C.ar    1  UNL1       -0.0025
     25 C           1.9734   -0.1312   19.8502 C.ar    1  UNL1        0.0036
     26 C           2.8602    0.6794   18.9522 C.ar    1  UNL1        0.0714
     27 C           4.1488    0.0998   18.4489 C.ar    1  UNL1        0.0074
     28 C           4.5507   -1.2903   18.8436 C.ar    1  UNL1        0.0692
     29 C           2.4582    2.0697   18.5575 C.3     1  UNL1        0.4186
     30 F           2.0563    3.4598   18.1628 F       1  UNL1       -0.1659
     31 F           3.7710    2.5922   19.0610 F       1  UNL1       -0.1659
     32 F           1.1455    1.5471   18.0540 F       1  UNL1       -0.1659
     33 C           5.8395   -1.8700   18.3402 C.3     1  UNL1        0.4183
     34 F           7.1281   -2.4496   17.8369 F       1  UNL1       -0.1659
     35 F           5.1134   -2.4711   17.1735 F       1  UNL1       -0.1659
     36 F           6.5656   -1.2688   19.5070 F       1  UNL1       -0.1659
@<TRIPOS>BOND
     1    21    22    1
     2    22    23    1
     3    23    24   ar
     4    24    25   ar
     5    25    26   ar
     6    26    29    1
     7    29    30    1
     8    29    31    1
     9    29    32    1
    10    26    27   ar
    11    27    28   ar
    12    28    33    1
    13    33    34    1
    14    33    35    1
    15    33    36    1
    16    22     1    1
    17     1     2   ar
    18     2     3   ar
    19     3     6    1
    20     6     7   am
    21     7     8    2
    22     7    10    1
    23    10    11   ar
    24    11    12   ar
    25    12    13   ar
    26    13    15    1
    27    15    16   ar
    28    16    17   ar
    29    17    18   ar
    30    18    19   ar
    31    19    20   ar
    32    13    14   ar
    33     3     4   ar
    34     4     5   ar
    35    28    23   ar
    36     5     1   ar
    37    14    10   ar
    38    20    15   ar
    39     6     9    1
@<TRIPOS>MOLECULE
*****
 36 39 0 0 0
SMALL
GASTEIGER

@<TRIPOS>ATOM
      1 N           4.7154   -2.3784   20.6328 N.ar    1  UNL1       -0.2459
      2 C           4.6515   -2.7951   22.0723 C.ar    1  UNL1        0.1116
      3 C           6.0201   -2.6304   22.6638 C.ar    1  UNL1        0.0907
      4 C           6.9298   -2.1118   21.5898 C.ar    1  UNL1        0.1363
      5 N           6.1235   -1.9561   20.3346 N.ar    1  UNL1       -0.1661
      6 N           6.4104   -2.9313   24.0805 N.am    1  UNL1       -0.2775
      7 C           6.9656   -4.2789   24.4353 C.2     1  UNL1        0.2572
      8 O           7.1305   -5.3254   23.3734 O.2     1  UNL1       -0.2692
      9 H           6.3022   -2.2445   24.7774 H       1  UNL1        0.1553
     10 C           7.3559   -4.5798   25.8520 C.ar    1  UNL1        0.1036
     11 C           8.0470   -5.8219   26.3313 C.ar    1  UNL1        0.1105
     12 N           8.2418   -5.7012   27.8137 N.ar    1  UNL1       -0.2351
     13 C           7.6712   -4.3846   28.2506 C.ar    1  UNL1        0.1285
     14 S           7.1236   -3.6915   27.0382 S.2     1  UNL1       -0.0604
     15 C           7.6515   -3.8542   29.6536 C.ar    1  UNL1        0.1050
     16 C           8.5939   -2.7581   30.0543 C.ar    1  UNL1        0.0212
     17 C           8.5742   -2.2277   31.4572 C.ar    1  UNL1        0.0032
     18 C           7.6122   -2.7934   32.4595 C.ar    1  UNL1        0.0207
     19 C           6.6698   -3.8894   32.0588 C.ar    1  UNL1        0.0989
     20 N           6.6895   -4.4198   30.6558 N.ar    1  UNL1       -0.2418
     21 C           3.2909   -3.6061   18.8402 C.3     1  UNL1        0.0312
     22 C           3.5719   -2.3832   19.6620 C.3     1  UNL1        0.1274
     23 C           2.7095   -1.1649   19.5129 C.ar    1  UNL1        0.0038
     24 C           1.4842   -1.0048   20.3631 C.ar    1  UNL1       -0.0025
     25 C           0.6219    0.2134   20.2140 C.ar    1  UNL1        0.0036
     26 C           0.9849    1.2716   19.2147 C.ar    1  UNL1        0.0714
     27 C           2.2103    1.1115   18.3646 C.ar    1  UNL1        0.0074
     28 C           3.0726   -0.1067   18.5136 C.ar    1  UNL1        0.0692
     29 C           0.1225    2.4899   19.0657 C.3     1  UNL1        0.4186
     30 F          -0.7398    3.7081   18.9166 F       1  UNL1       -0.1659
     31 F          -0.7400    2.0179   20.1984 F       1  UNL1       -0.1659
     32 F           0.9851    2.9618   17.9329 F       1  UNL1       -0.1659
     33 C           4.2980   -0.2669   17.6634 C.3     1  UNL1        0.4183
     34 F           5.5233   -0.4270   16.8132 F       1  UNL1       -0.1659
     35 F           3.5009   -1.0488   16.6619 F       1  UNL1       -0.1659
     36 F           5.0951    0.5151   18.6650 F       1  UNL1       -0.1659
@<TRIPOS>BOND
     1    21    22    1
     2    22    23    1
     3    23    24   ar
     4    24    25   ar
     5    25    26   ar
     6    26    29    1
     7    29    30    1
     8    29    31    1
     9    29    32    1
    10    26    27   ar
    11    27    28   ar
    12    28    33    1
    13    33    34    1
    14    33    35    1
    15    33    36    1
    16    22     1    1
    17     1     2   ar
    18     2     3   ar
    19     3     6    1
    20     6     7   am
    21     7     8    2
    22     7    10    1
    23    10    11   ar
    24    11    12   ar
    25    12    13   ar
    26    13    15    1
    27    15    16   ar
    28    16    17   ar
    29    17    18   ar
    30    18    19   ar
    31    19    20   ar
    32    13    14   ar
    33     3     4   ar
    34     4     5   ar
    35    28    23   ar
    36     5     1   ar
    37    14    10   ar
    38    20    15   ar
    39     6     9    1
@<TRIPOS>MOLECULE
*****
 36 39 0 0 0
SMALL
GASTEIGER

@<TRIPOS>ATOM
      1 N           1.9064    1.9495   19.8596 N.ar    1  UNL1       -0.2459
      2 C           0.7443    1.8517   20.8031 C.ar    1  UNL1        0.1116
      3 C          -0.4300    2.5319   20.1642 C.ar    1  UNL1        0.0907
      4 C           0.0062    3.0502   18.8259 C.ar    1  UNL1        0.1363
      5 N           1.4501    2.6902   18.6376 N.ar    1  UNL1       -0.1661
      6 N          -1.8001    2.6697   20.7592 N.am    1  UNL1       -0.2775
      7 C          -2.0554    3.6943   21.8245 C.2     1  UNL1        0.2572
      8 O          -0.9408    4.5812   22.2948 O.2     1  UNL1       -0.2692
      9 H          -2.5316    2.0876   20.4506 H       1  UNL1        0.1553
     10 C          -3.4254    3.8321   22.4196 C.ar    1  UNL1        0.1036
     11 C          -4.6726    3.1602   21.9264 C.ar    1  UNL1        0.1105
     12 N          -5.8067    3.5789   22.8143 N.ar    1  UNL1       -0.2351
     13 C          -5.2606    4.5095   23.8562 C.ar    1  UNL1        0.1285
     14 S          -3.7888    4.6661   23.6123 S.2     1  UNL1       -0.0604
     15 C          -6.0480    5.1681   24.9500 C.ar    1  UNL1        0.1050
     16 C          -5.4202    5.3961   26.2932 C.ar    1  UNL1        0.0212
     17 C          -6.2075    6.0546   27.3870 C.ar    1  UNL1        0.0032
     18 C          -7.6226    6.4851   27.1377 C.ar    1  UNL1        0.0207
     19 C          -8.2504    6.2571   25.7946 C.ar    1  UNL1        0.0989
     20 N          -7.4630    5.5986   24.7008 N.ar    1  UNL1       -0.2418
     21 C           4.3612    2.2940   20.6373 C.3     1  UNL1        0.0312
     22 C           3.2829    1.4026   20.0965 C.3     1  UNL1        0.1274
     23 C           3.5810   -0.0358   19.7926 C.ar    1  UNL1        0.0038
     24 C           3.9451   -0.4476   18.3969 C.ar    1  UNL1       -0.0025
     25 C           4.2432   -1.8859   18.0931 C.ar    1  UNL1        0.0036
     26 C           4.1772   -2.9124   19.1848 C.ar    1  UNL1        0.0714
     27 C           3.8132   -2.5006   20.5805 C.ar    1  UNL1        0.0074
     28 C           3.5151   -1.0623   20.8843 C.ar    1  UNL1        0.0692
     29 C           4.4754   -4.3507   18.8809 C.3     1  UNL1        0.4186
     30 F           4.7735   -5.7890   18.5770 F       1  UNL1       -0.1659
     31 F           3.5027   -4.7763   19.9405 F       1  UNL1       -0.1659
     32 F           5.4480   -3.9252   17.8213 F       1  UNL1       -0.1659
     33 C           3.1510   -0.6504   22.2800 C.3     1  UNL1        0.4183
     34 F           2.7869   -0.2386   23.6756 F       1  UNL1       -0.1659
     35 F           1.6988   -0.8450   21.9586 F       1  UNL1       -0.1659
     36 F           4.6031   -0.4558   22.6015 F       1  UNL1       -0.1659
@<TRIPOS>BOND
     1    21    22    1
     2    22    23    1
     3    23    24   ar
     4    24    25   ar
     5    25    26   ar
     6    26    29    1
     7    29    30    1
     8    29    31    1
     9    29    32    1
    10    26    27   ar
    11    27    28   ar
    12    28    33    1
    13    33    34    1
    14    33    35    1
    15    33    36    1
    16    22     1    1
    17     1     2   ar
    18     2     3   ar
    19     3     6    1
    20     6     7   am
    21     7     8    2
    22     7    10    1
    23    10    11   ar
    24    11    12   ar
    25    12    13   ar
    26    13    15    1
    27    15    16   ar
    28    16    17   ar
    29    17    18   ar
    30    18    19   ar
    31    19    20   ar
    32    13    14   ar
    33     3     4   ar
    34     4     5   ar
    35    28    23   ar
    36     5     1   ar
    37    14    10   ar
    38    20    15   ar
    39     6     9    1
@<TRIPOS>MOLECULE
*****
 36 39 0 0 0
SMALL
GASTEIGER

@<TRIPOS>ATOM
      1 N           2.7844    0.7542   18.3110 N.ar    1  UNL1       -0.2459
      2 C           1.2968    0.8952   18.4421 C.ar    1  UNL1        0.1116
      3 C           0.9925    2.3318   18.7482 C.ar    1  UNL1        0.0907
      4 C           2.2921    3.0786   18.8063 C.ar    1  UNL1        0.1363
      5 N           3.3995    2.1036   18.5361 N.ar    1  UNL1       -0.1661
      6 N          -0.3718    2.9185   18.9593 N.am    1  UNL1       -0.2775
      7 C          -1.0558    2.7683   20.2857 C.2     1  UNL1        0.2572
      8 O          -0.3755    2.0314   21.4012 O.2     1  UNL1       -0.2692
      9 H          -0.8182    3.4021   18.2271 H       1  UNL1        0.1553
     10 C          -2.4200    3.3550   20.4967 C.ar    1  UNL1        0.1036
     11 C          -3.3864    3.7495   19.4195 C.ar    1  UNL1        0.1105
     12 N          -4.6211    4.2885   20.0791 N.ar    1  UNL1       -0.2351
     13 C          -4.4178    4.2271   21.5640 C.ar    1  UNL1        0.1285
     14 S          -3.0574    3.6501   21.8222 S.2     1  UNL1       -0.0604
     15 C          -5.4020    4.6657   22.6075 C.ar    1  UNL1        0.1050
     16 C          -6.8342    4.2284   22.5186 C.ar    1  UNL1        0.0212
     17 C          -7.8184    4.6670   23.5621 C.ar    1  UNL1        0.0032
     18 C          -7.3705    5.5428   24.6946 C.ar    1  UNL1        0.0207
     19 C          -5.9384    5.9800   24.7835 C.ar    1  UNL1        0.0989
     20 N          -4.9542    5.5414   23.7399 N.ar    1  UNL1       -0.2418
     21 C           3.6670   -0.9797   16.5892 C.3     1  UNL1        0.0312
     22 C           3.5265   -0.5137   18.0080 C.3     1  UNL1        0.1274
     23 C           4.1281   -1.3155   19.1239 C.ar    1  UNL1        0.0038
     24 C           3.2402   -2.0679   20.0702 C.ar    1  UNL1       -0.0025
     25 C           3.8419   -2.8697   21.1860 C.ar    1  UNL1        0.0036
     26 C           5.3314   -2.9191   21.3555 C.ar    1  UNL1        0.0714
     27 C           6.2194   -2.1668   20.4092 C.ar    1  UNL1        0.0074
     28 C           5.6177   -1.3650   19.2934 C.ar    1  UNL1        0.0692
     29 C           5.9331   -3.7210   22.4714 C.3     1  UNL1        0.4186
     30 F           6.5347   -4.5228   23.5872 F       1  UNL1       -0.1659
     31 F           4.6742   -3.5545   23.2698 F       1  UNL1       -0.1659
     32 F           7.1919   -3.8874   21.6730 F       1  UNL1       -0.1659
     33 C           6.5056   -0.6126   18.3470 C.3     1  UNL1        0.4183
     34 F           7.3935    0.1397   17.4007 F       1  UNL1       -0.1659
     35 F           6.6756   -1.8528   17.5206 F       1  UNL1       -0.1659
     36 F           6.3356    0.6276   19.1734 F       1  UNL1       -0.1659
@<TRIPOS>BOND
     1    21    22    1
     2    22    23    1
     3    23    24   ar
     4    24    25   ar
     5    25    26   ar
     6    26    29    1
     7    29    30    1
     8    29    31    1
     9    29    32    1
    10    26    27   ar
    11    27    28   ar
    12    28    33    1
    13    33    34    1
    14    33    35    1
    15    33    36    1
    16    22     1    1
    17     1     2   ar
    18     2     3   ar
    19     3     6    1
    20     6     7   am
    21     7     8    2
    22     7    10    1
    23    10    11   ar
    24    11    12   ar
    25    12    13   ar
    26    13    15    1
    27    15    16   ar
    28    16    17   ar
    29    17    18   ar
    30    18    19   ar
    31    19    20   ar
    32    13    14   ar
    33     3     4   ar
    34     4     5   ar
    35    28    23   ar
    36     5     1   ar
    37    14    10   ar
    38    20    15   ar
    39     6     9    1
@<TRIPOS>MOLECULE
*****
 36 39 0 0 0
SMALL
GASTEIGER

@<TRIPOS>ATOM
      1 N           0.5436    1.8026   20.9889 N.ar    1  UNL1       -0.2459
      2 C           1.9707    1.4130   21.2369 C.ar    1  UNL1        0.1116
      3 C           2.1252   -0.0350   20.8771 C.ar    1  UNL1        0.0907
      4 C           0.7935   -0.5404   20.4068 C.ar    1  UNL1        0.1363
      5 N          -0.1840    0.5954   20.4759 N.ar    1  UNL1       -0.1661
      6 N           3.3894   -0.8369   20.9712 N.am    1  UNL1       -0.2775
      7 C           3.8694   -1.3266   22.3052 C.2     1  UNL1        0.2572
      8 O           3.0852   -1.0144   23.5453 O.2     1  UNL1       -0.2692
      9 H           3.9040   -1.0418   20.1573 H       1  UNL1        0.1553
     10 C           5.1336   -2.1284   22.3993 C.ar    1  UNL1        0.1036
     11 C           6.4233   -1.8269   21.6953 C.ar    1  UNL1        0.1105
     12 N           7.4168   -2.8848   22.0748 N.ar    1  UNL1       -0.2351
     13 C           6.7411   -3.8400   23.0133 C.ar    1  UNL1        0.1285
     14 S           5.3299   -3.3726   23.2139 S.2     1  UNL1       -0.0604
     15 C           7.3666   -5.0502   23.6411 C.ar    1  UNL1        0.1050
     16 C           7.1922   -5.3089   25.1083 C.ar    1  UNL1        0.0212
     17 C           7.8177   -6.5191   25.7361 C.ar    1  UNL1        0.0032
     18 C           8.6177   -7.4707   24.8966 C.ar    1  UNL1        0.0207
     19 C           8.7921   -7.2120   23.4295 C.ar    1  UNL1        0.0989
     20 N           8.1666   -6.0018   22.8017 N.ar    1  UNL1       -0.2418
     21 C           0.8020    4.3864   21.0738 C.3     1  UNL1        0.0312
     22 C          -0.0514    3.1609   21.2144 C.3     1  UNL1        0.1274
     23 C          -1.5001    3.2938   21.5805 C.ar    1  UNL1        0.0038
     24 C          -2.5554    3.1726   20.5215 C.ar    1  UNL1       -0.0025
     25 C          -4.0039    3.3054   20.8876 C.ar    1  UNL1        0.0036
     26 C          -4.3971    3.5595   22.3127 C.ar    1  UNL1        0.0714
     27 C          -3.3418    3.6807   23.3717 C.ar    1  UNL1        0.0074
     28 C          -1.8932    3.5478   23.0056 C.ar    1  UNL1        0.0692
     29 C          -5.8457    3.6923   22.6788 C.3     1  UNL1        0.4186
     30 F          -7.2942    3.8252   23.0449 F       1  UNL1       -0.1659
     31 F          -6.1924    3.8951   21.2336 F       1  UNL1       -0.1659
     32 F          -5.4991    3.4895   24.1240 F       1  UNL1       -0.1659
     33 C          -0.8378    3.6690   24.0646 C.3     1  UNL1        0.4183
     34 F           0.2176    3.7902   25.1235 F       1  UNL1       -0.1659
     35 F          -0.8415    2.1792   24.2388 F       1  UNL1       -0.1659
     36 F          -0.8340    5.1588   23.8904 F       1  UNL1       -0.1659
@<TRIPOS>BOND
     1    21    22    1
     2    22    23    1
     3    23    24   ar
     4    24    25   ar
     5    25    26   ar
     6    26    29    1
     7    29    30    1
     8    29    31    1
     9    29    32    1
    10    26    27   ar
    11    27    28   ar
    12    28    33    1
    13    33    34    1
    14    33    35    1
    15    33    36    1
    16    22     1    1
    17     1     2   ar
    18     2     3   ar
    19     3     6    1
    20     6     7   am
    21     7     8    2
    22     7    10    1
    23    10    11   ar
    24    11    12   ar
    25    12    13   ar
    26    13    15    1
    27    15    16   ar
    28    16    17   ar
    29    17    18   ar
    30    18    19   ar
    31    19    20   ar
    32    13    14   ar
    33     3     4   ar
    34     4     5   ar
    35    28    23   ar
    36     5     1   ar
    37    14    10   ar
    38    20    15   ar
    39     6     9    1
@<TRIPOS>MOLECULE
*****
 36 39 0 0 0
SMALL
GASTEIGER

@<TRIPOS>ATOM
      1 N           4.4509   -0.2178   29.9664 N.ar    1  UNL1       -0.2459
      2 C           4.5765   -0.1901   28.4719 C.ar    1  UNL1        0.1116
      3 C           3.2208   -0.4564   27.8878 C.ar    1  UNL1        0.0907
      4 C           2.2574   -0.6487   29.0213 C.ar    1  UNL1        0.1363
      5 N           3.0176   -0.5013   30.3059 N.ar    1  UNL1       -0.1661
      6 N           2.8872   -0.5194   26.4267 N.am    1  UNL1       -0.2775
      7 C           2.5018    0.7296   25.6910 C.2     1  UNL1        0.2572
      8 O           2.4500    2.0416   26.4163 O.2     1  UNL1       -0.2692
      9 H           2.9212   -1.3805   25.9507 H       1  UNL1        0.1553
     10 C           2.1682    0.6667   24.2299 C.ar    1  UNL1        0.1036
     11 C           0.9208    1.1961   23.5867 C.ar    1  UNL1        0.1105
     12 N           1.0051    0.9198   22.1148 N.ar    1  UNL1       -0.2351
     13 C           2.3046    0.2197   21.8482 C.ar    1  UNL1        0.1285
     14 S           3.0235    0.0632   23.1555 S.2     1  UNL1       -0.0604
     15 C           2.7986   -0.2428   20.5095 C.ar    1  UNL1        0.1050
     16 C           2.5184    0.5746   19.2834 C.ar    1  UNL1        0.0212
     17 C           3.0124    0.1122   17.9447 C.ar    1  UNL1        0.0032
     18 C           3.7865   -1.1678   17.8321 C.ar    1  UNL1        0.0207
     19 C           4.0667   -1.9851   19.0583 C.ar    1  UNL1        0.0989
     20 N           3.5727   -1.5226   20.3970 N.ar    1  UNL1       -0.2418
     21 C           6.9828    0.0752   30.4700 C.3     1  UNL1        0.0312
     22 C           5.5633   -0.0002   30.9489 C.3     1  UNL1        0.1274
     23 C           5.2562    0.1419   32.4102 C.ar    1  UNL1        0.0038
     24 C           4.9010    1.4855   32.9748 C.ar    1  UNL1       -0.0025
     25 C           4.5939    1.6276   34.4361 C.ar    1  UNL1        0.0036
     26 C           4.6420    0.4261   35.3328 C.ar    1  UNL1        0.0714
     27 C           4.9971   -0.9174   34.7683 C.ar    1  UNL1        0.0074
     28 C           5.3042   -1.0595   33.3070 C.ar    1  UNL1        0.0692
     29 C           4.3348    0.5682   36.7942 C.3     1  UNL1        0.4186
     30 F           4.0276    0.7104   38.2555 F       1  UNL1       -0.1659
     31 F           5.4608   -0.3670   37.1219 F       1  UNL1       -0.1659
     32 F           3.2088    1.5035   36.4665 F       1  UNL1       -0.1659
     33 C           5.6594   -2.4031   32.7424 C.3     1  UNL1        0.4183
     34 F           6.0146   -3.7466   32.1779 F       1  UNL1       -0.1659
     35 F           4.2044   -2.6974   32.5276 F       1  UNL1       -0.1659
     36 F           7.1145   -2.1087   32.9572 F       1  UNL1       -0.1659
@<TRIPOS>BOND
     1    21    22    1
     2    22    23    1
     3    23    24   ar
     4    24    25   ar
     5    25    26   ar
     6    26    29    1
     7    29    30    1
     8    29    31    1
     9    29    32    1
    10    26    27   ar
    11    27    28   ar
    12    28    33    1
    13    33    34    1
    14    33    35    1
    15    33    36    1
    16    22     1    1
    17     1     2   ar
    18     2     3   ar
    19     3     6    1
    20     6     7   am
    21     7     8    2
    22     7    10    1
    23    10    11   ar
    24    11    12   ar
    25    12    13   ar
    26    13    15    1
    27    15    16   ar
    28    16    17   ar
    29    17    18   ar
    30    18    19   ar
    31    19    20   ar
    32    13    14   ar
    33     3     4   ar
    34     4     5   ar
    35    28    23   ar
    36     5     1   ar
    37    14    10   ar
    38    20    15   ar
    39     6     9    1
