@<TRIPOS>MOLECULE
*****
 26 29 0 0 0
SMALL
GASTEIGER

@<TRIPOS>ATOM
      1 O           6.1904   -0.5624   36.9904 O.2     1  UNL1       -0.2699
      2 C           5.0850    0.2156   36.3402 C.2     1  UNL1        0.2494
      3 N           4.7173   -0.0550   34.9113 N.am    1  UNL1       -0.2698
      4 C           5.4549   -1.1037   34.1328 C.3     1  UNL1        0.1021
      5 C           5.0871   -1.3743   32.7040 C.3     1  UNL1        0.0874
      6 C           3.9818   -0.5962   32.0538 C.ar    1  UNL1        0.1415
      7 O           3.4008   -0.6417   30.6715 O.2     1  UNL1       -0.4380
      8 C           2.3042    0.3789   30.5959 C.ar    1  UNL1        0.2471
      9 N           2.2074    1.0551   31.9313 N.ar    1  UNL1       -0.2100
     10 C           3.2442    0.4525   32.8323 C.ar    1  UNL1        0.1124
     11 C           3.6119    0.7231   34.2611 C.3     1  UNL1        0.1425
     12 C           4.3474    1.2643   37.1188 C.ar    1  UNL1        0.0567
     13 C           4.8477    2.6783   37.1332 C.ar    1  UNL1        0.0342
     14 C           4.1101    3.7270   37.9118 C.ar    1  UNL1        0.1411
     15 F           4.6104    5.1410   37.9262 F       1  UNL1       -0.2041
     16 C           2.8721    3.3616   38.6759 C.ar    1  UNL1        0.0410
     17 C           2.3718    1.9476   38.6616 C.ar    1  UNL1        0.0601
     18 CL          1.1339    1.5823   39.4257 Cl      1  UNL1       -0.0822
     19 C           3.1094    0.8990   37.8830 C.ar    1  UNL1        0.0161
     20 C           1.4537    0.6719   29.3955 C.ar    1  UNL1        0.1348
     21 C           2.0338    1.4145   28.2284 C.ar    1  UNL1        0.0262
     22 C           1.1834    1.7075   27.0281 C.ar    1  UNL1        0.0329
     23 C          -0.2473    1.2580   26.9949 C.ar    1  UNL1        0.1592
     24 F          -1.0978    1.5510   25.7945 F       1  UNL1       -0.2025
     25 C          -0.8274    0.5154   28.1619 C.ar    1  UNL1        0.1285
     26 N           0.0230    0.2224   29.3622 N.ar    1  UNL1       -0.2368
@<TRIPOS>BOND
     1     1     2    2
     2     2    12    1
     3    12    13   ar
     4    13    14   ar
     5    14    15    1
     6    14    16   ar
     7    16    17   ar
     8    17    18    1
     9    17    19   ar
    10     2     3   am
    11     3     4    1
    12     4     5    1
    13     5     6    1
    14     6     7   ar
    15     7     8   ar
    16     8    20    1
    17    20    21   ar
    18    21    22   ar
    19    22    23   ar
    20    23    24    1
    21    23    25   ar
    22    25    26   ar
    23     8     9   ar
    24     9    10   ar
    25    10    11    1
    26    19    12   ar
    27    11     3    1
    28    10     6   ar
    29    26    20   ar
@<TRIPOS>MOLECULE
*****
 26 29 0 0 0
SMALL
GASTEIGER

@<TRIPOS>ATOM
      1 O           6.1748   -0.5386   36.9781 O.2     1  UNL1       -0.2699
      2 C           5.0651    0.2290   36.3227 C.2     1  UNL1        0.2494
      3 N           4.7035   -0.0484   34.8935 N.am    1  UNL1       -0.2698
      4 C           5.4515   -1.0933   34.1199 C.3     1  UNL1        0.1021
      5 C           5.0898   -1.3706   32.6908 C.3     1  UNL1        0.0874
      6 C           3.9802   -0.6031   32.0354 C.ar    1  UNL1        0.1415
      7 O           3.4035   -0.6568   30.6517 O.2     1  UNL1       -0.4380
      8 C           2.2991    0.3549   30.5703 C.ar    1  UNL1        0.2471
      9 N           2.1932    1.0339   31.9036 N.ar    1  UNL1       -0.2100
     10 C           3.2322    0.4419   32.8091 C.ar    1  UNL1        0.1124
     11 C           3.5939    0.7192   34.2382 C.3     1  UNL1        0.1425
     12 C           4.3171    1.2739   37.0963 C.ar    1  UNL1        0.0567
     13 C           3.0957    0.8956   37.8805 C.ar    1  UNL1        0.0342
     14 C           2.3477    1.9406   38.6542 C.ar    1  UNL1        0.1411
     15 F           1.1262    1.5623   39.4383 F       1  UNL1       -0.2041
     16 C           2.8212    3.3638   38.6437 C.ar    1  UNL1        0.0410
     17 C           4.0426    3.7422   37.8596 C.ar    1  UNL1        0.0601
     18 CL          4.5161    5.1654   37.8491 Cl      1  UNL1       -0.0822
     19 C           4.7906    2.6972   37.0859 C.ar    1  UNL1        0.0161
     20 C           1.4496    0.6380   29.3668 C.ar    1  UNL1        0.1348
     21 C           2.0581    1.2737   28.1520 C.ar    1  UNL1        0.0262
     22 C           1.2087    1.5567   26.9486 C.ar    1  UNL1        0.0329
     23 C          -0.2492    1.2041   26.9599 C.ar    1  UNL1        0.1592
     24 F          -1.0987    1.4872   25.7564 F       1  UNL1       -0.2025
     25 C          -0.8577    0.5684   28.1746 C.ar    1  UNL1        0.1285
     26 N          -0.0083    0.2853   29.3781 N.ar    1  UNL1       -0.2368
@<TRIPOS>BOND
     1     1     2    2
     2     2    12    1
     3    12    13   ar
     4    13    14   ar
     5    14    15    1
     6    14    16   ar
     7    16    17   ar
     8    17    18    1
     9    17    19   ar
    10     2     3   am
    11     3     4    1
    12     4     5    1
    13     5     6    1
    14     6     7   ar
    15     7     8   ar
    16     8    20    1
    17    20    21   ar
    18    21    22   ar
    19    22    23   ar
    20    23    24    1
    21    23    25   ar
    22    25    26   ar
    23     8     9   ar
    24     9    10   ar
    25    10    11    1
    26    19    12   ar
    27    11     3    1
    28    10     6   ar
    29    26    20   ar
@<TRIPOS>MOLECULE
*****
 26 29 0 0 0
SMALL
GASTEIGER

@<TRIPOS>ATOM
      1 O           5.6469    0.7440   18.4249 O.2     1  UNL1       -0.2699
      2 C           4.3732    0.3237   19.0966 C.2     1  UNL1        0.2494
      3 N           3.2102    1.2692   19.1579 N.am    1  UNL1       -0.2698
      4 C           3.3209    2.6348   18.5474 C.3     1  UNL1        0.1021
      5 C           2.1580    3.5802   18.6087 C.3     1  UNL1        0.0874
      6 C           0.8844    3.1599   19.2804 C.ar    1  UNL1        0.1415
      7 O          -0.4194    3.8704   19.4942 O.2     1  UNL1       -0.4380
      8 C          -1.3358    2.9437   20.2368 C.ar    1  UNL1        0.2471
      9 N          -0.5985    1.6606   20.4819 N.ar    1  UNL1       -0.2100
     10 C           0.7736    1.7943   19.8908 C.ar    1  UNL1        0.1124
     11 C           1.9366    0.8489   19.8296 C.3     1  UNL1        0.1425
     12 C           4.2625   -1.0419   19.7071 C.ar    1  UNL1        0.0567
     13 C           3.8955   -2.2183   18.8518 C.ar    1  UNL1        0.0342
     14 C           3.7848   -3.5840   19.4623 C.ar    1  UNL1        0.1411
     15 F           3.4178   -4.7603   18.6071 F       1  UNL1       -0.2041
     16 C           4.0411   -3.7733   20.9281 C.ar    1  UNL1        0.0410
     17 C           4.4080   -2.5969   21.7834 C.ar    1  UNL1        0.0601
     18 CL          4.6643   -2.7862   23.2491 Cl      1  UNL1       -0.0822
     19 C           4.5188   -1.2313   21.1729 C.ar    1  UNL1        0.0161
     20 C          -2.7426    3.2469   20.6599 C.ar    1  UNL1        0.1348
     21 C          -3.7791    3.5859   19.6300 C.ar    1  UNL1        0.0262
     22 C          -5.1858    3.8891   20.0531 C.ar    1  UNL1        0.0329
     23 C          -5.5562    3.8532   21.5062 C.ar    1  UNL1        0.1592
     24 F          -6.9630    4.1564   21.9294 F       1  UNL1       -0.2025
     25 C          -4.5197    3.5141   22.5362 C.ar    1  UNL1        0.1285
     26 N          -3.1130    3.2110   22.1130 N.ar    1  UNL1       -0.2368
@<TRIPOS>BOND
     1     1     2    2
     2     2    12    1
     3    12    13   ar
     4    13    14   ar
     5    14    15    1
     6    14    16   ar
     7    16    17   ar
     8    17    18    1
     9    17    19   ar
    10     2     3   am
    11     3     4    1
    12     4     5    1
    13     5     6    1
    14     6     7   ar
    15     7     8   ar
    16     8    20    1
    17    20    21   ar
    18    21    22   ar
    19    22    23   ar
    20    23    24    1
    21    23    25   ar
    22    25    26   ar
    23     8     9   ar
    24     9    10   ar
    25    10    11    1
    26    19    12   ar
    27    11     3    1
    28    10     6   ar
    29    26    20   ar
@<TRIPOS>MOLECULE
*****
 26 29 0 0 0
SMALL
GASTEIGER

@<TRIPOS>ATOM
      1 O           3.8336   -1.2330   16.2371 O.2     1  UNL1       -0.2699
      2 C           3.8646   -0.7799   17.6667 C.2     1  UNL1        0.2494
      3 N           4.4202   -1.6830   18.7278 N.am    1  UNL1       -0.2698
      4 C           4.9448   -3.0390   18.3593 C.3     1  UNL1        0.1021
      5 C           5.5004   -3.9420   19.4204 C.3     1  UNL1        0.0874
      6 C           5.5314   -3.4889   20.8500 C.ar    1  UNL1        0.1415
      7 O           6.0156   -4.1550   22.1037 O.2     1  UNL1       -0.4380
      8 C           5.7902   -3.2106   23.2471 C.ar    1  UNL1        0.2471
      9 N           5.1667   -1.9608   22.7000 N.ar    1  UNL1       -0.2100
     10 C           5.0067   -2.1328   21.2185 C.ar    1  UNL1        0.1124
     11 C           4.4512   -1.2299   20.1574 C.3     1  UNL1        0.1425
     12 C           3.3400    0.5761   18.0352 C.ar    1  UNL1        0.0567
     13 C           1.8805    0.7616   18.3277 C.ar    1  UNL1        0.0342
     14 C           1.3559    2.1178   18.6962 C.ar    1  UNL1        0.1411
     15 F          -0.1036    2.3033   18.9887 F       1  UNL1       -0.2041
     16 C           2.2907    3.2883   18.7722 C.ar    1  UNL1        0.0410
     17 C           3.7502    3.1028   18.4797 C.ar    1  UNL1        0.0601
     18 CL          4.6851    4.2734   18.5558 Cl      1  UNL1       -0.0822
     19 C           4.2748    1.7468   18.1112 C.ar    1  UNL1        0.0161
     20 C           6.1289   -3.4703   24.6851 C.ar    1  UNL1        0.1348
     21 C           6.7913   -4.7572   25.0790 C.ar    1  UNL1        0.0262
     22 C           7.1299   -5.0170   26.5170 C.ar    1  UNL1        0.0329
     23 C           6.8062   -3.9898   27.5611 C.ar    1  UNL1        0.1592
     24 F           7.1448   -4.2496   28.9991 F       1  UNL1       -0.2025
     25 C           6.1437   -2.7030   27.1672 C.ar    1  UNL1        0.1285
     26 N           5.8051   -2.4432   25.7292 N.ar    1  UNL1       -0.2368
@<TRIPOS>BOND
     1     1     2    2
     2     2    12    1
     3    12    13   ar
     4    13    14   ar
     5    14    15    1
     6    14    16   ar
     7    16    17   ar
     8    17    18    1
     9    17    19   ar
    10     2     3   am
    11     3     4    1
    12     4     5    1
    13     5     6    1
    14     6     7   ar
    15     7     8   ar
    16     8    20    1
    17    20    21   ar
    18    21    22   ar
    19    22    23   ar
    20    23    24    1
    21    23    25   ar
    22    25    26   ar
    23     8     9   ar
    24     9    10   ar
    25    10    11    1
    26    19    12   ar
    27    11     3    1
    28    10     6   ar
    29    26    20   ar
@<TRIPOS>MOLECULE
*****
 26 29 0 0 0
SMALL
GASTEIGER

@<TRIPOS>ATOM
      1 O         -14.5478   -9.4963   18.7839 O.2     1  UNL1       -0.2699
      2 C         -15.5351   -8.3776   18.9378 C.2     1  UNL1        0.2494
      3 N         -15.0537   -6.9599   19.0315 N.am    1  UNL1       -0.2698
      4 C         -13.5850   -6.6611   18.9712 C.3     1  UNL1        0.1021
      5 C         -13.1037   -5.2436   19.0649 C.3     1  UNL1        0.0874
      6 C         -14.0910   -4.1249   19.2187 C.ar    1  UNL1        0.1415
      7 O         -13.9149   -2.6398   19.3360 O.2     1  UNL1       -0.4380
      8 C         -15.2747   -2.0209   19.4688 C.ar    1  UNL1        0.2471
      9 N         -16.2912   -3.1234   19.4335 N.ar    1  UNL1       -0.2100
     10 C         -15.5596   -4.4237   19.2790 C.ar    1  UNL1        0.1124
     11 C         -16.0410   -5.8412   19.1853 C.3     1  UNL1        0.1425
     12 C         -17.0038   -8.6764   18.9980 C.ar    1  UNL1        0.0567
     13 C         -17.7835   -8.3588   20.2395 C.ar    1  UNL1        0.0342
     14 C         -19.2522   -8.6577   20.2997 C.ar    1  UNL1        0.1411
     15 F         -20.0319   -8.3401   21.5411 F       1  UNL1       -0.2041
     16 C         -19.9412   -9.2740   19.1184 C.ar    1  UNL1        0.0410
     17 C         -19.1615   -9.5916   17.8770 C.ar    1  UNL1        0.0601
     18 CL        -19.8505  -10.2079   16.6957 Cl      1  UNL1       -0.0822
     19 C         -17.6928   -9.2928   17.8168 C.ar    1  UNL1        0.0161
     20 C         -15.5669   -0.5565   19.6117 C.ar    1  UNL1        0.1348
     21 C         -16.6756   -0.0972   20.5116 C.ar    1  UNL1        0.0262
     22 C         -16.9677    1.3670   20.6545 C.ar    1  UNL1        0.0329
     23 C         -16.1512    2.3721   19.8975 C.ar    1  UNL1        0.1592
     24 F         -16.4433    3.8364   20.0404 F       1  UNL1       -0.2025
     25 C         -15.0425    1.9128   18.9976 C.ar    1  UNL1        0.1285
     26 N         -14.7503    0.4486   18.8547 N.ar    1  UNL1       -0.2368
@<TRIPOS>BOND
     1     1     2    2
     2     2    12    1
     3    12    13   ar
     4    13    14   ar
     5    14    15    1
     6    14    16   ar
     7    16    17   ar
     8    17    18    1
     9    17    19   ar
    10     2     3   am
    11     3     4    1
    12     4     5    1
    13     5     6    1
    14     6     7   ar
    15     7     8   ar
    16     8    20    1
    17    20    21   ar
    18    21    22   ar
    19    22    23   ar
    20    23    24    1
    21    23    25   ar
    22    25    26   ar
    23     8     9   ar
    24     9    10   ar
    25    10    11    1
    26    19    12   ar
    27    11     3    1
    28    10     6   ar
    29    26    20   ar
@<TRIPOS>MOLECULE
*****
 26 29 0 0 0
SMALL
GASTEIGER

@<TRIPOS>ATOM
      1 O         -14.7019   -9.3227   18.9698 O.2     1  UNL1       -0.2699
      2 C         -15.7158   -8.2210   19.0608 C.2     1  UNL1        0.2494
      3 N         -15.2658   -6.7989   19.2195 N.am    1  UNL1       -0.2698
      4 C         -13.8020   -6.4786   19.2874 C.3     1  UNL1        0.1021
      5 C         -13.3520   -5.0565   19.4461 C.3     1  UNL1        0.0874
      6 C         -14.3659   -3.9548   19.5371 C.ar    1  UNL1        0.1415
      7 O         -14.2231   -2.4699   19.6951 O.2     1  UNL1       -0.4380
      8 C         -15.5987   -1.8726   19.7250 C.ar    1  UNL1        0.2471
      9 N         -16.5916   -2.9883   19.5854 N.ar    1  UNL1       -0.2100
     10 C         -15.8297   -4.2751   19.4692 C.ar    1  UNL1        0.1124
     11 C         -16.2796   -5.6971   19.3105 C.3     1  UNL1        0.1425
     12 C         -17.1796   -8.5413   18.9930 C.ar    1  UNL1        0.0567
     13 C         -17.7781   -9.0474   17.7140 C.ar    1  UNL1        0.0342
     14 C         -19.2420   -9.3677   17.6463 C.ar    1  UNL1        0.1411
     15 F         -19.8406   -9.8738   16.3673 F       1  UNL1       -0.2041
     16 C         -20.1072   -9.1820   18.8574 C.ar    1  UNL1        0.0410
     17 C         -19.5087   -8.6759   20.1363 C.ar    1  UNL1        0.0601
     18 CL        -20.3739   -8.4901   21.3474 Cl      1  UNL1       -0.0822
     19 C         -18.0449   -8.3556   20.2041 C.ar    1  UNL1        0.0161
     20 C         -15.9243   -0.4154   19.8692 C.ar    1  UNL1        0.1348
     21 C         -15.1351    0.6083   19.1081 C.ar    1  UNL1        0.0262
     22 C         -15.4606    2.0654   19.2522 C.ar    1  UNL1        0.0329
     23 C         -16.5754    2.4988   20.1574 C.ar    1  UNL1        0.1592
     24 F         -16.9010    3.9560   20.3016 F       1  UNL1       -0.2025
     25 C         -17.3646    1.4751   20.9185 C.ar    1  UNL1        0.1285
     26 N         -17.0391    0.0180   20.7743 N.ar    1  UNL1       -0.2368
@<TRIPOS>BOND
     1     1     2    2
     2     2    12    1
     3    12    13   ar
     4    13    14   ar
     5    14    15    1
     6    14    16   ar
     7    16    17   ar
     8    17    18    1
     9    17    19   ar
    10     2     3   am
    11     3     4    1
    12     4     5    1
    13     5     6    1
    14     6     7   ar
    15     7     8   ar
    16     8    20    1
    17    20    21   ar
    18    21    22   ar
    19    22    23   ar
    20    23    24    1
    21    23    25   ar
    22    25    26   ar
    23     8     9   ar
    24     9    10   ar
    25    10    11    1
    26    19    12   ar
    27    11     3    1
    28    10     6   ar
    29    26    20   ar
@<TRIPOS>MOLECULE
*****
 26 29 0 0 0
SMALL
GASTEIGER

@<TRIPOS>ATOM
      1 O           3.8642   -1.1777   16.2466 O.2     1  UNL1       -0.2699
      2 C           3.9343   -0.7224   17.6741 C.2     1  UNL1        0.2494
      3 N           4.4613   -1.6471   18.7312 N.am    1  UNL1       -0.2698
      4 C           4.9181   -3.0270   18.3607 C.3     1  UNL1        0.1021
      5 C           5.4450   -3.9516   19.4178 C.3     1  UNL1        0.0874
      6 C           5.5151   -3.4964   20.8453 C.ar    1  UNL1        0.1415
      7 O           5.9841   -4.1806   22.0951 O.2     1  UNL1       -0.4380
      8 C           5.8172   -3.2236   23.2380 C.ar    1  UNL1        0.2471
      9 N           5.2450   -1.9479   22.6945 N.ar    1  UNL1       -0.2100
     10 C           5.0583   -2.1165   21.2158 C.ar    1  UNL1        0.1124
     11 C           4.5314   -1.1919   20.1587 C.3     1  UNL1        0.1425
     12 C           3.4775    0.6574   18.0446 C.ar    1  UNL1        0.0567
     13 C           4.4682    1.7814   18.1163 C.ar    1  UNL1        0.0342
     14 C           4.0113    3.1613   18.4868 C.ar    1  UNL1        0.1411
     15 F           5.0020    4.2853   18.5586 F       1  UNL1       -0.2041
     16 C           2.5638    3.4172   18.7856 C.ar    1  UNL1        0.0410
     17 C           1.5731    2.2931   18.7139 C.ar    1  UNL1        0.0601
     18 CL          0.1257    2.5490   19.0126 Cl      1  UNL1       -0.0822
     19 C           2.0299    0.9133   18.3434 C.ar    1  UNL1        0.0161
     20 C           6.1619   -3.4945   24.6725 C.ar    1  UNL1        0.1348
     21 C           5.9260   -2.4398   25.7127 C.ar    1  UNL1        0.0262
     22 C           6.2707   -2.7108   27.1471 C.ar    1  UNL1        0.0329
     23 C           6.8513   -4.0364   27.5414 C.ar    1  UNL1        0.1592
     24 F           7.1960   -4.3074   28.9760 F       1  UNL1       -0.2025
     25 C           7.0872   -5.0911   26.5013 C.ar    1  UNL1        0.1285
     26 N           6.7425   -4.8202   25.0668 N.ar    1  UNL1       -0.2368
@<TRIPOS>BOND
     1     1     2    2
     2     2    12    1
     3    12    13   ar
     4    13    14   ar
     5    14    15    1
     6    14    16   ar
     7    16    17   ar
     8    17    18    1
     9    17    19   ar
    10     2     3   am
    11     3     4    1
    12     4     5    1
    13     5     6    1
    14     6     7   ar
    15     7     8   ar
    16     8    20    1
    17    20    21   ar
    18    21    22   ar
    19    22    23   ar
    20    23    24    1
    21    23    25   ar
    22    25    26   ar
    23     8     9   ar
    24     9    10   ar
    25    10    11    1
    26    19    12   ar
    27    11     3    1
    28    10     6   ar
    29    26    20   ar
@<TRIPOS>MOLECULE
*****
 26 29 0 0 0
SMALL
GASTEIGER

@<TRIPOS>ATOM
      1 O           8.9554   -6.6989   31.3205 O.2     1  UNL1       -0.2699
      2 C           8.3237   -5.5762   30.5521 C.2     1  UNL1        0.2494
      3 N           8.0789   -5.7200   29.0791 N.am    1  UNL1       -0.2698
      4 C           8.4659   -6.9864   28.3747 C.3     1  UNL1        0.1021
      5 C           8.2211   -7.1302   26.9018 C.3     1  UNL1        0.0874
      6 C           7.5894   -6.0075   26.1334 C.ar    1  UNL1        0.1415
      7 O           7.2277   -5.8613   24.6849 O.2     1  UNL1       -0.4380
      8 C           6.6173   -4.5045   24.4943 C.ar    1  UNL1        0.2471
      9 N           6.6017   -3.8121   25.8248 N.ar    1  UNL1       -0.2100
     10 C           7.2025   -4.7410   26.8378 C.ar    1  UNL1        0.1124
     11 C           7.4473   -4.5973   28.3107 C.3     1  UNL1        0.1425
     12 C           7.9368   -4.3097   31.2565 C.ar    1  UNL1        0.0567
     13 C           8.9254   -3.1884   31.3806 C.ar    1  UNL1        0.0342
     14 C           8.5384   -1.9219   32.0851 C.ar    1  UNL1        0.1411
     15 F           9.5270   -0.8006   32.2092 F       1  UNL1       -0.2041
     16 C           7.1629   -1.7767   32.6655 C.ar    1  UNL1        0.0410
     17 C           6.1743   -2.8980   32.5414 C.ar    1  UNL1        0.0601
     18 CL          4.7988   -2.7529   33.1217 Cl      1  UNL1       -0.0822
     19 C           6.5612   -4.1645   31.8369 C.ar    1  UNL1        0.0161
     20 C           6.1112   -3.9393   23.2002 C.ar    1  UNL1        0.1348
     21 C           4.8727   -3.0933   23.1848 C.ar    1  UNL1        0.0262
     22 C           4.3666   -2.5280   21.8908 C.ar    1  UNL1        0.0329
     23 C           5.0991   -2.8088   20.6123 C.ar    1  UNL1        0.1592
     24 F           4.5931   -2.2435   19.3183 F       1  UNL1       -0.2025
     25 C           6.3377   -3.6548   20.6278 C.ar    1  UNL1        0.1285
     26 N           6.8437   -4.2200   21.9218 N.ar    1  UNL1       -0.2368
@<TRIPOS>BOND
     1     1     2    2
     2     2    12    1
     3    12    13   ar
     4    13    14   ar
     5    14    15    1
     6    14    16   ar
     7    16    17   ar
     8    17    18    1
     9    17    19   ar
    10     2     3   am
    11     3     4    1
    12     4     5    1
    13     5     6    1
    14     6     7   ar
    15     7     8   ar
    16     8    20    1
    17    20    21   ar
    18    21    22   ar
    19    22    23   ar
    20    23    24    1
    21    23    25   ar
    22    25    26   ar
    23     8     9   ar
    24     9    10   ar
    25    10    11    1
    26    19    12   ar
    27    11     3    1
    28    10     6   ar
    29    26    20   ar
@<TRIPOS>MOLECULE
*****
 26 29 0 0 0
SMALL
GASTEIGER

@<TRIPOS>ATOM
      1 O         -19.6130    0.8451   20.4228 O.2     1  UNL1       -0.2699
      2 C         -18.1170    0.7351   20.4329 C.2     1  UNL1        0.2494
      3 N         -17.4590   -0.5733   20.1084 N.am    1  UNL1       -0.2698
      4 C         -18.2970   -1.7715   19.7737 C.3     1  UNL1        0.1021
      5 C         -17.6389   -3.0798   19.4492 C.3     1  UNL1        0.0874
      6 C         -16.1430   -3.1899   19.4594 C.ar    1  UNL1        0.1415
      7 O         -15.2192   -4.3390   19.1833 O.2     1  UNL1       -0.4380
      8 C         -13.8104   -3.8510   19.3474 C.ar    1  UNL1        0.2471
      9 N         -13.8635   -2.4002   19.7248 N.ar    1  UNL1       -0.2100
     10 C         -15.3051   -1.9916   19.7940 C.ar    1  UNL1        0.1124
     11 C         -15.9631   -0.6833   20.1186 C.3     1  UNL1        0.1425
     12 C         -17.2791    1.9333   20.7676 C.ar    1  UNL1        0.0567
     13 C         -16.5243    2.6466   19.6853 C.ar    1  UNL1        0.0342
     14 C         -15.6863    3.8449   20.0200 C.ar    1  UNL1        0.1411
     15 F         -14.9314    4.5582   18.9377 F       1  UNL1       -0.2041
     16 C         -15.6033    4.3299   21.4370 C.ar    1  UNL1        0.0410
     17 C         -16.3581    3.6166   22.5193 C.ar    1  UNL1        0.0601
     18 CL        -16.2751    4.1016   23.9363 Cl      1  UNL1       -0.0822
     19 C         -17.1960    2.4184   22.1847 C.ar    1  UNL1        0.0161
     20 C         -12.5668   -4.6699   19.1659 C.ar    1  UNL1        0.1348
     21 C         -12.6498   -6.1675   19.1560 C.ar    1  UNL1        0.0262
     22 C         -11.4063   -6.9864   18.9746 C.ar    1  UNL1        0.0329
     23 C         -10.0797   -6.3076   18.8029 C.ar    1  UNL1        0.1592
     24 F          -8.8361   -7.1265   18.6214 F       1  UNL1       -0.2025
     25 C          -9.9967   -4.8100   18.8128 C.ar    1  UNL1        0.1285
     26 N         -11.2402   -3.9911   18.9943 N.ar    1  UNL1       -0.2368
@<TRIPOS>BOND
     1     1     2    2
     2     2    12    1
     3    12    13   ar
     4    13    14   ar
     5    14    15    1
     6    14    16   ar
     7    16    17   ar
     8    17    18    1
     9    17    19   ar
    10     2     3   am
    11     3     4    1
    12     4     5    1
    13     5     6    1
    14     6     7   ar
    15     7     8   ar
    16     8    20    1
    17    20    21   ar
    18    21    22   ar
    19    22    23   ar
    20    23    24    1
    21    23    25   ar
    22    25    26   ar
    23     8     9   ar
    24     9    10   ar
    25    10    11    1
    26    19    12   ar
    27    11     3    1
    28    10     6   ar
    29    26    20   ar
