@<TRIPOS>MOLECULE
*****
 18 20 0 0 0
SMALL
GASTEIGER

@<TRIPOS>ATOM
      1 C          -9.4247  -17.1639   24.2609 C.2     1  UNL1        0.0070
      2 C          -9.9051  -18.2125   25.2198 C.2     1  UNL1        0.0947
      3 N         -11.1881  -18.7766   24.6851 N.2     1  UNL1       -0.2481
      4 C         -11.5005  -18.0767   23.3957 C.2     1  UNL1        0.0632
      5 C         -12.6365  -18.2182   22.4265 C.3     1  UNL1        0.0741
      6 C         -12.6827  -17.3629   21.1952 C.2     1  UNL1        0.0098
      7 C         -11.5928  -16.3662   20.9330 C.2     1  UNL1        0.1363
      8 F         -11.6390  -15.5109   19.7015 F       1  UNL1       -0.2045
      9 C         -10.4568  -16.2247   21.9021 C.2     1  UNL1        0.0302
     10 C         -10.4106  -17.0800   23.1335 C.2     1  UNL1        0.0141
     11 O          -4.7743  -14.8769   23.2482 O.2     1  UNL1       -0.2747
     12 C          -6.0397  -15.2921   23.9386 C.2     1  UNL1        0.2289
     13 C          -7.0915  -16.2033   23.3786 C.3     1  UNL1        0.0990
     14 C          -8.1772  -16.3433   24.4041 C.3     1  UNL1        0.1097
     15 C          -7.7965  -15.5187   25.5978 C.2     1  UNL1        0.2323
     16 O          -8.5964  -15.3699   26.8579 O.2     1  UNL1       -0.2743
     17 N          -6.4754  -14.8690   25.3102 N.am    1  UNL1       -0.2550
     18 H          -5.9812  -14.2701   25.9154 H       1  UNL1        0.1575
@<TRIPOS>BOND
     1    11    12    2
     2    12    13    1
     3    13    14    1
     4    14     1    1
     5     1     2    2
     6     2     3    1
     7     3     4    2
     8     4     5    1
     9     5     6    1
    10     6     7    2
    11     7     8    1
    12     7     9    1
    13     9    10    2
    14    14    15    1
    15    15    16    2
    16    15    17   am
    17    17    12   am
    18    10     1    1
    19    10     4    1
    20    17    18    1
@<TRIPOS>MOLECULE
*****
 18 20 0 0 0
SMALL
GASTEIGER

@<TRIPOS>ATOM
      1 C          -9.4582  -17.1322   23.3107 C.2     1  UNL1        0.0070
      2 C          -9.0181  -17.0447   21.8793 C.2     1  UNL1        0.0947
      3 N          -7.6921  -16.3443   21.8442 N.2     1  UNL1       -0.2481
      4 C          -7.3127  -15.9990   23.2537 C.2     1  UNL1        0.0632
      5 C          -6.1144  -15.3040   23.8290 C.3     1  UNL1        0.0741
      6 C          -6.0075  -15.0961   25.3106 C.2     1  UNL1        0.0098
      7 C          -7.0990  -15.5830   26.2170 C.2     1  UNL1        0.1363
      8 F          -6.9921  -15.3750   27.6987 F       1  UNL1       -0.2045
      9 C          -8.2974  -16.2780   25.6417 C.2     1  UNL1        0.0302
     10 C          -8.4042  -16.4859   24.1601 C.2     1  UNL1        0.0141
     11 O         -14.5782  -18.2033   24.0317 O.2     1  UNL1       -0.2747
     12 C         -13.0825  -18.2488   24.1371 C.2     1  UNL1        0.2289
     13 C         -12.1194  -17.3657   23.4004 C.3     1  UNL1        0.0990
     14 C         -10.7291  -17.7565   23.8057 C.3     1  UNL1        0.1097
     15 C         -10.8329  -18.8809   24.7929 C.2     1  UNL1        0.2323
     16 O          -9.6839  -19.5787   25.4585 O.2     1  UNL1       -0.2743
     17 N         -12.2874  -19.1853   24.9978 N.am    1  UNL1       -0.2550
     18 H         -12.6554  -19.8780   25.5927 H       1  UNL1        0.1575
@<TRIPOS>BOND
     1    11    12    2
     2    12    13    1
     3    13    14    1
     4    14     1    1
     5     1     2    2
     6     2     3    1
     7     3     4    2
     8     4     5    1
     9     5     6    1
    10     6     7    2
    11     7     8    1
    12     7     9    1
    13     9    10    2
    14    14    15    1
    15    15    16    2
    16    15    17   am
    17    17    12   am
    18    10     1    1
    19    10     4    1
    20    17    18    1
@<TRIPOS>MOLECULE
*****
 18 20 0 0 0
SMALL
GASTEIGER

@<TRIPOS>ATOM
      1 C          -8.7532  -16.7579   23.1115 C.2     1  UNL1        0.0070
      2 C          -7.6327  -17.1375   22.1893 C.2     1  UNL1        0.0947
      3 N          -6.3382  -16.8246   22.8796 N.2     1  UNL1       -0.2481
      4 C          -6.6587  -16.2516   24.2283 C.2     1  UNL1        0.0632
      5 C          -5.7843  -15.7621   25.3444 C.3     1  UNL1        0.0741
      6 C          -6.4024  -15.2314   26.6038 C.2     1  UNL1        0.0098
      7 C          -7.8950  -15.1902   26.7471 C.2     1  UNL1        0.1363
      8 F          -8.5131  -14.6595   28.0066 F       1  UNL1       -0.2045
      9 C          -8.7694  -15.6797   25.6310 C.2     1  UNL1        0.0302
     10 C          -8.1513  -16.2104   24.3716 C.2     1  UNL1        0.0141
     11 O         -13.8413  -18.1106   23.5146 O.2     1  UNL1       -0.2747
     12 C         -12.5572  -17.5225   23.0093 C.2     1  UNL1        0.2289
     13 C         -11.2155  -17.6350   23.6706 C.3     1  UNL1        0.0990
     14 C         -10.2185  -16.9008   22.8240 C.3     1  UNL1        0.1097
     15 C         -10.9439  -16.3345   21.6396 C.2     1  UNL1        0.2323
     16 O         -10.3314  -15.5258   20.5346 O.2     1  UNL1       -0.2743
     17 N         -12.3894  -16.7187   21.7540 N.am    1  UNL1       -0.2550
     18 H         -13.1026  -16.4844   21.1171 H       1  UNL1        0.1575
@<TRIPOS>BOND
     1    11    12    2
     2    12    13    1
     3    13    14    1
     4    14     1    1
     5     1     2    2
     6     2     3    1
     7     3     4    2
     8     4     5    1
     9     5     6    1
    10     6     7    2
    11     7     8    1
    12     7     9    1
    13     9    10    2
    14    14    15    1
    15    15    16    2
    16    15    17   am
    17    17    12   am
    18    10     1    1
    19    10     4    1
    20    17    18    1
@<TRIPOS>MOLECULE
*****
 18 20 0 0 0
SMALL
GASTEIGER

@<TRIPOS>ATOM
      1 C          -8.7162  -19.4936   22.7534 C.2     1  UNL1        0.0070
      2 C          -9.1548  -20.4536   23.8192 C.2     1  UNL1        0.0947
      3 N         -10.5912  -20.1647   24.1406 N.2     1  UNL1       -0.2481
      4 C         -11.0403  -19.0261   23.2734 C.2     1  UNL1        0.0632
      5 C         -12.3547  -18.3135   23.1537 C.3     1  UNL1        0.0741
      6 C         -12.5103  -17.1861   22.1767 C.2     1  UNL1        0.0098
      7 C         -11.3514  -16.7713   21.3194 C.2     1  UNL1        0.1363
      8 F         -11.5071  -15.6438   20.3423 F       1  UNL1       -0.2045
      9 C         -10.0370  -17.4839   21.4391 C.2     1  UNL1        0.0302
     10 C          -9.8814  -18.6113   22.4161 C.2     1  UNL1        0.0141
     11 O          -4.3456  -20.7785   20.0836 O.2     1  UNL1       -0.2747
     12 C          -5.3428  -20.0180   20.9065 C.2     1  UNL1        0.2289
     13 C          -6.6965  -20.5089   21.3269 C.3     1  UNL1        0.0990
     14 C          -7.3518  -19.4274   22.1337 C.3     1  UNL1        0.1097
     15 C          -6.4031  -18.2682   22.2120 C.2     1  UNL1        0.2323
     16 O          -6.6523  -16.9715   22.9237 O.2     1  UNL1       -0.2743
     17 N          -5.1615  -18.6331   21.4535 N.am    1  UNL1       -0.2550
     18 H          -4.3671  -18.0636   21.3355 H       1  UNL1        0.1575
@<TRIPOS>BOND
     1    11    12    2
     2    12    13    1
     3    13    14    1
     4    14     1    1
     5     1     2    2
     6     2     3    1
     7     3     4    2
     8     4     5    1
     9     5     6    1
    10     6     7    2
    11     7     8    1
    12     7     9    1
    13     9    10    2
    14    14    15    1
    15    15    16    2
    16    15    17   am
    17    17    12   am
    18    10     1    1
    19    10     4    1
    20    17    18    1
@<TRIPOS>MOLECULE
*****
 18 20 0 0 0
SMALL
GASTEIGER

@<TRIPOS>ATOM
      1 C          -7.9976  -17.4510   22.8095 C.2     1  UNL1        0.0070
      2 C          -7.0370  -18.4979   22.3284 C.2     1  UNL1        0.0947
      3 N          -7.6525  -19.1825   21.1442 N.2     1  UNL1       -0.2481
      4 C          -8.9934  -18.5588   20.8933 C.2     1  UNL1        0.0632
      5 C         -10.0478  -18.8271   19.8607 C.3     1  UNL1        0.0741
      6 C         -11.3154  -18.0252   19.8573 C.2     1  UNL1        0.0098
      7 C         -11.5287  -16.9551   20.8866 C.2     1  UNL1        0.1363
      8 F         -12.7964  -16.1531   20.8831 F       1  UNL1       -0.2045
      9 C         -10.4743  -16.6868   21.9192 C.2     1  UNL1        0.0302
     10 C          -9.2067  -17.4887   21.9226 C.2     1  UNL1        0.0141
     11 O          -8.5888  -15.0077   27.4530 O.2     1  UNL1       -0.2747
     12 C          -8.0579  -15.4054   26.1075 C.2     1  UNL1        0.2289
     13 C          -8.6280  -16.4661   25.2131 C.3     1  UNL1        0.0990
     14 C          -7.7862  -16.5285   23.9732 C.3     1  UNL1        0.1097
     15 C          -6.6959  -15.5063   24.1013 C.2     1  UNL1        0.2323
     16 O          -5.6256  -15.2273   23.0881 O.2     1  UNL1       -0.2743
     17 N          -6.8638  -14.8122   25.4204 N.am    1  UNL1       -0.2550
     18 H          -6.2909  -14.0935   25.7731 H       1  UNL1        0.1575
@<TRIPOS>BOND
     1    11    12    2
     2    12    13    1
     3    13    14    1
     4    14     1    1
     5     1     2    2
     6     2     3    1
     7     3     4    2
     8     4     5    1
     9     5     6    1
    10     6     7    2
    11     7     8    1
    12     7     9    1
    13     9    10    2
    14    14    15    1
    15    15    16    2
    16    15    17   am
    17    17    12   am
    18    10     1    1
    19    10     4    1
    20    17    18    1
@<TRIPOS>MOLECULE
*****
 18 20 0 0 0
SMALL
GASTEIGER

@<TRIPOS>ATOM
      1 C          -6.8814  -17.8748   22.6653 C.2     1  UNL1        0.0070
      2 C          -6.7368  -16.5763   23.4023 C.2     1  UNL1        0.0947
      3 N          -8.0817  -16.2032   23.9520 N.2     1  UNL1       -0.2481
      4 C          -9.0574  -17.2710   23.5548 C.2     1  UNL1        0.0632
      5 C         -10.5254  -17.4361   23.8145 C.3     1  UNL1        0.0741
      6 C         -11.2517  -18.6343   23.2789 C.2     1  UNL1        0.0098
      7 C         -10.5098  -19.6674   22.4837 C.2     1  UNL1        0.1363
      8 F         -11.2361  -20.8657   21.9481 F       1  UNL1       -0.2045
      9 C          -9.0418  -19.5023   22.2240 C.2     1  UNL1        0.0302
     10 C          -8.3155  -18.3041   22.7596 C.2     1  UNL1        0.0141
     11 O          -2.2746  -20.2390   21.6315 O.2     1  UNL1       -0.2747
     12 C          -3.6669  -19.7008   21.4830 C.2     1  UNL1        0.2289
     13 C          -4.4449  -18.9662   22.5343 C.3     1  UNL1        0.0990
     14 C          -5.7844  -18.6141   21.9582 C.3     1  UNL1        0.1097
     15 C          -5.8342  -19.1311   20.5511 C.2     1  UNL1        0.2323
     16 O          -6.9899  -18.9996   19.6039 O.2     1  UNL1       -0.2743
     17 N          -4.5255  -19.8028   20.2573 N.am    1  UNL1       -0.2550
     18 H          -4.2743  -20.2347   19.4090 H       1  UNL1        0.1575
@<TRIPOS>BOND
     1    11    12    2
     2    12    13    1
     3    13    14    1
     4    14     1    1
     5     1     2    2
     6     2     3    1
     7     3     4    2
     8     4     5    1
     9     5     6    1
    10     6     7    2
    11     7     8    1
    12     7     9    1
    13     9    10    2
    14    14    15    1
    15    15    16    2
    16    15    17   am
    17    17    12   am
    18    10     1    1
    19    10     4    1
    20    17    18    1
@<TRIPOS>MOLECULE
*****
 18 20 0 0 0
SMALL
GASTEIGER

@<TRIPOS>ATOM
      1 C          -7.8983  -17.2054   22.7718 C.2     1  UNL1        0.0070
      2 C          -9.1341  -17.2566   21.9231 C.2     1  UNL1        0.0947
      3 N          -8.8901  -18.2289   20.8073 N.2     1  UNL1       -0.2481
      4 C          -7.5035  -18.7786   20.9663 C.2     1  UNL1        0.0632
      5 C          -6.7199  -19.7734   20.1625 C.3     1  UNL1        0.0741
      6 C          -5.3234  -20.1357   20.5727 C.2     1  UNL1        0.0098
      7 C          -4.7104  -19.5031   21.7869 C.2     1  UNL1        0.1363
      8 F          -3.3138  -19.8654   22.1972 F       1  UNL1       -0.2045
      9 C          -5.4940  -18.5083   22.5908 C.2     1  UNL1        0.0302
     10 C          -6.8906  -18.1461   22.1805 C.2     1  UNL1        0.0141
     11 O          -8.5644  -15.0660   27.5531 O.2     1  UNL1       -0.2747
     12 C          -8.0105  -15.3784   26.1945 C.2     1  UNL1        0.2289
     13 C          -8.5687  -16.3754   25.2227 C.3     1  UNL1        0.0990
     14 C          -7.7043  -16.3617   23.9968 C.3     1  UNL1        0.1097
     15 C          -6.6121  -15.3563   24.2110 C.2     1  UNL1        0.2323
     16 O          -5.5219  -15.0180   23.2378 O.2     1  UNL1       -0.2743
     17 N          -6.8012  -14.7485   25.5692 N.am    1  UNL1       -0.2550
     18 H          -6.2317  -14.0575   25.9785 H       1  UNL1        0.1575
@<TRIPOS>BOND
     1    11    12    2
     2    12    13    1
     3    13    14    1
     4    14     1    1
     5     1     2    2
     6     2     3    1
     7     3     4    2
     8     4     5    1
     9     5     6    1
    10     6     7    2
    11     7     8    1
    12     7     9    1
    13     9    10    2
    14    14    15    1
    15    15    16    2
    16    15    17   am
    17    17    12   am
    18    10     1    1
    19    10     4    1
    20    17    18    1
@<TRIPOS>MOLECULE
*****
 18 20 0 0 0
SMALL
GASTEIGER

@<TRIPOS>ATOM
      1 C          -7.1800  -19.3778   20.7621 C.2     1  UNL1        0.0070
      2 C          -7.6659  -19.2778   19.3465 C.2     1  UNL1        0.0947
      3 N          -9.1623  -19.3818   19.3617 N.2     1  UNL1       -0.2481
      4 C          -9.6011  -19.5460   20.7866 C.2     1  UNL1        0.0632
      5 C         -10.9580  -19.6975   21.4078 C.3     1  UNL1        0.0741
      6 C         -11.0897  -19.8465   22.8946 C.2     1  UNL1        0.0098
      7 C          -9.8646  -19.8441   23.7601 C.2     1  UNL1        0.1363
      8 F          -9.9964  -19.9932   25.2469 F       1  UNL1       -0.2045
      9 C          -8.5077  -19.6927   23.1389 C.2     1  UNL1        0.0302
     10 C          -8.3760  -19.5436   21.6521 C.2     1  UNL1        0.0141
     11 O          -2.0244  -20.4129   21.2413 O.2     1  UNL1       -0.2747
     12 C          -3.3796  -19.7977   21.4295 C.2     1  UNL1        0.2289
     13 C          -4.6364  -20.1980   20.7152 C.3     1  UNL1        0.0990
     14 C          -5.7493  -19.3219   21.2092 C.3     1  UNL1        0.1097
     15 C          -5.1803  -18.3803   22.2286 C.2     1  UNL1        0.2323
     16 O          -5.9421  -17.3291   22.9800 O.2     1  UNL1       -0.2743
     17 N          -3.7156  -18.6742   22.3648 N.am    1  UNL1       -0.2550
     18 H          -3.0856  -18.2111   22.9631 H       1  UNL1        0.1575
@<TRIPOS>BOND
     1    11    12    2
     2    12    13    1
     3    13    14    1
     4    14     1    1
     5     1     2    2
     6     2     3    1
     7     3     4    2
     8     4     5    1
     9     5     6    1
    10     6     7    2
    11     7     8    1
    12     7     9    1
    13     9    10    2
    14    14    15    1
    15    15    16    2
    16    15    17   am
    17    17    12   am
    18    10     1    1
    19    10     4    1
    20    17    18    1
@<TRIPOS>MOLECULE
*****
 18 20 0 0 0
SMALL
GASTEIGER

@<TRIPOS>ATOM
      1 C          -9.5857  -17.3506   22.9422 C.2     1  UNL1        0.0070
      2 C          -8.8780  -17.7317   21.6757 C.2     1  UNL1        0.0947
      3 N          -7.4402  -17.3254   21.8079 N.2     1  UNL1       -0.2481
      4 C          -7.2592  -16.6931   23.1561 C.2     1  UNL1        0.0632
      5 C          -6.0583  -16.1052   23.8359 C.3     1  UNL1        0.0741
      6 C          -6.1834  -15.5329   25.2167 C.2     1  UNL1        0.0098
      7 C          -7.5094  -15.5485   25.9178 C.2     1  UNL1        0.1363
      8 F          -7.6345  -14.9762   27.2987 F       1  UNL1       -0.2045
      9 C          -8.7103  -16.1364   25.2380 C.2     1  UNL1        0.0302
     10 C          -8.5852  -16.7087   23.8571 C.2     1  UNL1        0.0141
     11 O         -14.0485  -18.8603   25.3267 O.2     1  UNL1       -0.2747
     12 C         -13.0900  -18.2664   24.3373 C.2     1  UNL1        0.2289
     13 C         -11.5940  -18.2733   24.4457 C.3     1  UNL1        0.0990
     14 C         -11.0387  -17.5724   23.2413 C.3     1  UNL1        0.1097
     15 C         -12.1916  -17.1324   22.3886 C.2     1  UNL1        0.2323
     16 O         -12.0939  -16.3933   21.0871 O.2     1  UNL1       -0.2743
     17 N         -13.4595  -17.5612   23.0659 N.am    1  UNL1       -0.2550
     18 H         -14.3735  -17.4070   22.7343 H       1  UNL1        0.1575
@<TRIPOS>BOND
     1    11    12    2
     2    12    13    1
     3    13    14    1
     4    14     1    1
     5     1     2    2
     6     2     3    1
     7     3     4    2
     8     4     5    1
     9     5     6    1
    10     6     7    2
    11     7     8    1
    12     7     9    1
    13     9    10    2
    14    14    15    1
    15    15    16    2
    16    15    17   am
    17    17    12   am
    18    10     1    1
    19    10     4    1
    20    17    18    1
