@<TRIPOS>MOLECULE
*****
 28 31 0 0 0
SMALL
GASTEIGER

@<TRIPOS>ATOM
      1 C         -13.7863   -4.4847   18.3514 C.2     1  UNL1        0.0020
      2 C         -13.9439   -2.9975   18.2361 C.2     1  UNL1        0.0143
      3 C         -12.7457   -2.1042   18.3635 C.3     1  UNL1        0.1672
      4 C         -11.6453   -1.0902   18.4687 C.3     1  UNL1        0.0628
      5 C         -12.2509    0.2708   18.2929 C.3     1  UNL1        0.0727
      6 N         -13.7255    0.0980   18.0792 N.3     1  UNL1       -0.2942
      7 C         -14.0313   -1.3699   18.1228 C.3     1  UNL1        0.1135
      8 O         -11.3899   -2.6982   18.6063 O.3     1  UNL1       -0.4771
      9 C         -11.2323   -4.1854   18.7216 C.ar    1  UNL1        0.1386
     10 C          -9.8763   -4.7793   18.9644 C.ar    1  UNL1        0.0369
     11 C          -9.7188   -6.2665   19.0797 C.ar    1  UNL1        0.0031
     12 C         -10.9170   -7.1598   18.9523 C.ar    1  UNL1        0.0002
     13 C         -12.2728   -6.5659   18.7095 C.ar    1  UNL1        0.0030
     14 C         -12.4305   -5.0787   18.5942 C.ar    1  UNL1        0.0338
     15 H         -13.9908    0.4800   17.1714 H       1  UNL1        0.1234
     16 C         -17.3811   -7.1646   17.9692 C.ar    1  UNL1        0.0536
     17 C         -16.9821   -6.6320   19.3135 C.ar    1  UNL1        0.0045
     18 C         -15.7839   -5.7387   19.4410 C.ar    1  UNL1        0.0001
     19 C         -14.9846   -5.3780   18.2240 C.ar    1  UNL1       -0.0001
     20 C         -15.3835   -5.9106   16.8797 C.ar    1  UNL1        0.0001
     21 C         -16.5818   -6.8038   16.7522 C.ar    1  UNL1        0.0045
     22 N         -18.4181   -9.5465   17.9324 N.am    1  UNL1       -0.2761
     23 C         -18.5793   -8.0579   17.8417 C.2     1  UNL1        0.2490
     24 O         -19.9388   -7.4626   17.6236 O.2     1  UNL1       -0.2699
     25 C         -20.1742  -10.7574   16.4493 C.3     1  UNL1        0.0233
     26 C         -19.6163  -10.4398   17.8050 C.3     1  UNL1        0.0938
     27 C         -17.0586  -10.1417   18.1505 C.3     1  UNL1        0.0938
     28 C         -16.9198  -11.4515   18.8682 C.3     1  UNL1        0.0233
@<TRIPOS>BOND
     1    25    26    1
     2    26    22    1
     3    22    27    1
     4    27    28    1
     5    22    23   am
     6    23    24    2
     7    23    16    1
     8    16    17   ar
     9    17    18   ar
    10    18    19   ar
    11    19     1    1
    12     1     2    2
    13     2     3    1
    14     3     4    1
    15     4     5    1
    16     5     6    1
    17     6     7    1
    18     3     8    1
    19     8     9    1
    20     9    10   ar
    21    10    11   ar
    22    11    12   ar
    23    12    13   ar
    24    13    14   ar
    25    19    20   ar
    26    20    21   ar
    27    21    16   ar
    28    14     1    1
    29     7     3    1
    30    14     9   ar
    31     6    15    1
@<TRIPOS>MOLECULE
*****
 28 31 0 0 0
SMALL
GASTEIGER

@<TRIPOS>ATOM
      1 C         -13.9022   -4.9310   18.6624 C.2     1  UNL1        0.0020
      2 C         -14.9683   -5.9696   18.4752 C.2     1  UNL1        0.0143
      3 C         -14.5954   -7.4198   18.3881 C.3     1  UNL1        0.1672
      4 C         -14.3757   -8.9000   18.2842 C.3     1  UNL1        0.0628
      5 C         -15.7128   -9.5555   18.1039 C.3     1  UNL1        0.0727
      6 N         -16.7588   -8.4804   18.0964 N.3     1  UNL1       -0.2942
      7 C         -16.0682   -7.1605   18.2721 C.3     1  UNL1        0.1135
      8 O         -13.1565   -7.8316   18.4882 O.3     1  UNL1       -0.4771
      9 C         -12.0905   -6.7930   18.6753 C.ar    1  UNL1        0.1386
     10 C         -10.6515   -7.2049   18.7754 C.ar    1  UNL1        0.0369
     11 C          -9.5855   -6.1663   18.9625 C.ar    1  UNL1        0.0031
     12 C          -9.9584   -4.7160   19.0496 C.ar    1  UNL1        0.0002
     13 C         -11.3972   -4.3042   18.9496 C.ar    1  UNL1        0.0030
     14 C         -12.4633   -5.3427   18.7624 C.ar    1  UNL1        0.0338
     15 H         -17.4162   -8.6317   18.8616 H       1  UNL1        0.1234
     16 C         -15.0209   -0.5800   18.9236 C.ar    1  UNL1        0.0536
     17 C         -14.6535   -1.1819   17.5996 C.ar    1  UNL1        0.0045
     18 C         -14.2806   -2.6322   17.5125 C.ar    1  UNL1        0.0001
     19 C         -14.2751   -3.4807   18.7495 C.ar    1  UNL1       -0.0001
     20 C         -14.6425   -2.8789   20.0734 C.ar    1  UNL1        0.0001
     21 C         -15.0154   -1.4286   20.1605 C.ar    1  UNL1        0.0045
     22 N         -16.8379    1.2758   18.9916 N.am    1  UNL1       -0.2761
     23 C         -15.3938    0.8702   19.0107 C.2     1  UNL1        0.2490
     24 O         -14.3227    1.9149   19.1169 O.2     1  UNL1       -0.2699
     25 C         -17.3068    3.3967   20.4170 C.3     1  UNL1        0.0233
     26 C         -17.2107    2.7260   19.0787 C.3     1  UNL1        0.0938
     27 C         -17.9089    0.2310   18.8854 C.3     1  UNL1        0.0938
     28 C         -18.5511   -0.3135   20.1268 C.3     1  UNL1        0.0233
@<TRIPOS>BOND
     1    25    26    1
     2    26    22    1
     3    22    27    1
     4    27    28    1
     5    22    23   am
     6    23    24    2
     7    23    16    1
     8    16    17   ar
     9    17    18   ar
    10    18    19   ar
    11    19     1    1
    12     1     2    2
    13     2     3    1
    14     3     4    1
    15     4     5    1
    16     5     6    1
    17     6     7    1
    18     3     8    1
    19     8     9    1
    20     9    10   ar
    21    10    11   ar
    22    11    12   ar
    23    12    13   ar
    24    13    14   ar
    25    19    20   ar
    26    20    21   ar
    27    21    16   ar
    28    14     1    1
    29     7     3    1
    30    14     9   ar
    31     6    15    1
@<TRIPOS>MOLECULE
*****
 28 31 0 0 0
SMALL
GASTEIGER

@<TRIPOS>ATOM
      1 C         -13.9391   -4.9377   18.6764 C.2     1  UNL1        0.0020
      2 C         -15.0088   -5.9746   18.5013 C.2     1  UNL1        0.0143
      3 C         -14.6403   -7.4264   18.4224 C.3     1  UNL1        0.1672
      4 C         -14.4252   -8.9079   18.3276 C.3     1  UNL1        0.0628
      5 C         -15.7649   -9.5609   18.1579 C.3     1  UNL1        0.0727
      6 N         -16.8080   -8.4830   18.1480 N.3     1  UNL1       -0.2942
      7 C         -16.1130   -7.1638   18.3114 C.3     1  UNL1        0.1135
      8 O         -13.2021   -7.8415   18.5186 O.3     1  UNL1       -0.4771
      9 C         -12.1324   -6.8046   18.6937 C.ar    1  UNL1        0.1386
     10 C         -10.6941   -7.2198   18.7899 C.ar    1  UNL1        0.0369
     11 C          -9.6244   -6.1830   18.9649 C.ar    1  UNL1        0.0031
     12 C          -9.9929   -4.7311   19.0438 C.ar    1  UNL1        0.0002
     13 C         -11.4310   -4.3160   18.9477 C.ar    1  UNL1        0.0030
     14 C         -12.5009   -5.3528   18.7726 C.ar    1  UNL1        0.0338
     15 H         -17.4622   -8.6272   18.9172 H       1  UNL1        0.1234
     16 C         -15.0445   -0.5820   18.9131 C.ar    1  UNL1        0.0536
     17 C         -15.0644   -1.4293   20.1508 C.ar    1  UNL1        0.0045
     18 C         -14.6959   -2.8811   20.0719 C.ar    1  UNL1        0.0001
     19 C         -14.3075   -3.4858   18.7553 C.ar    1  UNL1       -0.0001
     20 C         -14.2877   -2.6386   17.5176 C.ar    1  UNL1        0.0001
     21 C         -14.6562   -1.1868   17.5965 C.ar    1  UNL1        0.0045
     22 N         -16.8554    1.2804   18.9584 N.am    1  UNL1       -0.2761
     23 C         -15.4130    0.8699   18.9920 C.2     1  UNL1        0.2490
     24 O         -14.3392    1.9111   19.1045 O.2     1  UNL1       -0.2699
     25 C         -18.5562    3.1967   18.5280 C.3     1  UNL1        0.0233
     26 C         -17.2239    2.7323   19.0373 C.3     1  UNL1        0.0938
     27 C         -17.9291    0.2391   18.8458 C.3     1  UNL1        0.0938
     28 C         -18.5835   -0.3001   20.0832 C.3     1  UNL1        0.0233
@<TRIPOS>BOND
     1    25    26    1
     2    26    22    1
     3    22    27    1
     4    27    28    1
     5    22    23   am
     6    23    24    2
     7    23    16    1
     8    16    17   ar
     9    17    18   ar
    10    18    19   ar
    11    19     1    1
    12     1     2    2
    13     2     3    1
    14     3     4    1
    15     4     5    1
    16     5     6    1
    17     6     7    1
    18     3     8    1
    19     8     9    1
    20     9    10   ar
    21    10    11   ar
    22    11    12   ar
    23    12    13   ar
    24    13    14   ar
    25    19    20   ar
    26    20    21   ar
    27    21    16   ar
    28    14     1    1
    29     7     3    1
    30    14     9   ar
    31     6    15    1
@<TRIPOS>MOLECULE
*****
 28 31 0 0 0
SMALL
GASTEIGER

@<TRIPOS>ATOM
      1 C           3.4622   -0.2543   31.3612 C.2     1  UNL1        0.0020
      2 C           2.5549   -0.3614   30.1715 C.2     1  UNL1        0.0143
      3 C           1.3436    0.5174   30.0705 C.3     1  UNL1        0.1672
      4 C           0.1024    1.3255   29.8327 C.3     1  UNL1        0.0628
      5 C          -0.4900    0.8909   28.5250 C.3     1  UNL1        0.0727
      6 N           0.3849   -0.1857   27.9546 N.3     1  UNL1       -0.2942
      7 C           1.5182   -0.4166   28.9099 C.3     1  UNL1        0.1135
      8 O           1.0395    1.5034   31.1593 O.3     1  UNL1       -0.4771
      9 C           1.9468    1.6104   32.3490 C.ar    1  UNL1        0.1386
     10 C           1.6426    2.5965   33.4378 C.ar    1  UNL1        0.0369
     11 C           2.5498    2.7035   34.6275 C.ar    1  UNL1        0.0031
     12 C           3.7612    1.8247   34.7284 C.ar    1  UNL1        0.0002
     13 C           4.0654    0.8387   33.6397 C.ar    1  UNL1        0.0030
     14 C           3.1581    0.7316   32.4500 C.ar    1  UNL1        0.0338
     15 H           0.7502    0.1086   27.0489 H       1  UNL1        0.1234
     16 C           7.0963   -2.8910   31.6640 C.ar    1  UNL1        0.0536
     17 C           5.9114   -3.1423   32.5489 C.ar    1  UNL1        0.0045
     18 C           4.7001   -2.2635   32.4479 C.ar    1  UNL1        0.0001
     19 C           4.6736   -1.1332   31.4621 C.ar    1  UNL1       -0.0001
     20 C           5.8584   -0.8818   30.5773 C.ar    1  UNL1        0.0001
     21 C           7.0698   -1.7607   30.6782 C.ar    1  UNL1        0.0045
     22 N           8.3246   -5.1050   31.0816 N.am    1  UNL1       -0.2761
     23 C           8.3077   -3.7698   31.7649 C.2     1  UNL1        0.2490
     24 O           9.5021   -3.3134   32.5492 O.2     1  UNL1       -0.2699
     25 C           9.4561   -7.2898   31.9162 C.3     1  UNL1        0.0233
     26 C           9.5359   -5.9839   31.1825 C.3     1  UNL1        0.0938
     27 C           7.1301   -5.5613   30.2974 C.3     1  UNL1        0.0938
     28 C           7.2790   -5.9309   28.8513 C.3     1  UNL1        0.0233
@<TRIPOS>BOND
     1    25    26    1
     2    26    22    1
     3    22    27    1
     4    27    28    1
     5    22    23   am
     6    23    24    2
     7    23    16    1
     8    16    17   ar
     9    17    18   ar
    10    18    19   ar
    11    19     1    1
    12     1     2    2
    13     2     3    1
    14     3     4    1
    15     4     5    1
    16     5     6    1
    17     6     7    1
    18     3     8    1
    19     8     9    1
    20     9    10   ar
    21    10    11   ar
    22    11    12   ar
    23    12    13   ar
    24    13    14   ar
    25    19    20   ar
    26    20    21   ar
    27    21    16   ar
    28    14     1    1
    29     7     3    1
    30    14     9   ar
    31     6    15    1
@<TRIPOS>MOLECULE
*****
 28 31 0 0 0
SMALL
GASTEIGER

@<TRIPOS>ATOM
      1 C         -10.2340  -17.6154   22.6131 C.2     1  UNL1        0.0020
      2 C         -11.0824  -18.1535   23.7269 C.2     1  UNL1        0.0143
      3 C         -12.5721  -17.9833   23.6846 C.3     1  UNL1        0.1672
      4 C         -14.0661  -17.8893   23.7794 C.3     1  UNL1        0.0628
      5 C         -14.4927  -18.5578   25.0526 C.3     1  UNL1        0.0727
      6 N         -13.2623  -19.0650   25.7447 N.3     1  UNL1       -0.2942
      7 C         -12.0753  -18.7100   24.8991 C.3     1  UNL1        0.1135
      8 O         -13.2134  -17.2750   22.5283 O.3     1  UNL1       -0.4771
      9 C         -12.3650  -16.7369   21.4144 C.ar    1  UNL1        0.1386
     10 C         -13.0065  -16.0286   20.2581 C.ar    1  UNL1        0.0369
     11 C         -12.1581  -15.4904   19.1443 C.ar    1  UNL1        0.0031
     12 C         -10.6684  -15.6607   19.1867 C.ar    1  UNL1        0.0002
     13 C         -10.0270  -16.3689   20.3429 C.ar    1  UNL1        0.0030
     14 C         -10.8753  -16.9071   21.4568 C.ar    1  UNL1        0.0338
     15 H         -13.3191  -20.0776   25.8538 H       1  UNL1        0.1234
     16 C          -5.7648  -18.1260   22.7402 C.ar    1  UNL1        0.0536
     17 C          -6.3845  -16.8306   23.1741 C.ar    1  UNL1        0.0045
     18 C          -7.8742  -16.6604   23.1317 C.ar    1  UNL1        0.0001
     19 C          -8.7443  -17.7856   22.6554 C.ar    1  UNL1       -0.0001
     20 C          -8.1247  -19.0809   22.2216 C.ar    1  UNL1        0.0001
     21 C          -6.6350  -19.2511   22.2640 C.ar    1  UNL1        0.0045
     22 N          -3.5409  -18.7815   21.5679 N.am    1  UNL1       -0.2761
     23 C          -4.2751  -18.2962   22.7826 C.2     1  UNL1        0.2490
     24 O          -3.5197  -17.9811   24.0396 O.2     1  UNL1       -0.2699
     25 C          -1.1931  -18.3126   20.5590 C.3     1  UNL1        0.0233
     26 C          -2.0512  -18.9517   21.6103 C.3     1  UNL1        0.0938
     27 C          -4.2964  -19.0965   20.3110 C.3     1  UNL1        0.0938
     28 C          -4.2446  -20.4791   19.7314 C.3     1  UNL1        0.0233
@<TRIPOS>BOND
     1    25    26    1
     2    26    22    1
     3    22    27    1
     4    27    28    1
     5    22    23   am
     6    23    24    2
     7    23    16    1
     8    16    17   ar
     9    17    18   ar
    10    18    19   ar
    11    19     1    1
    12     1     2    2
    13     2     3    1
    14     3     4    1
    15     4     5    1
    16     5     6    1
    17     6     7    1
    18     3     8    1
    19     8     9    1
    20     9    10   ar
    21    10    11   ar
    22    11    12   ar
    23    12    13   ar
    24    13    14   ar
    25    19    20   ar
    26    20    21   ar
    27    21    16   ar
    28    14     1    1
    29     7     3    1
    30    14     9   ar
    31     6    15    1
@<TRIPOS>MOLECULE
*****
 28 31 0 0 0
SMALL
GASTEIGER

@<TRIPOS>ATOM
      1 C          -7.7660  -17.5031   22.8209 C.2     1  UNL1        0.0020
      2 C          -8.9664  -17.8988   22.0132 C.2     1  UNL1        0.0143
      3 C         -10.3390  -17.4925   22.4612 C.3     1  UNL1        0.1672
      4 C         -11.7662  -17.1607   22.7822 C.3     1  UNL1        0.0628
      5 C         -12.6321  -17.7527   21.7100 C.3     1  UNL1        0.0727
      6 N         -11.7402  -18.4504   20.7263 N.3     1  UNL1       -0.2942
      7 C         -10.3229  -18.2896   21.1906 C.3     1  UNL1        0.1135
      8 O         -10.5113  -16.6905   23.7170 O.3     1  UNL1       -0.4771
      9 C          -9.3109  -16.2947   24.5247 C.ar    1  UNL1        0.1386
     10 C          -9.4833  -15.4926   25.7806 C.ar    1  UNL1        0.0369
     11 C          -8.2829  -15.0969   26.5883 C.ar    1  UNL1        0.0031
     12 C          -6.9102  -15.5032   26.1403 C.ar    1  UNL1        0.0002
     13 C          -6.7379  -16.3052   24.8845 C.ar    1  UNL1        0.0030
     14 C          -7.9382  -16.7010   24.0767 C.ar    1  UNL1        0.0338
     15 H         -11.8511  -18.0333   19.8021 H       1  UNL1        0.1234
     16 C          -3.6479  -18.7220   21.4769 C.ar    1  UNL1        0.0536
     17 C          -3.8132  -17.8196   22.6637 C.ar    1  UNL1        0.0045
     18 C          -5.1858  -17.4132   23.1117 C.ar    1  UNL1        0.0001
     19 C          -6.3933  -17.9094   22.3729 C.ar    1  UNL1       -0.0001
     20 C          -6.2281  -18.8117   21.1861 C.ar    1  UNL1        0.0001
     21 C          -4.8555  -19.2180   20.7381 C.ar    1  UNL1        0.0045
     22 N          -1.4933  -18.2394   20.1077 N.am    1  UNL1       -0.2761
     23 C          -2.2753  -19.1283   21.0288 C.2     1  UNL1        0.2490
     24 O          -1.6847  -20.4234   21.5019 O.2     1  UNL1       -0.2699
     25 C           1.0684  -17.8121   20.0357 C.3     1  UNL1        0.0233
     26 C          -0.1207  -18.6457   19.6597 C.3     1  UNL1        0.0938
     27 C          -2.0840  -16.9442   19.6348 C.3     1  UNL1        0.0938
     28 C          -2.8138  -16.8867   18.3255 C.3     1  UNL1        0.0233
@<TRIPOS>BOND
     1    25    26    1
     2    26    22    1
     3    22    27    1
     4    27    28    1
     5    22    23   am
     6    23    24    2
     7    23    16    1
     8    16    17   ar
     9    17    18   ar
    10    18    19   ar
    11    19     1    1
    12     1     2    2
    13     2     3    1
    14     3     4    1
    15     4     5    1
    16     5     6    1
    17     6     7    1
    18     3     8    1
    19     8     9    1
    20     9    10   ar
    21    10    11   ar
    22    11    12   ar
    23    12    13   ar
    24    13    14   ar
    25    19    20   ar
    26    20    21   ar
    27    21    16   ar
    28    14     1    1
    29     7     3    1
    30    14     9   ar
    31     6    15    1
@<TRIPOS>MOLECULE
*****
 28 31 0 0 0
SMALL
GASTEIGER

@<TRIPOS>ATOM
      1 C           6.9889   -4.0938   25.0142 C.2     1  UNL1        0.0020
      2 C           6.6390   -3.6143   26.3917 C.2     1  UNL1        0.0143
      3 C           7.0584   -4.4103   27.5919 C.3     1  UNL1        0.1672
      4 C           7.4079   -5.0960   28.8794 C.3     1  UNL1        0.0628
      5 C           6.8630   -4.2704   30.0070 C.3     1  UNL1        0.0727
      6 N           6.1767   -3.0745   29.4164 N.3     1  UNL1       -0.2942
      7 C           6.2974   -3.1609   27.9238 C.3     1  UNL1        0.1135
      8 O           7.8277   -5.6857   27.4146 O.3     1  UNL1       -0.4771
      9 C           8.1776   -6.1652   26.0371 C.ar    1  UNL1        0.1386
     10 C           8.9470   -7.4407   25.8598 C.ar    1  UNL1        0.0369
     11 C           9.2969   -7.9201   24.4823 C.ar    1  UNL1        0.0031
     12 C           8.8775   -7.1241   23.2820 C.ar    1  UNL1        0.0002
     13 C           8.1083   -5.8487   23.4593 C.ar    1  UNL1        0.0030
     14 C           7.7583   -5.3692   24.8368 C.ar    1  UNL1        0.0338
     15 H           6.6218   -2.2198   29.7508 H       1  UNL1        0.1234
     16 C           5.7308   -1.7059   21.4134 C.ar    1  UNL1        0.0536
     17 C           4.7546   -2.6301   22.0790 C.ar    1  UNL1        0.0045
     18 C           5.1740   -3.4261   23.2793 C.ar    1  UNL1        0.0001
     19 C           6.5696   -3.2978   23.8139 C.ar    1  UNL1       -0.0001
     20 C           7.5457   -2.3737   23.1483 C.ar    1  UNL1        0.0001
     21 C           7.1264   -1.5777   21.9481 C.ar    1  UNL1        0.0045
     22 N           5.3650   -1.5279   18.8474 N.am    1  UNL1       -0.2761
     23 C           5.3114   -0.9099   20.2132 C.2     1  UNL1        0.2490
     24 O           4.8385    0.5039   20.3787 O.2     1  UNL1       -0.2699
     25 C           3.5093   -0.7269   17.2150 C.3     1  UNL1        0.0233
     26 C           4.9457   -0.7319   17.6472 C.3     1  UNL1        0.0938
     27 C           5.8379   -2.9417   18.6819 C.3     1  UNL1        0.0938
     28 C           4.8439   -4.0638   18.6304 C.3     1  UNL1        0.0233
@<TRIPOS>BOND
     1    25    26    1
     2    26    22    1
     3    22    27    1
     4    27    28    1
     5    22    23   am
     6    23    24    2
     7    23    16    1
     8    16    17   ar
     9    17    18   ar
    10    18    19   ar
    11    19     1    1
    12     1     2    2
    13     2     3    1
    14     3     4    1
    15     4     5    1
    16     5     6    1
    17     6     7    1
    18     3     8    1
    19     8     9    1
    20     9    10   ar
    21    10    11   ar
    22    11    12   ar
    23    12    13   ar
    24    13    14   ar
    25    19    20   ar
    26    20    21   ar
    27    21    16   ar
    28    14     1    1
    29     7     3    1
    30    14     9   ar
    31     6    15    1
@<TRIPOS>MOLECULE
*****
 28 31 0 0 0
SMALL
GASTEIGER

@<TRIPOS>ATOM
      1 C         -14.1923   -5.1354   18.6500 C.2     1  UNL1        0.0020
      2 C         -15.2090   -6.2250   18.4793 C.2     1  UNL1        0.0143
      3 C         -14.7672   -7.6557   18.3902 C.3     1  UNL1        0.1672
      4 C         -14.4772   -9.1237   18.2863 C.3     1  UNL1        0.0628
      5 C         -15.7831   -9.8438   18.1253 C.3     1  UNL1        0.0727
      6 N         -16.8802   -8.8209   18.1296 N.3     1  UNL1       -0.2942
      7 C         -16.2523   -7.4685   18.2933 C.3     1  UNL1        0.1135
      8 O         -13.3088   -7.9967   18.4718 O.3     1  UNL1       -0.4771
      9 C         -12.2921   -6.9071   18.6426 C.ar    1  UNL1        0.1386
     10 C         -10.8337   -7.2483   18.7242 C.ar    1  UNL1        0.0369
     11 C          -9.8170   -6.1587   18.8950 C.ar    1  UNL1        0.0031
     12 C         -10.2588   -4.7280   18.9841 C.ar    1  UNL1        0.0002
     13 C         -11.7172   -4.3868   18.9025 C.ar    1  UNL1        0.0030
     14 C         -12.7339   -5.4764   18.7317 C.ar    1  UNL1        0.0338
     15 H         -17.5192   -9.0019   18.9037 H       1  UNL1        0.1234
     16 C         -15.5176   -0.8432   18.9173 C.ar    1  UNL1        0.0536
     17 C         -15.3838   -1.5049   17.5777 C.ar    1  UNL1        0.0045
     18 C         -14.9420   -2.9356   17.4886 C.ar    1  UNL1        0.0001
     19 C         -14.6341   -3.7047   18.7392 C.ar    1  UNL1       -0.0001
     20 C         -14.7679   -3.0430   20.0786 C.ar    1  UNL1        0.0001
     21 C         -15.2097   -1.6124   20.1678 C.ar    1  UNL1        0.0045
     22 N         -14.9791    1.6927   18.7463 N.am    1  UNL1       -0.2761
     23 C         -15.9594    0.5875   19.0064 C.2     1  UNL1        0.2490
     24 O         -17.3814    0.9129   19.3556 O.2     1  UNL1       -0.2699
     25 C         -15.5805    3.7769   20.1761 C.3     1  UNL1        0.0233
     26 C         -15.4209    3.1233   18.8354 C.3     1  UNL1        0.0938
     27 C         -13.5571    1.3671   18.3971 C.3     1  UNL1        0.0938
     28 C         -13.0958    1.4550   16.9725 C.3     1  UNL1        0.0233
@<TRIPOS>BOND
     1    25    26    1
     2    26    22    1
     3    22    27    1
     4    27    28    1
     5    22    23   am
     6    23    24    2
     7    23    16    1
     8    16    17   ar
     9    17    18   ar
    10    18    19   ar
    11    19     1    1
    12     1     2    2
    13     2     3    1
    14     3     4    1
    15     4     5    1
    16     5     6    1
    17     6     7    1
    18     3     8    1
    19     8     9    1
    20     9    10   ar
    21    10    11   ar
    22    11    12   ar
    23    12    13   ar
    24    13    14   ar
    25    19    20   ar
    26    20    21   ar
    27    21    16   ar
    28    14     1    1
    29     7     3    1
    30    14     9   ar
    31     6    15    1
@<TRIPOS>MOLECULE
*****
 28 31 0 0 0
SMALL
GASTEIGER

@<TRIPOS>ATOM
      1 C           3.5568   -1.0046   21.5631 C.2     1  UNL1        0.0020
      2 C           3.9180   -1.3471   22.9781 C.2     1  UNL1        0.0143
      3 C           5.0514   -2.2896   23.2557 C.3     1  UNL1        0.1672
      4 C           6.1537   -3.2114   23.6859 C.3     1  UNL1        0.0628
      5 C           6.1572   -3.2619   25.1850 C.3     1  UNL1        0.0727
      6 N           5.0570   -2.3713   25.6814 N.3     1  UNL1       -0.2942
      7 C           4.3736   -1.7703   24.4890 C.3     1  UNL1        0.1135
      8 O           5.8236   -2.8897   22.1184 O.3     1  UNL1       -0.4771
      9 C           5.4624   -2.5472   20.7033 C.ar    1  UNL1        0.1386
     10 C           6.2347   -3.1473   19.5660 C.ar    1  UNL1        0.0369
     11 C           5.8735   -2.8048   18.1510 C.ar    1  UNL1        0.0031
     12 C           4.7402   -1.8623   17.8733 C.ar    1  UNL1        0.0002
     13 C           3.9679   -1.2622   19.0106 C.ar    1  UNL1        0.0030
     14 C           4.3290   -1.6046   20.4257 C.ar    1  UNL1        0.0338
     15 H           5.4472   -1.6319   26.2658 H       1  UNL1        0.1234
     16 C           0.1567    1.8231   20.7301 C.ar    1  UNL1        0.0536
     17 C           1.3901    2.3175   21.4262 C.ar    1  UNL1        0.0045
     18 C           2.5235    1.3750   21.7039 C.ar    1  UNL1        0.0001
     19 C           2.4235   -0.0620   21.2854 C.ar    1  UNL1       -0.0001
     20 C           1.1902   -0.5564   20.5894 C.ar    1  UNL1        0.0001
     21 C           0.0568    0.3861   20.3118 C.ar    1  UNL1        0.0045
     22 N          -1.0207    3.5254   19.1599 N.am    1  UNL1       -0.2761
     23 C          -0.9766    2.7657   20.4525 C.2     1  UNL1        0.2490
     24 O          -2.0659    2.9484   21.4674 O.2     1  UNL1       -0.2699
     25 C          -3.4179    3.9574   18.2561 C.3     1  UNL1        0.0233
     26 C          -2.1540    4.4680   18.8822 C.3     1  UNL1        0.0938
     27 C           0.0686    3.3426   18.1450 C.3     1  UNL1        0.0938
     28 C           1.1351    4.3865   17.9933 C.3     1  UNL1        0.0233
@<TRIPOS>BOND
     1    25    26    1
     2    26    22    1
     3    22    27    1
     4    27    28    1
     5    22    23   am
     6    23    24    2
     7    23    16    1
     8    16    17   ar
     9    17    18   ar
    10    18    19   ar
    11    19     1    1
    12     1     2    2
    13     2     3    1
    14     3     4    1
    15     4     5    1
    16     5     6    1
    17     6     7    1
    18     3     8    1
    19     8     9    1
    20     9    10   ar
    21    10    11   ar
    22    11    12   ar
    23    12    13   ar
    24    13    14   ar
    25    19    20   ar
    26    20    21   ar
    27    21    16   ar
    28    14     1    1
    29     7     3    1
    30    14     9   ar
    31     6    15    1
