@<TRIPOS>MOLECULE
*****
 31 33 0 0 0
SMALL
GASTEIGER

@<TRIPOS>ATOM
      1 C          -4.7445  -17.8243   22.4901 C.ar    1  UNL1        0.1329
      2 N          -3.2658  -17.7251   22.7212 N.ar    1  UNL1       -0.1993
      3 C          -2.3367  -18.7020   22.0634 C.ar    1  UNL1        0.2148
      4 N          -0.8579  -18.6028   22.2946 N.pl3   1  UNL1       -0.3274
      5 N          -2.8864  -19.7779   21.1745 N.ar    1  UNL1       -0.2139
      6 C          -4.3652  -19.8770   20.9434 C.ar    1  UNL1        0.0870
      7 C          -4.9149  -20.9530   20.0545 C.ar    1  UNL1        0.0193
      8 C          -6.3936  -21.0521   19.8233 C.ar    1  UNL1        0.0017
      9 C          -7.3227  -20.0753   20.4811 C.ar    1  UNL1        0.0047
     10 C          -6.7730  -18.9993   21.3700 C.ar    1  UNL1        0.0575
     11 C          -5.2943  -18.9002   21.6011 C.ar    1  UNL1        0.0535
     12 H          -0.4971  -17.8966   22.8780 H       1  UNL1        0.1452
     13 H          -0.2481  -19.2439   21.8629 H       1  UNL1        0.1452
     14 C          -7.7021  -18.0225   22.0278 C.2     1  UNL1        0.2462
     15 O          -7.9058  -16.6620   21.4299 O.2     1  UNL1       -0.2701
     16 N          -8.4274  -18.4062   23.2834 N.am    1  UNL1       -0.2987
     17 H          -8.2937  -19.2992   23.6758 H       1  UNL1        0.1500
     18 C          -9.3565  -17.4294   23.9412 C.3     1  UNL1        0.0944
     19 C          -8.8011  -16.2760   24.7231 C.3     1  UNL1        0.0262
     20 C         -10.8408  -17.6059   23.8170 C.ar    1  UNL1       -0.0045
     21 C         -11.6096  -16.8048   22.8084 C.ar    1  UNL1       -0.0027
     22 C         -13.0940  -16.9814   22.6843 C.ar    1  UNL1       -0.0003
     23 C         -13.8096  -17.9590   23.5688 C.ar    1  UNL1       -0.0000
     24 C         -13.0408  -18.7600   24.5774 C.ar    1  UNL1       -0.0003
     25 C         -11.5564  -18.5835   24.7015 C.ar    1  UNL1       -0.0027
     26 N          -5.6736  -16.8474   23.1478 N.pl3   1  UNL1       -0.3180
     27 H          -6.6456  -16.9241   23.0114 H       1  UNL1        0.1482
     28 C          -5.1218  -15.7538   24.0135 C.3     1  UNL1        0.0882
     29 C          -5.0915  -15.9202   25.5040 C.3     1  UNL1        0.0212
     30 C          -6.7575  -15.4558   27.4428 C.3     1  UNL1        0.0001
     31 C          -5.8253  -14.9502   26.3819 C.3     1  UNL1        0.0017
@<TRIPOS>BOND
     1    30    31    1
     2    31    29    1
     3    29    28    1
     4    28    26    1
     5    26     1    1
     6     1     2   ar
     7     2     3   ar
     8     3     4    1
     9     3     5   ar
    10     5     6   ar
    11     6     7   ar
    12     7     8   ar
    13     8     9   ar
    14     9    10   ar
    15    10    14    1
    16    14    15    2
    17    14    16   am
    18    16    18    1
    19    18    19    1
    20    18    20    1
    21    20    21   ar
    22    21    22   ar
    23    22    23   ar
    24    23    24   ar
    25    24    25   ar
    26    10    11   ar
    27    11     1   ar
    28    11     6   ar
    29    25    20   ar
    30    26    27    1
    31     4    12    1
    32     4    13    1
    33    16    17    1
@<TRIPOS>MOLECULE
*****
 31 33 0 0 0
SMALL
GASTEIGER

@<TRIPOS>ATOM
      1 C          -6.8737  -17.2008   23.3068 C.ar    1  UNL1        0.1329
      2 N          -6.7700  -16.0806   24.2989 N.ar    1  UNL1       -0.1993
      3 C          -5.4232  -15.6216   24.7737 C.ar    1  UNL1        0.2148
      4 N          -5.3195  -14.5014   25.7659 N.pl3   1  UNL1       -0.3274
      5 N          -4.1801  -16.2828   24.2564 N.ar    1  UNL1       -0.2139
      6 C          -4.2838  -17.4030   23.2642 C.ar    1  UNL1        0.0870
      7 C          -3.0408  -18.0642   22.7469 C.ar    1  UNL1        0.0193
      8 C          -3.1445  -19.1843   21.7547 C.ar    1  UNL1        0.0017
      9 C          -4.4913  -19.6433   21.2799 C.ar    1  UNL1        0.0047
     10 C          -5.7344  -18.9822   21.7972 C.ar    1  UNL1        0.0575
     11 C          -5.6306  -17.8620   22.7894 C.ar    1  UNL1        0.0535
     12 H          -6.1353  -14.0674   26.1055 H       1  UNL1        0.1452
     13 H          -4.4355  -14.2001   26.0776 H       1  UNL1        0.1452
     14 C          -7.0812  -19.4412   21.3224 C.2     1  UNL1        0.2462
     15 O          -7.9019  -20.3644   22.1733 O.2     1  UNL1       -0.2701
     16 N          -7.6073  -18.9770   19.9966 N.am    1  UNL1       -0.2987
     17 H          -7.0686  -18.3710   19.4381 H       1  UNL1        0.1500
     18 C          -8.9541  -19.4360   19.5218 C.3     1  UNL1        0.0944
     19 C          -9.0556  -20.4623   18.4325 C.3     1  UNL1        0.0262
     20 C         -10.1993  -18.8688   20.1362 C.ar    1  UNL1       -0.0045
     21 C         -10.9934  -19.6856   21.1120 C.ar    1  UNL1       -0.0027
     22 C         -12.2386  -19.1184   21.7264 C.ar    1  UNL1       -0.0003
     23 C         -12.6899  -17.7342   21.3650 C.ar    1  UNL1       -0.0000
     24 C         -11.8959  -16.9174   20.3892 C.ar    1  UNL1       -0.0003
     25 C         -10.6505  -17.4847   19.7748 C.ar    1  UNL1       -0.0027
     26 N          -8.2205  -17.6598   22.8319 N.pl3   1  UNL1       -0.3180
     27 H          -8.2916  -18.4304   22.2233 H       1  UNL1        0.1482
     28 C          -9.4590  -16.9448   23.2843 C.3     1  UNL1        0.0882
     29 C         -10.3711  -17.5861   24.2878 C.3     1  UNL1        0.0212
     30 C         -10.2022  -20.1369   24.7514 C.3     1  UNL1        0.0001
     31 C          -9.8763  -18.7231   25.1320 C.3     1  UNL1        0.0017
@<TRIPOS>BOND
     1    30    31    1
     2    31    29    1
     3    29    28    1
     4    28    26    1
     5    26     1    1
     6     1     2   ar
     7     2     3   ar
     8     3     4    1
     9     3     5   ar
    10     5     6   ar
    11     6     7   ar
    12     7     8   ar
    13     8     9   ar
    14     9    10   ar
    15    10    14    1
    16    14    15    2
    17    14    16   am
    18    16    18    1
    19    18    19    1
    20    18    20    1
    21    20    21   ar
    22    21    22   ar
    23    22    23   ar
    24    23    24   ar
    25    24    25   ar
    26    10    11   ar
    27    11     1   ar
    28    11     6   ar
    29    25    20   ar
    30    26    27    1
    31     4    12    1
    32     4    13    1
    33    16    17    1
@<TRIPOS>MOLECULE
*****
 31 33 0 0 0
SMALL
GASTEIGER

@<TRIPOS>ATOM
      1 C          -9.4073  -17.9241   23.6912 C.ar    1  UNL1        0.1329
      2 N         -10.5596  -17.9599   24.6508 N.ar    1  UNL1       -0.1993
      3 C         -11.8423  -18.6309   24.2580 C.ar    1  UNL1        0.2148
      4 N         -12.9946  -18.6666   25.2177 N.pl3   1  UNL1       -0.3274
      5 N         -11.9727  -19.2661   22.9054 N.ar    1  UNL1       -0.2139
      6 C         -10.8205  -19.2304   21.9457 C.ar    1  UNL1        0.0870
      7 C         -10.9509  -19.8657   20.5932 C.ar    1  UNL1        0.0193
      8 C          -9.7987  -19.8299   19.6335 C.ar    1  UNL1        0.0017
      9 C          -8.5159  -19.1589   20.0264 C.ar    1  UNL1        0.0047
     10 C          -8.3855  -18.5236   21.3789 C.ar    1  UNL1        0.0575
     11 C          -9.5377  -18.5594   22.3386 C.ar    1  UNL1        0.0535
     12 H         -12.9089  -18.2497   26.1054 H       1  UNL1        0.1452
     13 H         -13.8365  -19.1071   24.9599 H       1  UNL1        0.1452
     14 C          -7.1028  -17.8526   21.7718 C.2     1  UNL1        0.2462
     15 O          -7.0146  -16.3553   21.7901 O.2     1  UNL1       -0.2701
     16 N          -5.9082  -18.6788   22.1464 N.am    1  UNL1       -0.2987
     17 H          -5.9661  -19.6615   22.1343 H       1  UNL1        0.1500
     18 C          -4.6255  -18.0078   22.5392 C.3     1  UNL1        0.0944
     19 C          -4.4700  -17.4351   23.9169 C.3     1  UNL1        0.0262
     20 C          -3.4983  -17.9094   21.5545 C.ar    1  UNL1       -0.0045
     21 C          -2.3802  -16.9374   21.7891 C.ar    1  UNL1       -0.0027
     22 C          -1.2530  -16.8390   20.8043 C.ar    1  UNL1       -0.0003
     23 C          -1.2440  -17.7125   19.5849 C.ar    1  UNL1       -0.0000
     24 C          -2.3621  -18.6845   19.3503 C.ar    1  UNL1       -0.0003
     25 C          -3.4893  -18.7829   20.3352 C.ar    1  UNL1       -0.0027
     26 N          -8.1246  -17.2531   24.0841 N.pl3   1  UNL1       -0.3180
     27 H          -7.2617  -17.6555   23.8336 H       1  UNL1        0.1482
     28 C          -8.1565  -15.9689   24.8585 C.3     1  UNL1        0.0882
     29 C          -8.1135  -15.9958   26.3576 C.3     1  UNL1        0.0212
     30 C          -5.6778  -15.0918   26.3437 C.3     1  UNL1        0.0001
     31 C          -6.8257  -15.7211   27.0761 C.3     1  UNL1        0.0017
@<TRIPOS>BOND
     1    30    31    1
     2    31    29    1
     3    29    28    1
     4    28    26    1
     5    26     1    1
     6     1     2   ar
     7     2     3   ar
     8     3     4    1
     9     3     5   ar
    10     5     6   ar
    11     6     7   ar
    12     7     8   ar
    13     8     9   ar
    14     9    10   ar
    15    10    14    1
    16    14    15    2
    17    14    16   am
    18    16    18    1
    19    18    19    1
    20    18    20    1
    21    20    21   ar
    22    21    22   ar
    23    22    23   ar
    24    23    24   ar
    25    24    25   ar
    26    10    11   ar
    27    11     1   ar
    28    11     6   ar
    29    25    20   ar
    30    26    27    1
    31     4    12    1
    32     4    13    1
    33    16    17    1
@<TRIPOS>MOLECULE
*****
 31 33 0 0 0
SMALL
GASTEIGER

@<TRIPOS>ATOM
      1 C          -9.8935  -18.6029   21.9474 C.ar    1  UNL1        0.1329
      2 N         -11.3770  -18.8058   22.0362 N.ar    1  UNL1       -0.1993
      3 C         -12.1803  -18.0368   23.0428 C.ar    1  UNL1        0.2148
      4 N         -13.6639  -18.2397   23.1315 N.pl3   1  UNL1       -0.3274
      5 N         -11.5001  -17.0648   23.9606 N.ar    1  UNL1       -0.2139
      6 C         -10.0165  -16.8618   23.8719 C.ar    1  UNL1        0.0870
      7 C          -9.3362  -15.8898   24.7897 C.ar    1  UNL1        0.0193
      8 C          -7.8527  -15.6869   24.7009 C.ar    1  UNL1        0.0017
      9 C          -7.0494  -16.4560   23.6943 C.ar    1  UNL1        0.0047
     10 C          -7.7296  -17.4280   22.7765 C.ar    1  UNL1        0.0575
     11 C          -9.2132  -17.6309   22.8653 C.ar    1  UNL1        0.0535
     12 H         -14.1104  -18.8777   22.5291 H       1  UNL1        0.1452
     13 H         -14.1912  -17.7350   23.7921 H       1  UNL1        0.1452
     14 C          -6.9263  -18.1970   21.7699 C.2     1  UNL1        0.2462
     15 O          -6.9897  -17.8257   20.3180 O.2     1  UNL1       -0.2701
     16 N          -6.0597  -19.3375   22.2152 N.am    1  UNL1       -0.2987
     17 H          -6.0182  -19.5812   23.1681 H       1  UNL1        0.1500
     18 C          -5.2564  -20.1066   21.2086 C.3     1  UNL1        0.0944
     19 C          -5.7957  -21.3843   20.6369 C.3     1  UNL1        0.0262
     20 C          -3.9140  -19.5980   20.7738 C.ar    1  UNL1       -0.0045
     21 C          -2.7490  -19.6545   21.7170 C.ar    1  UNL1       -0.0027
     22 C          -1.4066  -19.1460   21.2822 C.ar    1  UNL1       -0.0003
     23 C          -1.2290  -18.5809   19.9040 C.ar    1  UNL1       -0.0000
     24 C          -2.3939  -18.5245   18.9607 C.ar    1  UNL1       -0.0003
     25 C          -3.7365  -19.0330   19.3957 C.ar    1  UNL1       -0.0027
     26 N          -9.0902  -19.3720   20.9408 N.pl3   1  UNL1       -0.3180
     27 H          -8.1667  -19.6414   21.1501 H       1  UNL1        0.1482
     28 C          -9.6939  -19.7306   19.6154 C.3     1  UNL1        0.0882
     29 C          -8.8084  -20.1142   18.4670 C.3     1  UNL1        0.0212
     30 C          -9.3660  -21.4535   16.3117 C.3     1  UNL1        0.0001
     31 C          -9.0116  -21.4263   17.7690 C.3     1  UNL1        0.0017
@<TRIPOS>BOND
     1    30    31    1
     2    31    29    1
     3    29    28    1
     4    28    26    1
     5    26     1    1
     6     1     2   ar
     7     2     3   ar
     8     3     4    1
     9     3     5   ar
    10     5     6   ar
    11     6     7   ar
    12     7     8   ar
    13     8     9   ar
    14     9    10   ar
    15    10    14    1
    16    14    15    2
    17    14    16   am
    18    16    18    1
    19    18    19    1
    20    18    20    1
    21    20    21   ar
    22    21    22   ar
    23    22    23   ar
    24    23    24   ar
    25    24    25   ar
    26    10    11   ar
    27    11     1   ar
    28    11     6   ar
    29    25    20   ar
    30    26    27    1
    31     4    12    1
    32     4    13    1
    33    16    17    1
@<TRIPOS>MOLECULE
*****
 31 33 0 0 0
SMALL
GASTEIGER

@<TRIPOS>ATOM
      1 C          -8.7929  -17.4830   22.3791 C.ar    1  UNL1        0.1329
      2 N          -9.8314  -16.5493   22.9265 N.ar    1  UNL1       -0.1993
      3 C         -11.1784  -16.4593   22.2725 C.ar    1  UNL1        0.2148
      4 N         -12.2170  -15.5255   22.8200 N.pl3   1  UNL1       -0.3274
      5 N         -11.4868  -17.3030   21.0713 N.ar    1  UNL1       -0.2139
      6 C         -10.4483  -18.2367   20.5239 C.ar    1  UNL1        0.0870
      7 C         -10.7567  -19.0804   19.3226 C.ar    1  UNL1        0.0193
      8 C          -9.7182  -20.0141   18.7753 C.ar    1  UNL1        0.0017
      9 C          -8.3712  -20.1041   19.4292 C.ar    1  UNL1        0.0047
     10 C          -8.0628  -19.2604   20.6305 C.ar    1  UNL1        0.0575
     11 C          -9.1013  -18.3267   21.1778 C.ar    1  UNL1        0.0535
     12 H         -12.0145  -14.9718   23.6084 H       1  UNL1        0.1452
     13 H         -13.1010  -15.4665   22.3908 H       1  UNL1        0.1452
     14 C          -6.7158  -19.3504   21.2844 C.2     1  UNL1        0.2462
     15 O          -6.5121  -20.2594   22.4601 O.2     1  UNL1       -0.2701
     16 N          -5.5726  -18.5315   20.7626 N.am    1  UNL1       -0.2987
     17 H          -5.7063  -17.9349   19.9909 H       1  UNL1        0.1500
     18 C          -4.2256  -18.6215   21.4165 C.3     1  UNL1        0.0944
     19 C          -4.1182  -19.0041   22.8630 C.3     1  UNL1        0.0262
     20 C          -2.9861  -18.3290   20.6240 C.ar    1  UNL1       -0.0045
     21 C          -3.0724  -18.1435   19.1380 C.ar    1  UNL1       -0.0027
     22 C          -1.8329  -17.8510   18.3456 C.ar    1  UNL1       -0.0003
     23 C          -0.5070  -17.7440   19.0391 C.ar    1  UNL1       -0.0000
     24 C          -0.4208  -17.9296   20.5250 C.ar    1  UNL1       -0.0003
     25 C          -1.6604  -18.2221   21.3175 C.ar    1  UNL1       -0.0027
     26 N          -7.4459  -17.5730   23.0330 N.pl3   1  UNL1       -0.3180
     27 H          -7.0357  -18.4530   23.1961 H       1  UNL1        0.1482
     28 C          -6.7240  -16.3223   23.4385 C.3     1  UNL1        0.0882
     29 C          -7.1438  -15.5807   24.6729 C.3     1  UNL1        0.0212
     30 C          -6.6493  -15.5123   27.2226 C.3     1  UNL1        0.0001
     31 C          -6.1755  -15.3984   25.8040 C.3     1  UNL1        0.0017
@<TRIPOS>BOND
     1    30    31    1
     2    31    29    1
     3    29    28    1
     4    28    26    1
     5    26     1    1
     6     1     2   ar
     7     2     3   ar
     8     3     4    1
     9     3     5   ar
    10     5     6   ar
    11     6     7   ar
    12     7     8   ar
    13     8     9   ar
    14     9    10   ar
    15    10    14    1
    16    14    15    2
    17    14    16   am
    18    16    18    1
    19    18    19    1
    20    18    20    1
    21    20    21   ar
    22    21    22   ar
    23    22    23   ar
    24    23    24   ar
    25    24    25   ar
    26    10    11   ar
    27    11     1   ar
    28    11     6   ar
    29    25    20   ar
    30    26    27    1
    31     4    12    1
    32     4    13    1
    33    16    17    1
@<TRIPOS>MOLECULE
*****
 31 33 0 0 0
SMALL
GASTEIGER

@<TRIPOS>ATOM
      1 C          -6.6154  -17.2149   23.2415 C.ar    1  UNL1        0.1329
      2 N          -5.2404  -17.4281   22.6813 N.ar    1  UNL1       -0.1993
      3 C          -4.0451  -16.8672   23.3931 C.ar    1  UNL1        0.2148
      4 N          -2.6701  -17.0804   22.8328 N.pl3   1  UNL1       -0.3274
      5 N          -4.2249  -16.0930   24.6652 N.ar    1  UNL1       -0.2139
      6 C          -5.5999  -15.8797   25.2255 C.ar    1  UNL1        0.0870
      7 C          -5.7797  -15.1055   26.4976 C.ar    1  UNL1        0.0193
      8 C          -7.1546  -14.8923   27.0579 C.ar    1  UNL1        0.0017
      9 C          -8.3499  -15.4533   26.3460 C.ar    1  UNL1        0.0047
     10 C          -8.1701  -16.2275   25.0739 C.ar    1  UNL1        0.0575
     11 C          -6.7952  -16.4407   24.5137 C.ar    1  UNL1        0.0535
     12 H          -2.5521  -17.5885   21.9978 H       1  UNL1        0.1452
     13 H          -1.8856  -16.7122   23.3000 H       1  UNL1        0.1452
     14 C          -9.3654  -16.7885   24.3621 C.2     1  UNL1        0.2462
     15 O          -9.8429  -18.1753   24.6764 O.2     1  UNL1       -0.2701
     16 N         -10.0831  -15.9627   23.3360 N.am    1  UNL1       -0.2987
     17 H          -9.7697  -15.0525   23.1297 H       1  UNL1        0.1500
     18 C         -11.2783  -16.5237   22.6242 C.3     1  UNL1        0.0944
     19 C         -12.6336  -15.9194   22.8432 C.3     1  UNL1        0.0262
     20 C         -11.1183  -17.6890   21.6934 C.ar    1  UNL1       -0.0045
     21 C         -10.6845  -17.4623   20.2755 C.ar    1  UNL1       -0.0027
     22 C         -10.5245  -18.6276   19.3447 C.ar    1  UNL1       -0.0003
     23 C         -10.7982  -20.0197   19.8318 C.ar    1  UNL1       -0.0000
     24 C         -11.2319  -20.2464   21.2497 C.ar    1  UNL1       -0.0003
     25 C         -11.3920  -19.0810   22.1805 C.ar    1  UNL1       -0.0027
     26 N          -7.8106  -17.7759   22.5297 N.pl3   1  UNL1       -0.3180
     27 H          -8.6184  -17.2251   22.4146 H       1  UNL1        0.1482
     28 C          -7.7751  -19.1762   21.9931 C.3     1  UNL1        0.0882
     29 C          -7.1287  -19.4557   20.6687 C.3     1  UNL1        0.0212
     30 C          -4.7123  -20.2885   20.2023 C.3     1  UNL1        0.0001
     31 C          -6.1450  -20.5805   20.5367 C.3     1  UNL1        0.0017
@<TRIPOS>BOND
     1    30    31    1
     2    31    29    1
     3    29    28    1
     4    28    26    1
     5    26     1    1
     6     1     2   ar
     7     2     3   ar
     8     3     4    1
     9     3     5   ar
    10     5     6   ar
    11     6     7   ar
    12     7     8   ar
    13     8     9   ar
    14     9    10   ar
    15    10    14    1
    16    14    15    2
    17    14    16   am
    18    16    18    1
    19    18    19    1
    20    18    20    1
    21    20    21   ar
    22    21    22   ar
    23    22    23   ar
    24    23    24   ar
    25    24    25   ar
    26    10    11   ar
    27    11     1   ar
    28    11     6   ar
    29    25    20   ar
    30    26    27    1
    31     4    12    1
    32     4    13    1
    33    16    17    1
@<TRIPOS>MOLECULE
*****
 31 33 0 0 0
SMALL
GASTEIGER

@<TRIPOS>ATOM
      1 C          -5.6352  -19.1878   21.6985 C.ar    1  UNL1        0.1329
      2 N          -4.4440  -19.9561   21.2078 N.ar    1  UNL1       -0.1993
      3 C          -3.0648  -19.5625   21.6469 C.ar    1  UNL1        0.2148
      4 N          -1.8736  -20.3309   21.1561 N.pl3   1  UNL1       -0.3274
      5 N          -2.8767  -18.4006   22.5767 N.ar    1  UNL1       -0.2139
      6 C          -4.0679  -17.6322   23.0674 C.ar    1  UNL1        0.0870
      7 C          -3.8798  -16.4703   23.9972 C.ar    1  UNL1        0.0193
      8 C          -5.0709  -15.7020   24.4879 C.ar    1  UNL1        0.0017
      9 C          -6.4501  -16.0956   24.0488 C.ar    1  UNL1        0.0047
     10 C          -6.6382  -17.2575   23.1190 C.ar    1  UNL1        0.0575
     11 C          -5.4471  -18.0258   22.6283 C.ar    1  UNL1        0.0535
     12 H          -1.9971  -21.0936   20.5459 H       1  UNL1        0.1452
     13 H          -0.9684  -20.0726   21.4443 H       1  UNL1        0.1452
     14 C          -8.0175  -17.6511   22.6799 C.2     1  UNL1        0.2462
     15 O          -8.5834  -17.1026   21.4037 O.2     1  UNL1       -0.2701
     16 N          -8.8308  -18.5932   23.5171 N.am    1  UNL1       -0.2987
     17 H          -8.4594  -18.9532   24.3547 H       1  UNL1        0.1500
     18 C         -10.2101  -18.9868   23.0780 C.3     1  UNL1        0.0944
     19 C         -10.7445  -20.3474   23.4144 C.3     1  UNL1        0.0262
     20 C         -11.0548  -18.0198   22.3026 C.ar    1  UNL1       -0.0045
     21 C         -11.2188  -18.1876   20.8211 C.ar    1  UNL1       -0.0027
     22 C         -12.0635  -17.2207   20.0456 C.ar    1  UNL1       -0.0003
     23 C         -12.7444  -16.0858   20.7518 C.ar    1  UNL1       -0.0000
     24 C         -12.5804  -15.9179   22.2333 C.ar    1  UNL1       -0.0003
     25 C         -11.7356  -16.8850   23.0087 C.ar    1  UNL1       -0.0027
     26 N          -7.0144  -19.5814   21.2594 N.pl3   1  UNL1       -0.3180
     27 H          -7.7730  -19.4919   21.8805 H       1  UNL1        0.1482
     28 C          -7.2378  -20.1113   19.8741 C.3     1  UNL1        0.0882
     29 C          -8.4339  -19.6675   19.0851 C.3     1  UNL1        0.0212
     30 C          -8.5270  -21.9739   17.8925 C.3     1  UNL1        0.0001
     31 C          -9.1427  -20.6383   18.1877 C.3     1  UNL1        0.0017
@<TRIPOS>BOND
     1    30    31    1
     2    31    29    1
     3    29    28    1
     4    28    26    1
     5    26     1    1
     6     1     2   ar
     7     2     3   ar
     8     3     4    1
     9     3     5   ar
    10     5     6   ar
    11     6     7   ar
    12     7     8   ar
    13     8     9   ar
    14     9    10   ar
    15    10    14    1
    16    14    15    2
    17    14    16   am
    18    16    18    1
    19    18    19    1
    20    18    20    1
    21    20    21   ar
    22    21    22   ar
    23    22    23   ar
    24    23    24   ar
    25    24    25   ar
    26    10    11   ar
    27    11     1   ar
    28    11     6   ar
    29    25    20   ar
    30    26    27    1
    31     4    12    1
    32     4    13    1
    33    16    17    1
@<TRIPOS>MOLECULE
*****
 31 33 0 0 0
SMALL
GASTEIGER

@<TRIPOS>ATOM
      1 C          -5.4300  -18.0712   22.4085 C.ar    1  UNL1        0.1329
      2 N          -4.3269  -17.0936   22.6865 N.ar    1  UNL1       -0.1993
      3 C          -2.9841  -17.2751   22.0431 C.ar    1  UNL1        0.2148
      4 N          -1.8809  -16.2974   22.3210 N.pl3   1  UNL1       -0.3274
      5 N          -2.7444  -18.4342   21.1217 N.ar    1  UNL1       -0.2139
      6 C          -3.8476  -19.4119   20.8437 C.ar    1  UNL1        0.0870
      7 C          -3.6080  -20.5711   19.9224 C.ar    1  UNL1        0.0193
      8 C          -4.7111  -21.5487   19.6444 C.ar    1  UNL1        0.0017
      9 C          -6.0539  -21.3672   20.2878 C.ar    1  UNL1        0.0047
     10 C          -6.2935  -20.2080   21.2092 C.ar    1  UNL1        0.0575
     11 C          -5.1904  -19.2304   21.4871 C.ar    1  UNL1        0.0535
     12 H          -2.0382  -15.5366   22.9258 H       1  UNL1        0.1452
     13 H          -0.9996  -16.4165   21.8988 H       1  UNL1        0.1452
     14 C          -7.6363  -20.0265   21.8526 C.2     1  UNL1        0.2462
     15 O          -7.8513  -20.4559   23.2736 O.2     1  UNL1       -0.2701
     16 N          -8.7642  -19.4156   21.0750 N.am    1  UNL1       -0.2987
     17 H          -8.6231  -19.1337   20.1423 H       1  UNL1        0.1500
     18 C         -10.1069  -19.2341   21.7184 C.3     1  UNL1        0.0944
     19 C         -10.6087  -20.2463   22.7052 C.3     1  UNL1        0.0262
     20 C         -10.9479  -18.0404   21.3750 C.ar    1  UNL1       -0.0045
     21 C         -10.9833  -17.5283   19.9656 C.ar    1  UNL1       -0.0027
     22 C         -11.8243  -16.3347   19.6222 C.ar    1  UNL1       -0.0003
     23 C         -12.6300  -15.6531   20.6883 C.ar    1  UNL1       -0.0000
     24 C         -12.5945  -16.1652   22.0978 C.ar    1  UNL1       -0.0003
     25 C         -11.7535  -17.3589   22.4411 C.ar    1  UNL1       -0.0027
     26 N          -6.7728  -17.8897   23.0519 N.pl3   1  UNL1       -0.3180
     27 H          -7.3181  -18.6760   23.2834 H       1  UNL1        0.1482
     28 C          -7.2848  -16.5101   23.3427 C.3     1  UNL1        0.0882
     29 C          -8.5752  -16.3302   24.0859 C.3     1  UNL1        0.0212
     30 C          -7.2691  -15.5597   26.1955 C.3     1  UNL1        0.0001
     31 C          -8.5583  -15.9538   25.5379 C.3     1  UNL1        0.0017
@<TRIPOS>BOND
     1    30    31    1
     2    31    29    1
     3    29    28    1
     4    28    26    1
     5    26     1    1
     6     1     2   ar
     7     2     3   ar
     8     3     4    1
     9     3     5   ar
    10     5     6   ar
    11     6     7   ar
    12     7     8   ar
    13     8     9   ar
    14     9    10   ar
    15    10    14    1
    16    14    15    2
    17    14    16   am
    18    16    18    1
    19    18    19    1
    20    18    20    1
    21    20    21   ar
    22    21    22   ar
    23    22    23   ar
    24    23    24   ar
    25    24    25   ar
    26    10    11   ar
    27    11     1   ar
    28    11     6   ar
    29    25    20   ar
    30    26    27    1
    31     4    12    1
    32     4    13    1
    33    16    17    1
@<TRIPOS>MOLECULE
*****
 31 33 0 0 0
SMALL
GASTEIGER

@<TRIPOS>ATOM
      1 C          -6.3501  -18.9370   21.5062 C.ar    1  UNL1        0.1329
      2 N          -6.2083  -20.1225   20.5981 N.ar    1  UNL1       -0.1993
      3 C          -4.8496  -20.6907   20.3133 C.ar    1  UNL1        0.2148
      4 N          -4.7078  -21.8762   19.4052 N.pl3   1  UNL1       -0.3274
      5 N          -3.6328  -20.0736   20.9366 N.ar    1  UNL1       -0.2139
      6 C          -3.7746  -18.8881   21.8447 C.ar    1  UNL1        0.0870
      7 C          -2.5578  -18.2710   22.4680 C.ar    1  UNL1        0.0193
      8 C          -2.6997  -17.0856   23.3760 C.ar    1  UNL1        0.0017
      9 C          -4.0584  -16.5173   23.6608 C.ar    1  UNL1        0.0047
     10 C          -5.2752  -17.1344   23.0376 C.ar    1  UNL1        0.0575
     11 C          -5.1333  -18.3198   22.1295 C.ar    1  UNL1        0.0535
     12 H          -5.5064  -22.2812   18.9961 H       1  UNL1        0.1452
     13 H          -3.8160  -22.2492   19.2182 H       1  UNL1        0.1452
     14 C          -6.6338  -16.5662   23.3224 C.2     1  UNL1        0.2462
     15 O          -7.2804  -15.6384   22.3369 O.2     1  UNL1       -0.2701
     16 N          -7.3460  -16.9257   24.5926 N.am    1  UNL1       -0.2987
     17 H          -6.9216  -17.5347   25.2394 H       1  UNL1        0.1500
     18 C          -8.7046  -16.3574   24.8774 C.3     1  UNL1        0.0944
     19 C          -8.8379  -15.1038   25.6902 C.3     1  UNL1        0.0262
     20 C          -9.9300  -17.0428   24.3494 C.ar    1  UNL1       -0.0045
     21 C         -10.2758  -18.4256   24.8164 C.ar    1  UNL1       -0.0027
     22 C         -11.5012  -19.1110   24.2884 C.ar    1  UNL1       -0.0003
     23 C         -12.3807  -18.4134   23.2934 C.ar    1  UNL1       -0.0000
     24 C         -12.0349  -17.0306   22.8265 C.ar    1  UNL1       -0.0003
     25 C         -10.8094  -16.3452   23.3545 C.ar    1  UNL1       -0.0027
     26 N          -7.7088  -18.3688   21.7910 N.pl3   1  UNL1       -0.3180
     27 H          -7.7936  -17.4790   22.2036 H       1  UNL1        0.1482
     28 C          -8.9382  -19.1562   21.4471 C.3     1  UNL1        0.0882
     29 C          -9.4334  -19.1936   20.0316 C.3     1  UNL1        0.0212
     30 C         -11.1587  -17.2818   19.6868 C.3     1  UNL1        0.0001
     31 C         -10.8289  -18.7449   19.7132 C.3     1  UNL1        0.0017
@<TRIPOS>BOND
     1    30    31    1
     2    31    29    1
     3    29    28    1
     4    28    26    1
     5    26     1    1
     6     1     2   ar
     7     2     3   ar
     8     3     4    1
     9     3     5   ar
    10     5     6   ar
    11     6     7   ar
    12     7     8   ar
    13     8     9   ar
    14     9    10   ar
    15    10    14    1
    16    14    15    2
    17    14    16   am
    18    16    18    1
    19    18    19    1
    20    18    20    1
    21    20    21   ar
    22    21    22   ar
    23    22    23   ar
    24    23    24   ar
    25    24    25   ar
    26    10    11   ar
    27    11     1   ar
    28    11     6   ar
    29    25    20   ar
    30    26    27    1
    31     4    12    1
    32     4    13    1
    33    16    17    1
