@<TRIPOS>MOLECULE
*****
 24 26 0 0 0
SMALL
GASTEIGER

@<TRIPOS>ATOM
      1 C         -11.8150  -17.9106   22.6308 C.ar    1  UNL1        0.0030
      2 C         -12.3929  -17.0044   21.5845 C.ar    1  UNL1        0.0795
      3 C         -11.6373  -16.7473   20.3145 C.ar    1  UNL1        0.3456
      4 O         -12.2153  -15.8411   19.2682 O.2     1  UNL1       -0.2445
      5 O         -10.3036  -17.3964   20.0908 O.2     1  UNL1       -0.4209
      6 C          -9.7256  -18.3026   21.1372 C.ar    1  UNL1        0.1514
      7 C          -8.3919  -18.9516   20.9135 C.ar    1  UNL1        0.0745
      8 C          -7.8140  -19.8578   21.9598 C.ar    1  UNL1        0.1421
      9 C          -8.5697  -20.1149   23.2298 C.ar    1  UNL1        0.0371
     10 C          -9.9033  -19.4658   23.4534 C.ar    1  UNL1        0.0059
     11 C         -10.4813  -18.5597   22.4071 C.ar    1  UNL1        0.0324
     12 C         -12.5707  -18.1677   23.9007 C.3     1  UNL1        0.0960
     13 C         -14.8335  -18.4506   25.1455 C.3     1  UNL1        0.0861
     14 N         -14.0659  -18.0496   23.9208 N.3     1  UNL1       -0.2926
     15 H         -14.2863  -17.0698   23.7428 H       1  UNL1        0.1236
     16 O          -6.4803  -20.5069   21.7362 O.3     1  UNL1       -0.4705
     17 C          -5.6932  -20.1961   20.4977 C.3     1  UNL1        0.2320
     18 C          -4.3343  -19.5709   20.6098 C.ar    1  UNL1        0.0220
     19 C          -3.6190  -19.5627   21.9283 C.ar    1  UNL1       -0.0006
     20 C          -2.2601  -18.9374   22.0404 C.ar    1  UNL1        0.0007
     21 C          -1.6165  -18.3205   20.8341 C.ar    1  UNL1        0.0114
     22 C          -2.3319  -18.3287   19.5157 C.ar    1  UNL1        0.0575
     23 CL         -1.6883  -17.7117   18.3094 Cl      1  UNL1       -0.0823
     24 C          -3.6907  -18.9539   19.4035 C.ar    1  UNL1        0.0107
@<TRIPOS>BOND
     1    13    14    1
     2    14    12    1
     3    12     1    1
     4     1     2   ar
     5     2     3   ar
     6     3     4    2
     7     3     5   ar
     8     5     6   ar
     9     6     7   ar
    10     7     8   ar
    11     8    16    1
    12    16    17    1
    13    17    18    1
    14    18    19   ar
    15    19    20   ar
    16    20    21   ar
    17    21    22   ar
    18    22    23    1
    19    22    24   ar
    20     8     9   ar
    21     9    10   ar
    22    10    11   ar
    23    11     1   ar
    24    11     6   ar
    25    24    18   ar
    26    14    15    1
@<TRIPOS>MOLECULE
*****
 24 26 0 0 0
SMALL
GASTEIGER

@<TRIPOS>ATOM
      1 C         -11.6952  -17.4125   22.7461 C.ar    1  UNL1        0.0030
      2 C         -12.4576  -17.0367   21.5101 C.ar    1  UNL1        0.0795
      3 C         -11.7992  -16.2111   20.4448 C.ar    1  UNL1        0.3456
      4 O         -12.5616  -15.8353   19.2088 O.2     1  UNL1       -0.2445
      5 O         -10.3785  -15.7613   20.6154 O.2     1  UNL1       -0.4209
      6 C          -9.6160  -16.1371   21.8514 C.ar    1  UNL1        0.1514
      7 C          -8.1953  -15.6873   22.0220 C.ar    1  UNL1        0.0745
      8 C          -7.4330  -16.0631   23.2579 C.ar    1  UNL1        0.1421
      9 C          -8.0914  -16.8887   24.3233 C.ar    1  UNL1        0.0371
     10 C          -9.5121  -17.3385   24.1527 C.ar    1  UNL1        0.0059
     11 C         -10.2744  -16.9627   22.9167 C.ar    1  UNL1        0.0324
     12 C         -12.3536  -18.2381   23.8114 C.3     1  UNL1        0.0960
     13 C         -14.3612  -18.4362   25.4486 C.3     1  UNL1        0.0861
     14 N         -13.8138  -18.0586   24.1041 N.3     1  UNL1       -0.2926
     15 H         -14.0218  -17.0693   23.9687 H       1  UNL1        0.1236
     16 O          -6.0122  -15.6133   23.4286 O.3     1  UNL1       -0.4705
     17 C          -4.9871  -16.5594   23.9801 C.3     1  UNL1        0.2320
     18 C          -4.3623  -17.5912   23.0886 C.ar    1  UNL1        0.0220
     19 C          -2.8718  -17.6402   22.9279 C.ar    1  UNL1       -0.0006
     20 C          -2.2470  -18.6721   22.0363 C.ar    1  UNL1        0.0007
     21 C          -3.1128  -19.6550   21.3055 C.ar    1  UNL1        0.0114
     22 C          -4.6034  -19.6061   21.4661 C.ar    1  UNL1        0.0575
     23 CL         -5.4692  -20.5890   20.7353 Cl      1  UNL1       -0.0823
     24 C          -5.2281  -18.5742   22.3577 C.ar    1  UNL1        0.0107
@<TRIPOS>BOND
     1    13    14    1
     2    14    12    1
     3    12     1    1
     4     1     2   ar
     5     2     3   ar
     6     3     4    2
     7     3     5   ar
     8     5     6   ar
     9     6     7   ar
    10     7     8   ar
    11     8    16    1
    12    16    17    1
    13    17    18    1
    14    18    19   ar
    15    19    20   ar
    16    20    21   ar
    17    21    22   ar
    18    22    23    1
    19    22    24   ar
    20     8     9   ar
    21     9    10   ar
    22    10    11   ar
    23    11     1   ar
    24    11     6   ar
    25    24    18   ar
    26    14    15    1
@<TRIPOS>MOLECULE
*****
 24 26 0 0 0
SMALL
GASTEIGER

@<TRIPOS>ATOM
      1 C         -10.9467  -17.2764   21.8510 C.ar    1  UNL1        0.0030
      2 C         -10.7597  -16.4288   23.0743 C.ar    1  UNL1        0.0795
      3 C          -9.4215  -16.3712   23.7494 C.ar    1  UNL1        0.3456
      4 O          -9.2345  -15.5235   24.9728 O.2     1  UNL1       -0.2445
      5 O          -8.2703  -17.1612   23.2013 O.2     1  UNL1       -0.4209
      6 C          -8.4572  -18.0089   21.9779 C.ar    1  UNL1        0.1514
      7 C          -7.3060  -18.7989   21.4298 C.ar    1  UNL1        0.0745
      8 C          -7.4930  -19.6466   20.2065 C.ar    1  UNL1        0.1421
      9 C          -8.8312  -19.7042   19.5314 C.ar    1  UNL1        0.0371
     10 C          -9.9824  -18.9142   20.0795 C.ar    1  UNL1        0.0059
     11 C          -9.7954  -18.0665   21.3028 C.ar    1  UNL1        0.0324
     12 C         -12.2849  -17.3341   21.1758 C.3     1  UNL1        0.0960
     13 C         -11.5448  -15.6295   19.3602 C.3     1  UNL1        0.0861
     14 N         -12.6338  -16.3321   20.1155 N.3     1  UNL1       -0.2926
     15 H         -13.2033  -16.8207   19.4246 H       1  UNL1        0.1236
     16 O          -6.3417  -20.4367   19.6583 O.3     1  UNL1       -0.4705
     17 C          -5.1854  -20.7913   20.5456 C.3     1  UNL1        0.2320
     18 C          -3.9930  -19.8846   20.6220 C.ar    1  UNL1        0.0220
     19 C          -3.3279  -19.6297   21.9421 C.ar    1  UNL1       -0.0006
     20 C          -2.1354  -18.7229   22.0184 C.ar    1  UNL1        0.0007
     21 C          -1.6081  -18.0710   20.7747 C.ar    1  UNL1        0.0114
     22 C          -2.2732  -18.3259   19.4546 C.ar    1  UNL1        0.0575
     23 CL         -1.7458  -17.6740   18.2108 Cl      1  UNL1       -0.0823
     24 C          -3.4656  -19.2326   19.3782 C.ar    1  UNL1        0.0107
@<TRIPOS>BOND
     1    13    14    1
     2    14    12    1
     3    12     1    1
     4     1     2   ar
     5     2     3   ar
     6     3     4    2
     7     3     5   ar
     8     5     6   ar
     9     6     7   ar
    10     7     8   ar
    11     8    16    1
    12    16    17    1
    13    17    18    1
    14    18    19   ar
    15    19    20   ar
    16    20    21   ar
    17    21    22   ar
    18    22    23    1
    19    22    24   ar
    20     8     9   ar
    21     9    10   ar
    22    10    11   ar
    23    11     1   ar
    24    11     6   ar
    25    24    18   ar
    26    14    15    1
@<TRIPOS>MOLECULE
*****
 24 26 0 0 0
SMALL
GASTEIGER

@<TRIPOS>ATOM
      1 C          -3.8580  -18.8366   22.3185 C.ar    1  UNL1        0.0030
      2 C          -3.7594  -17.7543   23.3523 C.ar    1  UNL1        0.0795
      3 C          -4.9580  -16.9108   23.6717 C.ar    1  UNL1        0.3456
      4 O          -4.8593  -15.8284   24.7056 O.2     1  UNL1       -0.2445
      5 O          -6.2551  -17.1496   22.9574 O.2     1  UNL1       -0.4209
      6 C          -6.3538  -18.2320   21.9235 C.ar    1  UNL1        0.1514
      7 C          -7.6509  -18.4709   21.2092 C.ar    1  UNL1        0.0745
      8 C          -7.7495  -19.5533   20.1754 C.ar    1  UNL1        0.1421
      9 C          -6.5510  -20.3967   19.8560 C.ar    1  UNL1        0.0371
     10 C          -5.2538  -20.1579   20.5703 C.ar    1  UNL1        0.0059
     11 C          -5.1552  -19.0755   21.6041 C.ar    1  UNL1        0.0324
     12 C          -2.6595  -19.6801   21.9991 C.3     1  UNL1        0.0960
     13 C          -1.9221  -18.4849   19.8133 C.3     1  UNL1        0.0861
     14 N          -1.5735  -19.1372   21.1183 N.3     1  UNL1       -0.2926
     15 H          -1.0676  -18.4431   21.6685 H       1  UNL1        0.1236
     16 O          -9.0467  -19.7922   19.4610 O.3     1  UNL1       -0.4705
     17 C         -10.3120  -19.9761   20.2453 C.3     1  UNL1        0.2320
     18 C         -11.0947  -18.7792   20.6976 C.ar    1  UNL1        0.0220
     19 C         -11.0748  -17.5189   19.8843 C.ar    1  UNL1       -0.0006
     20 C         -11.8576  -16.3219   20.3367 C.ar    1  UNL1        0.0007
     21 C         -12.6603  -16.3852   21.6023 C.ar    1  UNL1        0.0114
     22 C         -12.6802  -17.6455   22.4155 C.ar    1  UNL1        0.0575
     23 CL        -13.4828  -17.7088   23.6811 Cl      1  UNL1       -0.0823
     24 C         -11.8974  -18.8424   21.9632 C.ar    1  UNL1        0.0107
@<TRIPOS>BOND
     1    13    14    1
     2    14    12    1
     3    12     1    1
     4     1     2   ar
     5     2     3   ar
     6     3     4    2
     7     3     5   ar
     8     5     6   ar
     9     6     7   ar
    10     7     8   ar
    11     8    16    1
    12    16    17    1
    13    17    18    1
    14    18    19   ar
    15    19    20   ar
    16    20    21   ar
    17    21    22   ar
    18    22    23    1
    19    22    24   ar
    20     8     9   ar
    21     9    10   ar
    22    10    11   ar
    23    11     1   ar
    24    11     6   ar
    25    24    18   ar
    26    14    15    1
@<TRIPOS>MOLECULE
*****
 24 26 0 0 0
SMALL
GASTEIGER

@<TRIPOS>ATOM
      1 C         -10.0860  -16.9417   22.6483 C.ar    1  UNL1        0.0030
      2 C         -11.2283  -16.3414   21.8836 C.ar    1  UNL1        0.0795
      3 C         -11.4344  -16.6972   20.4410 C.ar    1  UNL1        0.3456
      4 O         -12.5768  -16.0968   19.6764 O.2     1  UNL1       -0.2445
      5 O         -10.4983  -17.6533   19.7632 O.2     1  UNL1       -0.4209
      6 C          -9.3560  -18.2537   20.5279 C.ar    1  UNL1        0.1514
      7 C          -8.4199  -19.2098   19.8501 C.ar    1  UNL1        0.0745
      8 C          -7.2777  -19.8101   20.6147 C.ar    1  UNL1        0.1421
      9 C          -7.0715  -19.4543   22.0573 C.ar    1  UNL1        0.0371
     10 C          -8.0076  -18.4982   22.7351 C.ar    1  UNL1        0.0059
     11 C          -9.1498  -17.8979   21.9704 C.ar    1  UNL1        0.0324
     12 C          -9.8799  -16.5859   24.0908 C.3     1  UNL1        0.0960
     13 C          -7.7609  -15.1028   24.3366 C.3     1  UNL1        0.0861
     14 N          -9.2459  -15.2768   24.4572 N.3     1  UNL1       -0.2926
     15 H          -9.6747  -14.5659   23.8647 H       1  UNL1        0.1236
     16 O          -6.3415  -20.7663   19.9369 O.3     1  UNL1       -0.4705
     17 C          -5.0053  -21.0679   20.5481 C.3     1  UNL1        0.2320
     18 C          -3.9619  -19.9940   20.6376 C.ar    1  UNL1        0.0220
     19 C          -3.4020  -19.6017   21.9727 C.ar    1  UNL1       -0.0006
     20 C          -2.3585  -18.5277   22.0622 C.ar    1  UNL1        0.0007
     21 C          -1.8751  -17.8461   20.8166 C.ar    1  UNL1        0.0114
     22 C          -2.4350  -18.2384   19.4814 C.ar    1  UNL1        0.0575
     23 CL         -1.9516  -17.5568   18.2358 Cl      1  UNL1       -0.0823
     24 C          -3.4784  -19.3123   19.3919 C.ar    1  UNL1        0.0107
@<TRIPOS>BOND
     1    13    14    1
     2    14    12    1
     3    12     1    1
     4     1     2   ar
     5     2     3   ar
     6     3     4    2
     7     3     5   ar
     8     5     6   ar
     9     6     7   ar
    10     7     8   ar
    11     8    16    1
    12    16    17    1
    13    17    18    1
    14    18    19   ar
    15    19    20   ar
    16    20    21   ar
    17    21    22   ar
    18    22    23    1
    19    22    24   ar
    20     8     9   ar
    21     9    10   ar
    22    10    11   ar
    23    11     1   ar
    24    11     6   ar
    25    24    18   ar
    26    14    15    1
@<TRIPOS>MOLECULE
*****
 24 26 0 0 0
SMALL
GASTEIGER

@<TRIPOS>ATOM
      1 C          -4.3517  -18.2174   22.7916 C.ar    1  UNL1        0.0030
      2 C          -3.0265  -18.8260   22.4403 C.ar    1  UNL1        0.0795
      3 C          -2.9262  -19.8003   21.3042 C.ar    1  UNL1        0.3456
      4 O          -1.6010  -20.4089   20.9529 O.2     1  UNL1       -0.2445
      5 O          -4.1511  -20.1659   20.5194 O.2     1  UNL1       -0.4209
      6 C          -5.4764  -19.5573   20.8707 C.ar    1  UNL1        0.1514
      7 C          -6.7013  -19.9229   20.0859 C.ar    1  UNL1        0.0745
      8 C          -8.0264  -19.3143   20.4373 C.ar    1  UNL1        0.1421
      9 C          -8.1267  -18.3400   21.5734 C.ar    1  UNL1        0.0371
     10 C          -6.9018  -17.9744   22.3582 C.ar    1  UNL1        0.0059
     11 C          -5.5767  -18.5830   22.0068 C.ar    1  UNL1        0.0324
     12 C          -4.4519  -17.2431   23.9277 C.3     1  UNL1        0.0960
     13 C          -5.8899  -15.1540   24.4914 C.3     1  UNL1        0.0861
     14 N          -4.8308  -15.8165   23.6611 N.3     1  UNL1       -0.2926
     15 H          -3.9819  -15.2613   23.7690 H       1  UNL1        0.1236
     16 O          -9.2514  -19.6799   19.6525 O.3     1  UNL1       -0.4705
     17 C         -10.5561  -19.9014   20.3587 C.3     1  UNL1        0.2320
     18 C         -11.3125  -18.7342   20.9202 C.ar    1  UNL1        0.0220
     19 C         -11.3253  -17.4258   20.1868 C.ar    1  UNL1       -0.0006
     20 C         -12.0818  -16.2585   20.7484 C.ar    1  UNL1        0.0007
     21 C         -12.8254  -16.3997   22.0434 C.ar    1  UNL1        0.0114
     22 C         -12.8126  -17.7081   22.7769 C.ar    1  UNL1        0.0575
     23 CL        -13.5562  -17.8493   24.0719 Cl      1  UNL1       -0.0823
     24 C         -12.0562  -18.8753   22.2153 C.ar    1  UNL1        0.0107
@<TRIPOS>BOND
     1    13    14    1
     2    14    12    1
     3    12     1    1
     4     1     2   ar
     5     2     3   ar
     6     3     4    2
     7     3     5   ar
     8     5     6   ar
     9     6     7   ar
    10     7     8   ar
    11     8    16    1
    12    16    17    1
    13    17    18    1
    14    18    19   ar
    15    19    20   ar
    16    20    21   ar
    17    21    22   ar
    18    22    23    1
    19    22    24   ar
    20     8     9   ar
    21     9    10   ar
    22    10    11   ar
    23    11     1   ar
    24    11     6   ar
    25    24    18   ar
    26    14    15    1
@<TRIPOS>MOLECULE
*****
 24 26 0 0 0
SMALL
GASTEIGER

@<TRIPOS>ATOM
      1 C          -3.4826  -18.7992   22.0750 C.ar    1  UNL1        0.0030
      2 C          -3.6687  -19.9832   21.1731 C.ar    1  UNL1        0.0795
      3 C          -5.0481  -20.3962   20.7526 C.ar    1  UNL1        0.3456
      4 O          -5.2342  -21.5803   19.8506 O.2     1  UNL1       -0.2445
      5 O          -6.2413  -19.6252   21.2339 O.2     1  UNL1       -0.4209
      6 C          -6.0552  -18.4412   22.1359 C.ar    1  UNL1        0.1514
      7 C          -7.2484  -17.6702   22.6173 C.ar    1  UNL1        0.0745
      8 C          -7.0622  -16.4862   23.5192 C.ar    1  UNL1        0.1421
      9 C          -5.6829  -16.0732   23.9397 C.ar    1  UNL1        0.0371
     10 C          -4.4897  -16.8442   23.4584 C.ar    1  UNL1        0.0059
     11 C          -4.6758  -18.0282   22.5564 C.ar    1  UNL1        0.0324
     12 C          -2.1032  -18.3863   22.4955 C.3     1  UNL1        0.0960
     13 C          -0.9926  -17.3147   20.4055 C.3     1  UNL1        0.0861
     14 N          -0.9913  -18.3516   21.4894 N.3     1  UNL1       -0.2926
     15 H          -0.1244  -18.2293   22.0128 H       1  UNL1        0.1236
     16 O          -8.2555  -15.7151   24.0007 O.3     1  UNL1       -0.4705
     17 C          -9.5102  -16.4399   24.3885 C.3     1  UNL1        0.2320
     18 C         -10.5389  -16.7684   23.3475 C.ar    1  UNL1        0.0220
     19 C         -11.6327  -17.7472   23.6565 C.ar    1  UNL1       -0.0006
     20 C         -12.6615  -18.0756   22.6154 C.ar    1  UNL1        0.0007
     21 C         -12.5963  -17.4253   21.2653 C.ar    1  UNL1        0.0114
     22 C         -11.5024  -16.4466   20.9562 C.ar    1  UNL1        0.0575
     23 CL        -11.4373  -15.7963   19.6061 Cl      1  UNL1       -0.0823
     24 C         -10.4738  -16.1181   21.9973 C.ar    1  UNL1        0.0107
@<TRIPOS>BOND
     1    13    14    1
     2    14    12    1
     3    12     1    1
     4     1     2   ar
     5     2     3   ar
     6     3     4    2
     7     3     5   ar
     8     5     6   ar
     9     6     7   ar
    10     7     8   ar
    11     8    16    1
    12    16    17    1
    13    17    18    1
    14    18    19   ar
    15    19    20   ar
    16    20    21   ar
    17    21    22   ar
    18    22    23    1
    19    22    24   ar
    20     8     9   ar
    21     9    10   ar
    22    10    11   ar
    23    11     1   ar
    24    11     6   ar
    25    24    18   ar
    26    14    15    1
@<TRIPOS>MOLECULE
*****
 24 26 0 0 0
SMALL
GASTEIGER

@<TRIPOS>ATOM
      1 C         -10.5586  -19.1311   23.1711 C.ar    1  UNL1        0.0030
      2 C         -11.7246  -18.3683   22.6156 C.ar    1  UNL1        0.0795
      3 C         -11.6987  -17.8888   21.1946 C.ar    1  UNL1        0.3456
      4 O         -12.8648  -17.1259   20.6391 O.2     1  UNL1       -0.2445
      5 O         -10.5069  -18.1720   20.3291 O.2     1  UNL1       -0.4209
      6 C          -9.3408  -18.9348   20.8845 C.ar    1  UNL1        0.1514
      7 C          -8.1489  -19.2180   20.0190 C.ar    1  UNL1        0.0745
      8 C          -6.9830  -19.9808   20.5745 C.ar    1  UNL1        0.1421
      9 C          -7.0089  -20.4604   21.9955 C.ar    1  UNL1        0.0371
     10 C          -8.2007  -20.1772   22.8611 C.ar    1  UNL1        0.0059
     11 C          -9.3667  -19.4144   22.3056 C.ar    1  UNL1        0.0324
     12 C         -10.5845  -19.6107   24.5922 C.3     1  UNL1        0.0960
     13 C          -9.3391  -17.4606   25.3509 C.3     1  UNL1        0.0861
     14 N          -9.9010  -18.8155   25.6647 N.3     1  UNL1       -0.2926
     15 H         -10.5810  -18.6859   26.4138 H       1  UNL1        0.1236
     16 O          -5.7910  -20.2640   19.7089 O.3     1  UNL1       -0.4705
     17 C          -4.4363  -20.4333   20.3302 C.3     1  UNL1        0.2320
     18 C          -3.7549  -19.2625   20.9743 C.ar    1  UNL1        0.0220
     19 C          -2.8381  -18.3914   20.1677 C.ar    1  UNL1       -0.0006
     20 C          -2.1567  -17.2206   20.8119 C.ar    1  UNL1        0.0007
     21 C          -2.3922  -16.9208   22.2626 C.ar    1  UNL1        0.0114
     22 C          -3.3091  -17.7919   23.0692 C.ar    1  UNL1        0.0575
     23 CL         -3.5446  -17.4921   24.5199 Cl      1  UNL1       -0.0823
     24 C          -3.9904  -18.9627   22.4251 C.ar    1  UNL1        0.0107
@<TRIPOS>BOND
     1    13    14    1
     2    14    12    1
     3    12     1    1
     4     1     2   ar
     5     2     3   ar
     6     3     4    2
     7     3     5   ar
     8     5     6   ar
     9     6     7   ar
    10     7     8   ar
    11     8    16    1
    12    16    17    1
    13    17    18    1
    14    18    19   ar
    15    19    20   ar
    16    20    21   ar
    17    21    22   ar
    18    22    23    1
    19    22    24   ar
    20     8     9   ar
    21     9    10   ar
    22    10    11   ar
    23    11     1   ar
    24    11     6   ar
    25    24    18   ar
    26    14    15    1
@<TRIPOS>MOLECULE
*****
 24 26 0 0 0
SMALL
GASTEIGER

@<TRIPOS>ATOM
      1 C         -11.1113  -17.5896   22.2896 C.ar    1  UNL1        0.0030
      2 C         -11.3322  -18.4470   21.0788 C.ar    1  UNL1        0.0795
      3 C         -10.1611  -18.9103   20.2641 C.ar    1  UNL1        0.3456
      4 O         -10.3821  -19.7677   19.0532 O.2     1  UNL1       -0.2445
      5 O          -8.7691  -18.5162   20.6601 O.2     1  UNL1       -0.4209
      6 C          -8.5481  -17.6588   21.8710 C.ar    1  UNL1        0.1514
      7 C          -7.1561  -17.2647   22.2670 C.ar    1  UNL1        0.0745
      8 C          -6.9352  -16.4074   23.4778 C.ar    1  UNL1        0.1421
      9 C          -8.1063  -15.9441   24.2926 C.ar    1  UNL1        0.0371
     10 C          -9.4983  -16.3382   23.8965 C.ar    1  UNL1        0.0059
     11 C          -9.7192  -17.1955   22.6857 C.ar    1  UNL1        0.0324
     12 C         -12.2825  -17.1264   23.1044 C.3     1  UNL1        0.0960
     13 C         -14.0823  -18.2381   24.6125 C.3     1  UNL1        0.0861
     14 N         -13.4868  -18.0077   23.2552 N.3     1  UNL1       -0.2926
     15 H         -14.2222  -17.6030   22.6758 H       1  UNL1        0.1236
     16 O          -5.5431  -16.0132   23.8739 O.3     1  UNL1       -0.4705
     17 C          -4.5171  -17.0696   24.1592 C.3     1  UNL1        0.2320
     18 C          -3.7453  -17.6893   23.0322 C.ar    1  UNL1        0.0220
     19 C          -4.0185  -19.1074   22.6267 C.ar    1  UNL1       -0.0006
     20 C          -3.2466  -19.7272   21.4997 C.ar    1  UNL1        0.0007
     21 C          -2.2016  -18.9288   20.7781 C.ar    1  UNL1        0.0114
     22 C          -1.9284  -17.5107   21.1836 C.ar    1  UNL1        0.0575
     23 CL         -0.8835  -16.7124   20.4621 Cl      1  UNL1       -0.0823
     24 C          -2.7002  -16.8910   22.3106 C.ar    1  UNL1        0.0107
@<TRIPOS>BOND
     1    13    14    1
     2    14    12    1
     3    12     1    1
     4     1     2   ar
     5     2     3   ar
     6     3     4    2
     7     3     5   ar
     8     5     6   ar
     9     6     7   ar
    10     7     8   ar
    11     8    16    1
    12    16    17    1
    13    17    18    1
    14    18    19   ar
    15    19    20   ar
    16    20    21   ar
    17    21    22   ar
    18    22    23    1
    19    22    24   ar
    20     8     9   ar
    21     9    10   ar
    22    10    11   ar
    23    11     1   ar
    24    11     6   ar
    25    24    18   ar
    26    14    15    1
