@<TRIPOS>MOLECULE
*****
 25 25 0 0 0
SMALL
GASTEIGER

@<TRIPOS>ATOM
      1 C         -10.4148  -19.6862   22.1405 C.ar    1  UNL1        0.1384
      2 C         -11.0606  -19.7553   20.7884 C.ar    1  UNL1        0.0369
      3 C         -10.2269  -19.6056   19.5505 C.ar    1  UNL1        0.0030
      4 C          -8.7474  -19.3868   19.6645 C.ar    1  UNL1        0.0012
      5 C          -8.1016  -19.3176   21.0166 C.ar    1  UNL1        0.0422
      6 C          -8.9352  -19.4673   22.2545 C.ar    1  UNL1        0.0379
      7 C          -6.6220  -19.0988   21.1307 C.3     1  UNL1        0.2969
      8 F          -6.5422  -18.8660   19.6510 F       1  UNL1       -0.1981
      9 F          -6.7017  -19.3316   22.6103 F       1  UNL1       -0.1981
     10 C          -5.1424  -18.8799   21.2448 C.3     1  UNL1        0.1409
     11 N          -4.5670  -18.2811   22.4939 N.3     1  UNL1       -0.2850
     12 H          -5.0554  -18.7118   23.2790 H       1  UNL1        0.1239
     13 C          -3.0991  -18.4039   22.7772 C.3     1  UNL1        0.1553
     14 C          -2.1559  -18.8115   21.6844 C.2     1  UNL1        0.2419
     15 O          -1.9501  -20.2648   21.3746 O.2     1  UNL1       -0.2734
     16 N          -1.4185  -17.7661   20.9013 N.am    1  UNL1       -0.2749
     17 C          -0.4754  -18.1737   19.8085 C.3     1  UNL1        0.1149
     18 C          -1.6243  -16.3129   21.2111 C.3     1  UNL1        0.1149
     19 O         -11.2484  -19.8359   23.3785 O.3     1  UNL1       -0.4755
     20 C         -11.8253  -18.6225   24.0454 C.3     1  UNL1        0.2054
     21 C         -12.9741  -17.8940   23.4132 C.3     1  UNL1        0.0473
     22 C         -12.7139  -16.7415   22.4890 C.3     1  UNL1        0.0038
     23 C         -11.3432  -16.1374   22.4110 C.3     1  UNL1        0.0001
     24 C         -11.4571  -16.0560   19.8167 C.3     1  UNL1        0.0000
     25 C         -10.6564  -16.0048   21.0841 C.3     1  UNL1        0.0000
@<TRIPOS>BOND
     1    24    25    1
     2    25    23    1
     3    23    22    1
     4    22    21    1
     5    21    20    1
     6    20    19    1
     7    19     1    1
     8     1     2   ar
     9     2     3   ar
    10     3     4   ar
    11     4     5   ar
    12     5     7    1
    13     7     8    1
    14     7     9    1
    15     7    10    1
    16    10    11    1
    17    11    13    1
    18    13    14    1
    19    14    15    2
    20    14    16   am
    21    16    17    1
    22    16    18    1
    23     5     6   ar
    24     6     1   ar
    25    11    12    1
@<TRIPOS>MOLECULE
*****
 25 25 0 0 0
SMALL
GASTEIGER

@<TRIPOS>ATOM
      1 C         -10.4540  -17.7577   23.2516 C.ar    1  UNL1        0.1384
      2 C         -11.0745  -18.9777   23.8651 C.ar    1  UNL1        0.0369
      3 C         -10.2791  -20.2437   23.9858 C.ar    1  UNL1        0.0030
      4 C          -8.8631  -20.2896   23.4930 C.ar    1  UNL1        0.0012
      5 C          -8.2426  -19.0696   22.8795 C.ar    1  UNL1        0.0422
      6 C          -9.0381  -17.8036   22.7588 C.ar    1  UNL1        0.0379
      7 C          -6.8266  -19.1155   22.3867 C.3     1  UNL1        0.2969
      8 F          -6.7405  -17.6219   22.4948 F       1  UNL1       -0.1981
      9 F          -6.9127  -20.6091   22.2785 F       1  UNL1       -0.1981
     10 C          -5.4106  -19.1614   21.8939 C.3     1  UNL1        0.1409
     11 N          -5.1116  -18.9053   20.4465 N.3     1  UNL1       -0.2850
     12 H          -4.9443  -17.9034   20.3532 H       1  UNL1        0.1239
     13 C          -3.9588  -19.6002   19.7844 C.3     1  UNL1        0.1553
     14 C          -2.5578  -19.3430   20.2546 C.2     1  UNL1        0.2419
     15 O          -1.9715  -20.1757   21.3560 O.2     1  UNL1       -0.2734
     16 N          -1.7431  -18.2531   19.6234 N.am    1  UNL1       -0.2749
     17 C          -0.3421  -17.9958   20.0936 C.3     1  UNL1        0.1149
     18 C          -2.3294  -17.4205   18.5221 C.3     1  UNL1        0.1149
     19 O         -11.2495  -16.4917   23.1309 O.3     1  UNL1       -0.4755
     20 C         -12.1929  -16.3056   21.9797 C.3     1  UNL1        0.2054
     21 C         -11.6551  -16.0417   20.6045 C.3     1  UNL1        0.0473
     22 C         -11.1264  -17.1748   19.7757 C.3     1  UNL1        0.0038
     23 C         -11.5652  -18.5806   20.0604 C.3     1  UNL1        0.0001
     24 C          -9.3374  -19.6417   19.2475 C.3     1  UNL1        0.0000
     25 C         -10.5511  -19.6837   20.1279 C.3     1  UNL1        0.0000
@<TRIPOS>BOND
     1    24    25    1
     2    25    23    1
     3    23    22    1
     4    22    21    1
     5    21    20    1
     6    20    19    1
     7    19     1    1
     8     1     2   ar
     9     2     3   ar
    10     3     4   ar
    11     4     5   ar
    12     5     7    1
    13     7     8    1
    14     7     9    1
    15     7    10    1
    16    10    11    1
    17    11    13    1
    18    13    14    1
    19    14    15    2
    20    14    16   am
    21    16    17    1
    22    16    18    1
    23     5     6   ar
    24     6     1   ar
    25    11    12    1
@<TRIPOS>MOLECULE
*****
 25 25 0 0 0
SMALL
GASTEIGER

@<TRIPOS>ATOM
      1 C          -9.7372  -18.4585   23.8321 C.ar    1  UNL1        0.1384
      2 C          -9.3024  -17.0299   23.9726 C.ar    1  UNL1        0.0369
      3 C          -8.1097  -16.5307   23.2122 C.ar    1  UNL1        0.0030
      4 C          -7.3517  -17.4601   22.3114 C.ar    1  UNL1        0.0012
      5 C          -7.7865  -18.8888   22.1710 C.ar    1  UNL1        0.0422
      6 C          -8.9793  -19.3880   22.9313 C.ar    1  UNL1        0.0379
      7 C          -7.0285  -19.8184   21.2701 C.3     1  UNL1        0.2969
      8 F          -6.7437  -20.7169   22.4369 F       1  UNL1       -0.1981
      9 F          -7.3133  -18.9199   20.1033 F       1  UNL1       -0.1981
     10 C          -6.2706  -20.7479   20.3693 C.3     1  UNL1        0.1409
     11 N          -4.7857  -20.5999   20.2171 N.3     1  UNL1       -0.2850
     12 H          -4.5830  -20.6742   19.2203 H       1  UNL1        0.1239
     13 C          -4.1016  -19.3579   20.7067 C.3     1  UNL1        0.1553
     14 C          -2.6038  -19.2768   20.7062 C.2     1  UNL1        0.2419
     15 O          -1.8046  -20.1606   21.6174 O.2     1  UNL1       -0.2734
     16 N          -1.9053  -18.3121   19.7945 N.am    1  UNL1       -0.2749
     17 C          -0.4075  -18.2310   19.7940 C.3     1  UNL1        0.1149
     18 C          -2.7045  -17.4284   18.8833 C.3     1  UNL1        0.1149
     19 O         -10.9300  -18.9577   24.5924 O.3     1  UNL1       -0.4755
     20 C         -12.3138  -18.6710   24.0896 C.3     1  UNL1        0.2054
     21 C         -12.5390  -17.5628   23.1040 C.3     1  UNL1        0.0473
     22 C         -12.6972  -17.8767   21.6457 C.3     1  UNL1        0.0038
     23 C         -11.8898  -17.1297   20.6259 C.3     1  UNL1        0.0001
     24 C         -10.6523  -19.2274   19.7212 C.3     1  UNL1        0.0000
     25 C         -10.6656  -17.7597   20.0305 C.3     1  UNL1        0.0000
@<TRIPOS>BOND
     1    24    25    1
     2    25    23    1
     3    23    22    1
     4    22    21    1
     5    21    20    1
     6    20    19    1
     7    19     1    1
     8     1     2   ar
     9     2     3   ar
    10     3     4   ar
    11     4     5   ar
    12     5     7    1
    13     7     8    1
    14     7     9    1
    15     7    10    1
    16    10    11    1
    17    11    13    1
    18    13    14    1
    19    14    15    2
    20    14    16   am
    21    16    17    1
    22    16    18    1
    23     5     6   ar
    24     6     1   ar
    25    11    12    1
@<TRIPOS>MOLECULE
*****
 25 25 0 0 0
SMALL
GASTEIGER

@<TRIPOS>ATOM
      1 C         -10.3297  -17.2313   20.9739 C.ar    1  UNL1        0.1384
      2 C         -11.0948  -18.0620   19.9867 C.ar    1  UNL1        0.0369
      3 C         -10.4764  -19.3012   19.4106 C.ar    1  UNL1        0.0030
      4 C          -9.0930  -19.7098   19.8217 C.ar    1  UNL1        0.0012
      5 C          -8.3278  -18.8791   20.8088 C.ar    1  UNL1        0.0422
      6 C          -8.9462  -17.6399   21.3849 C.ar    1  UNL1        0.0379
      7 C          -6.9443  -19.2877   21.2199 C.3     1  UNL1        0.2969
      8 F          -6.9195  -18.1831   22.2344 F       1  UNL1       -0.1981
      9 F          -6.9691  -20.3923   20.2055 F       1  UNL1       -0.1981
     10 C          -5.5608  -19.6963   21.6310 C.3     1  UNL1        0.1409
     11 N          -4.6904  -20.4610   20.6783 N.3     1  UNL1       -0.2850
     12 H          -5.3144  -20.9926   20.0713 H       1  UNL1        0.1239
     13 C          -3.7350  -19.7292   19.7829 C.3     1  UNL1        0.1553
     14 C          -2.3763  -19.3458   20.2896 C.2     1  UNL1        0.2419
     15 O          -1.7734  -20.0813   21.4497 O.2     1  UNL1       -0.2734
     16 N          -1.6204  -18.2269   19.6364 N.am    1  UNL1       -0.2749
     17 C          -0.2616  -17.8435   20.1431 C.3     1  UNL1        0.1149
     18 C          -2.2233  -17.4915   18.4764 C.3     1  UNL1        0.1149
     19 O         -10.9480  -15.9921   21.5499 O.3     1  UNL1       -0.4755
     20 C         -11.6842  -16.0583   22.8552 C.3     1  UNL1        0.2054
     21 C         -12.8938  -16.9350   22.9903 C.3     1  UNL1        0.0473
     22 C         -12.7642  -18.3052   23.5868 C.3     1  UNL1        0.0038
     23 C         -11.4436  -18.7650   24.1297 C.3     1  UNL1        0.0001
     24 C          -9.4172  -20.3885   24.0408 C.3     1  UNL1        0.0000
     25 C         -10.7567  -19.9533   23.5247 C.3     1  UNL1        0.0000
@<TRIPOS>BOND
     1    24    25    1
     2    25    23    1
     3    23    22    1
     4    22    21    1
     5    21    20    1
     6    20    19    1
     7    19     1    1
     8     1     2   ar
     9     2     3   ar
    10     3     4   ar
    11     4     5   ar
    12     5     7    1
    13     7     8    1
    14     7     9    1
    15     7    10    1
    16    10    11    1
    17    11    13    1
    18    13    14    1
    19    14    15    2
    20    14    16   am
    21    16    17    1
    22    16    18    1
    23     5     6   ar
    24     6     1   ar
    25    11    12    1
@<TRIPOS>MOLECULE
*****
 25 25 0 0 0
SMALL
GASTEIGER

@<TRIPOS>ATOM
      1 C         -10.0234  -17.5707   21.9679 C.ar    1  UNL1        0.1384
      2 C         -11.0055  -17.6587   20.8376 C.ar    1  UNL1        0.0369
      3 C         -10.7307  -18.5646   19.6741 C.ar    1  UNL1        0.0030
      4 C          -9.4737  -19.3825   19.6409 C.ar    1  UNL1        0.0012
      5 C          -8.4916  -19.2944   20.7712 C.ar    1  UNL1        0.0422
      6 C          -8.7665  -18.3885   21.9347 C.ar    1  UNL1        0.0379
      7 C          -7.2346  -20.1123   20.7380 C.3     1  UNL1        0.2969
      8 F          -6.9399  -19.7169   22.1546 F       1  UNL1       -0.1981
      9 F          -7.5292  -20.5077   19.3214 F       1  UNL1       -0.1981
     10 C          -5.9776  -20.9301   20.7048 C.3     1  UNL1        0.1409
     11 N          -4.7616  -20.4082   19.9984 N.3     1  UNL1       -0.2850
     12 H          -5.0400  -20.2156   19.0362 H       1  UNL1        0.1239
     13 C          -4.0714  -19.1762   20.5043 C.3     1  UNL1        0.1553
     14 C          -2.5748  -19.1405   20.5992 C.2     1  UNL1        0.2419
     15 O          -1.8623  -20.0467   21.5590 O.2     1  UNL1       -0.2734
     16 N          -1.7908  -18.1986   19.7344 N.am    1  UNL1       -0.2749
     17 C          -0.2942  -18.1628   19.8292 C.3     1  UNL1        0.1149
     18 C          -2.5033  -17.2924   18.7746 C.3     1  UNL1        0.1149
     19 O         -10.2983  -16.6648   23.1315 O.3     1  UNL1       -0.4755
     20 C          -9.1587  -16.0568   23.8942 C.3     1  UNL1        0.2054
     21 C          -8.8527  -16.5258   25.2857 C.3     1  UNL1        0.0473
     22 C          -8.3783  -15.5478   26.3195 C.3     1  UNL1        0.0038
     23 C          -7.0641  -15.7642   27.0094 C.3     1  UNL1        0.0001
     24 C          -5.3650  -15.5483   25.0558 C.3     1  UNL1        0.0000
     25 C          -5.8103  -15.1715   26.4377 C.3     1  UNL1        0.0000
@<TRIPOS>BOND
     1    24    25    1
     2    25    23    1
     3    23    22    1
     4    22    21    1
     5    21    20    1
     6    20    19    1
     7    19     1    1
     8     1     2   ar
     9     2     3   ar
    10     3     4   ar
    11     4     5   ar
    12     5     7    1
    13     7     8    1
    14     7     9    1
    15     7    10    1
    16    10    11    1
    17    11    13    1
    18    13    14    1
    19    14    15    2
    20    14    16   am
    21    16    17    1
    22    16    18    1
    23     5     6   ar
    24     6     1   ar
    25    11    12    1
@<TRIPOS>MOLECULE
*****
 25 25 0 0 0
SMALL
GASTEIGER

@<TRIPOS>ATOM
      1 C          -5.6181  -15.5787   24.1137 C.ar    1  UNL1        0.1384
      2 C          -5.5356  -15.3788   25.5980 C.ar    1  UNL1        0.0369
      3 C          -6.7572  -15.5636   26.4487 C.ar    1  UNL1        0.0030
      4 C          -8.0612  -15.9482   25.8152 C.ar    1  UNL1        0.0012
      5 C          -8.1437  -16.1480   24.3309 C.ar    1  UNL1        0.0422
      6 C          -6.9222  -15.9633   23.4801 C.ar    1  UNL1        0.0379
      7 C          -9.4478  -16.5326   23.6972 C.3     1  UNL1        0.2969
      8 F          -9.0168  -15.8830   22.4157 F       1  UNL1       -0.1981
      9 F          -9.8789  -17.1822   24.9787 F       1  UNL1       -0.1981
     10 C         -10.7519  -16.9173   23.0636 C.3     1  UNL1        0.1409
     11 N         -11.1836  -18.3537   23.0485 N.3     1  UNL1       -0.2850
     12 H         -12.1893  -18.3608   23.2187 H       1  UNL1        0.1239
     13 C         -10.9446  -19.1959   21.8304 C.3     1  UNL1        0.1553
     14 C          -9.7767  -18.9053   20.9351 C.2     1  UNL1        0.2419
     15 O          -9.9980  -18.2589   19.5997 O.2     1  UNL1       -0.2734
     16 N          -8.3876  -19.2612   21.3751 N.am    1  UNL1       -0.2749
     17 C          -7.2197  -18.9706   20.4797 C.3     1  UNL1        0.1149
     18 C          -8.1663  -19.9076   22.7104 C.3     1  UNL1        0.1149
     19 O          -4.3966  -15.3939   23.2630 O.3     1  UNL1       -0.4755
     20 C          -3.5900  -16.5857   22.8399 C.3     1  UNL1        0.2054
     21 C          -3.8226  -17.9176   23.4894 C.3     1  UNL1        0.0473
     22 C          -4.1811  -19.1086   22.6508 C.3     1  UNL1        0.0038
     23 C          -3.1382  -19.7652   21.7958 C.3     1  UNL1        0.0001
     24 C          -3.5800  -18.6583   19.4872 C.3     1  UNL1        0.0000
     25 C          -3.3497  -19.8873   20.3159 C.3     1  UNL1        0.0000
@<TRIPOS>BOND
     1    24    25    1
     2    25    23    1
     3    23    22    1
     4    22    21    1
     5    21    20    1
     6    20    19    1
     7    19     1    1
     8     1     2   ar
     9     2     3   ar
    10     3     4   ar
    11     4     5   ar
    12     5     7    1
    13     7     8    1
    14     7     9    1
    15     7    10    1
    16    10    11    1
    17    11    13    1
    18    13    14    1
    19    14    15    2
    20    14    16   am
    21    16    17    1
    22    16    18    1
    23     5     6   ar
    24     6     1   ar
    25    11    12    1
@<TRIPOS>MOLECULE
*****
 25 25 0 0 0
SMALL
GASTEIGER

@<TRIPOS>ATOM
      1 C          -7.8344  -19.3300   20.1774 C.ar    1  UNL1        0.1384
      2 C          -8.8700  -19.5833   19.1222 C.ar    1  UNL1        0.0369
      3 C         -10.3016  -19.8014   19.5134 C.ar    1  UNL1        0.0030
      4 C         -10.6976  -19.7660   20.9597 C.ar    1  UNL1        0.0012
      5 C          -9.6621  -19.5127   22.0148 C.ar    1  UNL1        0.0422
      6 C          -8.2305  -19.2947   21.6237 C.ar    1  UNL1        0.0379
      7 C         -10.0581  -19.4774   23.4612 C.3     1  UNL1        0.2969
      8 F         -11.2057  -18.5720   23.1250 F       1  UNL1       -0.1981
      9 F          -8.9105  -20.3828   23.7975 F       1  UNL1       -0.1981
     10 C         -10.4540  -19.4421   24.9076 C.3     1  UNL1        0.1409
     11 N          -9.7657  -18.5006   25.8509 N.3     1  UNL1       -0.2850
     12 H          -8.9421  -18.9877   26.2042 H       1  UNL1        0.1239
     13 C          -9.3008  -17.1595   25.3657 C.3     1  UNL1        0.1553
     14 C          -8.2572  -16.4044   26.1343 C.2     1  UNL1        0.2419
     15 O          -8.4012  -16.2241   27.6165 O.2     1  UNL1       -0.2734
     16 N          -7.0696  -15.8296   25.4207 N.am    1  UNL1       -0.2749
     17 C          -6.0259  -15.0745   26.1893 C.3     1  UNL1        0.1149
     18 C          -6.9256  -16.0100   23.9386 C.3     1  UNL1        0.1149
     19 O          -6.4028  -19.1120   19.7862 O.3     1  UNL1       -0.4755
     20 C          -5.2995  -19.5601   20.6983 C.3     1  UNL1        0.2054
     21 C          -3.8771  -19.5367   20.2226 C.3     1  UNL1        0.0473
     22 C          -2.7568  -19.7477   21.1975 C.3     1  UNL1        0.0038
     23 C          -1.9501  -18.5777   21.6776 C.3     1  UNL1        0.0001
     24 C          -3.6629  -17.8753   23.5005 C.3     1  UNL1        0.0000
     25 C          -2.5980  -17.5106   22.5090 C.3     1  UNL1        0.0000
@<TRIPOS>BOND
     1    24    25    1
     2    25    23    1
     3    23    22    1
     4    22    21    1
     5    21    20    1
     6    20    19    1
     7    19     1    1
     8     1     2   ar
     9     2     3   ar
    10     3     4   ar
    11     4     5   ar
    12     5     7    1
    13     7     8    1
    14     7     9    1
    15     7    10    1
    16    10    11    1
    17    11    13    1
    18    13    14    1
    19    14    15    2
    20    14    16   am
    21    16    17    1
    22    16    18    1
    23     5     6   ar
    24     6     1   ar
    25    11    12    1
@<TRIPOS>MOLECULE
*****
 25 25 0 0 0
SMALL
GASTEIGER

@<TRIPOS>ATOM
      1 C         -10.2748  -18.4352   20.6764 C.ar    1  UNL1        0.1384
      2 C         -10.5345  -19.1326   19.3741 C.ar    1  UNL1        0.0369
      3 C          -9.4585  -19.9640   18.7409 C.ar    1  UNL1        0.0030
      4 C          -8.1228  -20.0981   19.4101 C.ar    1  UNL1        0.0012
      5 C          -7.8631  -19.4007   20.7124 C.ar    1  UNL1        0.0422
      6 C          -8.9391  -18.5692   21.3456 C.ar    1  UNL1        0.0379
      7 C          -6.5273  -19.5347   21.3817 C.3     1  UNL1        0.2969
      8 F          -7.0401  -18.7612   22.5601 F       1  UNL1       -0.1981
      9 F          -6.0146  -20.3082   20.2032 F       1  UNL1       -0.1981
     10 C          -5.1916  -19.6688   22.0508 C.3     1  UNL1        0.1409
     11 N          -4.5127  -18.4581   22.6194 N.3     1  UNL1       -0.2850
     12 H          -4.9628  -18.2607   23.5132 H       1  UNL1        0.1239
     13 C          -3.0345  -18.4772   22.8738 C.3     1  UNL1        0.1553
     14 C          -2.0855  -18.7981   21.7574 C.2     1  UNL1        0.2419
     15 O          -1.7815  -20.2276   21.4190 O.2     1  UNL1       -0.2734
     16 N          -1.4405  -17.6897   20.9794 N.am    1  UNL1       -0.2749
     17 C          -0.4915  -18.0107   19.8630 C.3     1  UNL1        0.1149
     18 C          -1.7445  -16.2604   21.3178 C.3     1  UNL1        0.1149
     19 O         -11.3508  -17.6038   21.3096 O.3     1  UNL1       -0.4755
     20 C         -10.9905  -16.3565   22.0608 C.3     1  UNL1        0.2054
     21 C         -10.5582  -16.4429   23.4946 C.3     1  UNL1        0.0473
     22 C          -9.1135  -16.2601   23.8546 C.3     1  UNL1        0.0038
     23 C          -8.7379  -15.4548   25.0631 C.3     1  UNL1        0.0001
     24 C          -7.8573  -15.3566   27.5054 C.3     1  UNL1        0.0000
     25 C          -8.3896  -16.1473   26.3472 C.3     1  UNL1        0.0000
@<TRIPOS>BOND
     1    24    25    1
     2    25    23    1
     3    23    22    1
     4    22    21    1
     5    21    20    1
     6    20    19    1
     7    19     1    1
     8     1     2   ar
     9     2     3   ar
    10     3     4   ar
    11     4     5   ar
    12     5     7    1
    13     7     8    1
    14     7     9    1
    15     7    10    1
    16    10    11    1
    17    11    13    1
    18    13    14    1
    19    14    15    2
    20    14    16   am
    21    16    17    1
    22    16    18    1
    23     5     6   ar
    24     6     1   ar
    25    11    12    1
@<TRIPOS>MOLECULE
*****
 25 25 0 0 0
SMALL
GASTEIGER

@<TRIPOS>ATOM
      1 C          -6.0404  -15.6989   24.3403 C.ar    1  UNL1        0.1384
      2 C          -5.8040  -15.1833   25.7289 C.ar    1  UNL1        0.0369
      3 C          -6.8268  -15.4184   26.8006 C.ar    1  UNL1        0.0030
      4 C          -8.0861  -16.1693   26.4837 C.ar    1  UNL1        0.0012
      5 C          -8.3225  -16.6849   25.0951 C.ar    1  UNL1        0.0422
      6 C          -7.2997  -16.4498   24.0234 C.ar    1  UNL1        0.0379
      7 C          -9.5818  -17.4358   24.7782 C.3     1  UNL1        0.2969
      8 F          -9.4724  -18.1696   26.0818 F       1  UNL1       -0.1981
      9 F          -9.6912  -16.7020   23.4746 F       1  UNL1       -0.1981
     10 C         -10.8411  -18.1866   24.4613 C.3     1  UNL1        0.1409
     11 N         -10.7659  -19.5386   23.8160 N.3     1  UNL1       -0.2850
     12 H         -11.2959  -20.1776   24.4087 H       1  UNL1        0.1239
     13 C         -11.2678  -19.7302   22.4154 C.3     1  UNL1        0.1553
     14 C         -11.7206  -18.5468   21.6126 C.2     1  UNL1        0.2419
     15 O         -13.0606  -17.9276   21.8798 O.2     1  UNL1       -0.2734
     16 N         -10.8336  -17.9826   20.5427 N.am    1  UNL1       -0.2749
     17 C         -11.2865  -16.7992   19.7398 C.3     1  UNL1        0.1149
     18 C          -9.4938  -18.6017   20.2755 C.3     1  UNL1        0.1149
     19 O          -5.0176  -15.4638   23.2686 O.3     1  UNL1       -0.4755
     20 C          -3.8014  -16.3381   23.1877 C.3     1  UNL1        0.2054
     21 C          -3.8844  -17.7783   23.5987 C.3     1  UNL1        0.0473
     22 C          -4.3893  -18.8067   22.6304 C.3     1  UNL1        0.0038
     23 C          -3.4205  -19.5867   21.7919 C.3     1  UNL1        0.0001
     24 C          -2.8479  -18.7361   19.4048 C.3     1  UNL1        0.0000
     25 C          -2.4927  -18.8705   20.8559 C.3     1  UNL1        0.0000
@<TRIPOS>BOND
     1    24    25    1
     2    25    23    1
     3    23    22    1
     4    22    21    1
     5    21    20    1
     6    20    19    1
     7    19     1    1
     8     1     2   ar
     9     2     3   ar
    10     3     4   ar
    11     4     5   ar
    12     5     7    1
    13     7     8    1
    14     7     9    1
    15     7    10    1
    16    10    11    1
    17    11    13    1
    18    13    14    1
    19    14    15    2
    20    14    16   am
    21    16    17    1
    22    16    18    1
    23     5     6   ar
    24     6     1   ar
    25    11    12    1
