@<TRIPOS>MOLECULE
*****
 23 26 0 0 0
SMALL
GASTEIGER

@<TRIPOS>ATOM
      1 O          -9.2600  -20.4127   18.6184 O.2     1  UNL1       -0.2448
      2 C          -9.0614  -19.3947   19.7019 C.2     1  UNL1        0.3428
      3 C         -10.2490  -18.7362   20.3392 C.2     1  UNL1        0.0959
      4 C         -11.2267  -17.8281   19.6540 C.2     1  UNL1        0.1049
      5 N         -12.2493  -17.4009   20.6649 N.2     1  UNL1       -0.2476
      6 C         -11.9035  -18.0449   21.9748 C.2     1  UNL1        0.0638
      7 C         -12.5546  -17.9865   23.3248 C.3     1  UNL1        0.0749
      8 C         -11.9695  -18.7533   24.4735 C.2     1  UNL1        0.0168
      9 C         -10.7332  -19.5786   24.2721 C.2     1  UNL1        0.1298
     10 O         -10.1480  -20.3454   25.4209 O.2     1  UNL1       -0.5058
     11 C         -10.0821  -19.6370   22.9221 C.2     1  UNL1        0.0377
     12 C         -10.6672  -18.8701   21.7734 C.2     1  UNL1        0.0246
     13 H         -10.5548  -20.3089   26.2642 H       1  UNL1        0.2922
     14 O          -7.6752  -19.0351   20.1483 O.3     1  UNL1       -0.4454
     15 C          -6.8064  -20.0680   20.8027 C.3     1  UNL1        0.2087
     16 C          -5.3913  -19.7335   21.1710 C.3     1  UNL1        0.0445
     17 C          -5.1094  -18.9002   22.3860 C.3     1  UNL1        0.0210
     18 C          -3.6943  -18.5657   22.7542 C.3     1  UNL1        0.0722
     19 N          -2.5610  -19.0645   21.9074 N.3     1  UNL1       -0.2727
     20 C          -2.8429  -19.8977   20.6924 C.3     1  UNL1        0.0722
     21 C          -4.2581  -20.2322   20.3242 C.3     1  UNL1        0.0210
     22 C          -3.3199  -19.2736   21.6657 C.3     1  UNL1        0.0722
     23 C          -4.5994  -19.5761   21.3326 C.3     1  UNL1        0.0210
@<TRIPOS>BOND
     1     1     2    2
     2     2    14    1
     3    14    15    1
     4    15    16    1
     5    16    17    1
     6    17    18    1
     7    18    19    1
     8    19    20    1
     9    20    21    1
    10    19    22    1
    11    22    23    1
    12     2     3    1
    13     3     4    2
    14     4     5    1
    15     5     6    2
    16     6     7    1
    17     7     8    1
    18     8     9    2
    19     9    10    1
    20     9    11    1
    21    11    12    2
    22    21    16    1
    23    12     3    1
    24    23    16    1
    25    12     6    1
    26    10    13    1
@<TRIPOS>MOLECULE
*****
 23 26 0 0 0
SMALL
GASTEIGER

@<TRIPOS>ATOM
      1 O          -7.4155  -15.2430   22.3601 O.2     1  UNL1       -0.2448
      2 C          -8.1419  -16.4489   21.8425 C.2     1  UNL1        0.3428
      3 C          -9.6296  -16.5542   22.0021 C.2     1  UNL1        0.0959
      4 C         -10.6553  -15.7538   21.2556 C.2     1  UNL1        0.1049
      5 N         -12.0125  -16.1833   21.7285 N.2     1  UNL1       -0.2476
      6 C         -11.8256  -17.2492   22.7672 C.2     1  UNL1        0.0638
      7 C         -12.8061  -18.0407   23.5808 C.3     1  UNL1        0.0749
      8 C         -12.3139  -19.0614   24.5636 C.2     1  UNL1        0.0168
      9 C         -10.8412  -19.2906   24.7327 C.2     1  UNL1        0.1298
     10 O         -10.3491  -20.3114   25.7156 O.2     1  UNL1       -0.5058
     11 C          -9.8607  -18.4992   23.9191 C.2     1  UNL1        0.0377
     12 C         -10.3529  -17.4785   22.9363 C.2     1  UNL1        0.0246
     13 H         -10.9616  -20.8058   26.2239 H       1  UNL1        0.2922
     14 O          -7.3804  -17.5496   21.1651 O.3     1  UNL1       -0.4454
     15 C          -6.7455  -18.6354   21.9824 C.3     1  UNL1        0.2087
     16 C          -5.3923  -19.1627   21.6070 C.3     1  UNL1        0.0445
     17 C          -5.2382  -20.0433   20.4025 C.3     1  UNL1        0.0210
     18 C          -3.8850  -20.5705   20.0272 C.3     1  UNL1        0.0722
     19 N          -2.6859  -20.2171   20.8563 N.3     1  UNL1       -0.2727
     20 C          -2.8400  -19.3365   22.0607 C.3     1  UNL1        0.0722
     21 C          -4.1933  -18.8093   22.4361 C.3     1  UNL1        0.0210
     22 C          -3.4071  -19.9043   21.1014 C.3     1  UNL1        0.0722
     23 C          -4.6306  -19.4275   21.4409 C.3     1  UNL1        0.0210
@<TRIPOS>BOND
     1     1     2    2
     2     2    14    1
     3    14    15    1
     4    15    16    1
     5    16    17    1
     6    17    18    1
     7    18    19    1
     8    19    20    1
     9    20    21    1
    10    19    22    1
    11    22    23    1
    12     2     3    1
    13     3     4    2
    14     4     5    1
    15     5     6    2
    16     6     7    1
    17     7     8    1
    18     8     9    2
    19     9    10    1
    20     9    11    1
    21    11    12    2
    22    21    16    1
    23    12     3    1
    24    23    16    1
    25    12     6    1
    26    10    13    1
@<TRIPOS>MOLECULE
*****
 23 26 0 0 0
SMALL
GASTEIGER

@<TRIPOS>ATOM
      1 O          -6.8982  -19.3159   22.3909 O.2     1  UNL1       -0.2448
      2 C          -7.8080  -18.1337   22.5467 C.2     1  UNL1        0.3428
      3 C          -9.1906  -18.3188   23.0983 C.2     1  UNL1        0.0959
      4 C          -9.5430  -19.0162   24.3787 C.2     1  UNL1        0.1049
      5 N         -11.0337  -18.9674   24.5380 N.2     1  UNL1       -0.2476
      6 C         -11.6026  -18.2399   23.3560 C.2     1  UNL1        0.0638
      7 C         -13.0108  -17.8907   22.9751 C.3     1  UNL1        0.0749
      8 C         -13.2798  -17.1406   21.7042 C.2     1  UNL1        0.0168
      9 C         -12.1407  -16.7398   20.8144 C.2     1  UNL1        0.1298
     10 O         -12.4098  -15.9897   19.5435 O.2     1  UNL1       -0.5058
     11 C         -10.7326  -17.0890   21.1954 C.2     1  UNL1        0.0377
     12 C         -10.4635  -17.8391   22.4662 C.2     1  UNL1        0.0246
     13 H         -13.2894  -15.7716   19.3056 H       1  UNL1        0.2922
     14 O          -7.3353  -16.7662   22.1509 O.3     1  UNL1       -0.4454
     15 C          -7.7280  -15.5712   22.9681 C.3     1  UNL1        0.2087
     16 C          -7.3949  -15.5200   24.4297 C.3     1  UNL1        0.0445
     17 C          -8.4901  -15.5967   25.4517 C.3     1  UNL1        0.0210
     18 C          -8.1569  -15.5454   26.9133 C.3     1  UNL1        0.0722
     19 N          -6.7284  -15.4174   27.3530 N.3     1  UNL1       -0.2727
     20 C          -5.6332  -15.3407   26.3309 C.3     1  UNL1        0.0722
     21 C          -5.9665  -15.3919   24.8692 C.3     1  UNL1        0.0210
     22 C          -6.8621  -15.4415   26.5408 C.3     1  UNL1        0.0722
     23 C          -7.1633  -15.4879   25.2192 C.3     1  UNL1        0.0210
@<TRIPOS>BOND
     1     1     2    2
     2     2    14    1
     3    14    15    1
     4    15    16    1
     5    16    17    1
     6    17    18    1
     7    18    19    1
     8    19    20    1
     9    20    21    1
    10    19    22    1
    11    22    23    1
    12     2     3    1
    13     3     4    2
    14     4     5    1
    15     5     6    2
    16     6     7    1
    17     7     8    1
    18     8     9    2
    19     9    10    1
    20     9    11    1
    21    11    12    2
    22    21    16    1
    23    12     3    1
    24    23    16    1
    25    12     6    1
    26    10    13    1
@<TRIPOS>MOLECULE
*****
 23 26 0 0 0
SMALL
GASTEIGER

@<TRIPOS>ATOM
      1 O          -9.7384  -16.4161   21.0408 O.2     1  UNL1       -0.2448
      2 C          -8.7505  -17.1125   21.9290 C.2     1  UNL1        0.3428
      3 C          -9.0478  -17.2878   23.3887 C.2     1  UNL1        0.0959
      4 C         -10.1436  -18.1310   23.9703 C.2     1  UNL1        0.1049
      5 N         -10.0744  -18.0150   25.4642 N.2     1  UNL1       -0.2476
      6 C          -8.9358  -17.1002   25.8059 C.2     1  UNL1        0.0638
      7 C          -8.3948  -16.6184   27.1193 C.3     1  UNL1        0.0749
      8 C          -7.2193  -15.6872   27.1500 C.2     1  UNL1        0.0168
      9 C          -6.5848  -15.2377   25.8673 C.2     1  UNL1        0.1298
     10 O          -5.4093  -14.3064   25.8981 O.2     1  UNL1       -0.5058
     11 C          -7.1258  -15.7195   24.5539 C.2     1  UNL1        0.0377
     12 C          -8.3013  -16.6508   24.5232 C.2     1  UNL1        0.0246
     13 H          -5.0714  -14.0054   26.7185 H       1  UNL1        0.2922
     14 O          -7.4653  -17.6337   21.3574 O.3     1  UNL1       -0.4454
     15 C          -6.9358  -18.9670   21.7954 C.3     1  UNL1        0.2087
     16 C          -5.5131  -19.3417   21.5031 C.3     1  UNL1        0.0445
     17 C          -5.1906  -20.1862   20.3062 C.3     1  UNL1        0.0210
     18 C          -3.7678  -20.5608   20.0140 C.3     1  UNL1        0.0722
     19 N          -2.6675  -20.0910   20.9188 N.3     1  UNL1       -0.2727
     20 C          -2.9900  -19.2465   22.1157 C.3     1  UNL1        0.0722
     21 C          -4.4128  -18.8718   22.4080 C.3     1  UNL1        0.0210
     22 C          -3.4319  -19.8602   21.1196 C.3     1  UNL1        0.0722
     23 C          -4.7184  -19.5214   21.3839 C.3     1  UNL1        0.0210
@<TRIPOS>BOND
     1     1     2    2
     2     2    14    1
     3    14    15    1
     4    15    16    1
     5    16    17    1
     6    17    18    1
     7    18    19    1
     8    19    20    1
     9    20    21    1
    10    19    22    1
    11    22    23    1
    12     2     3    1
    13     3     4    2
    14     4     5    1
    15     5     6    2
    16     6     7    1
    17     7     8    1
    18     8     9    2
    19     9    10    1
    20     9    11    1
    21    11    12    2
    22    21    16    1
    23    12     3    1
    24    23    16    1
    25    12     6    1
    26    10    13    1
@<TRIPOS>MOLECULE
*****
 23 26 0 0 0
SMALL
GASTEIGER

@<TRIPOS>ATOM
      1 O          -5.4136  -21.0053   20.3614 O.2     1  UNL1       -0.2448
      2 C          -6.1461  -19.9886   21.1857 C.2     1  UNL1        0.3428
      3 C          -7.5664  -19.6374   20.8552 C.2     1  UNL1        0.0959
      4 C          -8.0859  -19.2447   19.5039 C.2     1  UNL1        0.1049
      5 N          -9.5572  -18.9817   19.6315 N.2     1  UNL1       -0.2476
      6 C          -9.9469  -19.2119   21.0616 C.2     1  UNL1        0.0638
      7 C         -11.2632  -19.1048   21.7728 C.3     1  UNL1        0.0749
      8 C         -11.3491  -19.4030   23.2404 C.2     1  UNL1        0.0168
      9 C         -10.1187  -19.8082   23.9966 C.2     1  UNL1        0.1298
     10 O         -10.2046  -20.1063   25.4643 O.2     1  UNL1       -0.5058
     11 C          -8.8024  -19.9152   23.2854 C.2     1  UNL1        0.0377
     12 C          -8.7165  -19.6171   21.8179 C.2     1  UNL1        0.0246
     13 H         -11.0269  -20.0394   25.9086 H       1  UNL1        0.2922
     14 O          -5.4582  -19.3231   22.3408 O.3     1  UNL1       -0.4454
     15 C          -3.9771  -19.4771   22.5215 C.3     1  UNL1        0.2087
     16 C          -3.0333  -18.5864   21.7693 C.3     1  UNL1        0.0445
     17 C          -2.7169  -17.2166   22.2925 C.3     1  UNL1        0.0210
     18 C          -1.7730  -16.3260   21.5402 C.3     1  UNL1        0.0722
     19 N          -1.1455  -16.8050   20.2648 N.3     1  UNL1       -0.2727
     20 C          -1.4619  -18.1748   19.7416 C.3     1  UNL1        0.0722
     21 C          -2.4058  -19.0655   20.4938 C.3     1  UNL1        0.0210
     22 C          -1.6566  -17.3289   20.6420 C.3     1  UNL1        0.0722
     23 C          -2.5101  -18.1343   21.3222 C.3     1  UNL1        0.0210
@<TRIPOS>BOND
     1     1     2    2
     2     2    14    1
     3    14    15    1
     4    15    16    1
     5    16    17    1
     6    17    18    1
     7    18    19    1
     8    19    20    1
     9    20    21    1
    10    19    22    1
    11    22    23    1
    12     2     3    1
    13     3     4    2
    14     4     5    1
    15     5     6    2
    16     6     7    1
    17     7     8    1
    18     8     9    2
    19     9    10    1
    20     9    11    1
    21    11    12    2
    22    21    16    1
    23    12     3    1
    24    23    16    1
    25    12     6    1
    26    10    13    1
@<TRIPOS>MOLECULE
*****
 23 26 0 0 0
SMALL
GASTEIGER

@<TRIPOS>ATOM
      1 O          -6.4278  -17.0933   22.8177 O.2     1  UNL1       -0.2448
      2 C          -7.4701  -17.7469   21.9598 C.2     1  UNL1        0.3428
      3 C          -8.8428  -18.0001   22.5091 C.2     1  UNL1        0.0959
      4 C          -9.1669  -18.7886   23.7433 C.2     1  UNL1        0.1049
      5 N         -10.6568  -18.7851   23.9175 N.2     1  UNL1       -0.2476
      6 C         -11.2534  -17.9944   22.7911 C.2     1  UNL1        0.0638
      7 C         -12.6726  -17.6535   22.4455 C.3     1  UNL1        0.0749
      8 C         -12.9708  -16.8274   21.2295 C.2     1  UNL1        0.0168
      9 C         -11.8496  -16.3423   20.3591 C.2     1  UNL1        0.1298
     10 O         -12.1478  -15.5162   19.1430 O.2     1  UNL1       -0.5058
     11 C         -10.4304  -16.6832   20.7046 C.2     1  UNL1        0.0377
     12 C         -10.1323  -17.5092   21.9206 C.2     1  UNL1        0.0246
     13 H         -13.0344  -15.3032   18.9272 H       1  UNL1        0.2922
     14 O          -7.1398  -18.1475   20.5524 O.3     1  UNL1       -0.4454
     15 C          -6.2901  -19.3569   20.2967 C.3     1  UNL1        0.2087
     16 C          -4.8022  -19.2781   20.4695 C.3     1  UNL1        0.0445
     17 C          -3.9387  -18.8140   19.3342 C.3     1  UNL1        0.0210
     18 C          -2.4508  -18.7353   19.5072 C.3     1  UNL1        0.0722
     19 N          -1.8263  -19.1207   20.8154 N.3     1  UNL1       -0.2727
     20 C          -2.6898  -19.5848   21.9508 C.3     1  UNL1        0.0722
     21 C          -4.1778  -19.6635   21.7778 C.3     1  UNL1        0.0210
     22 C          -2.6462  -19.1803   20.7681 C.3     1  UNL1        0.0722
     23 C          -3.9916  -19.2515   20.6118 C.3     1  UNL1        0.0210
@<TRIPOS>BOND
     1     1     2    2
     2     2    14    1
     3    14    15    1
     4    15    16    1
     5    16    17    1
     6    17    18    1
     7    18    19    1
     8    19    20    1
     9    20    21    1
    10    19    22    1
    11    22    23    1
    12     2     3    1
    13     3     4    2
    14     4     5    1
    15     5     6    2
    16     6     7    1
    17     7     8    1
    18     8     9    2
    19     9    10    1
    20     9    11    1
    21    11    12    2
    22    21    16    1
    23    12     3    1
    24    23    16    1
    25    12     6    1
    26    10    13    1
@<TRIPOS>MOLECULE
*****
 23 26 0 0 0
SMALL
GASTEIGER

@<TRIPOS>ATOM
      1 O          -6.5163  -16.0060   23.0741 O.2     1  UNL1       -0.2448
      2 C          -7.2867  -17.2890   22.9735 C.2     1  UNL1        0.3428
      3 C          -6.8854  -18.3280   21.9688 C.2     1  UNL1        0.0959
      4 C          -7.8125  -19.0829   21.0628 C.2     1  UNL1        0.1049
      5 N          -6.9866  -20.0160   20.2278 N.2     1  UNL1       -0.2476
      6 C          -5.5492  -19.8378   20.6177 C.2     1  UNL1        0.0638
      7 C          -4.2891  -20.4907   20.1319 C.3     1  UNL1        0.0749
      8 C          -2.9666  -20.1004   20.7222 C.2     1  UNL1        0.0168
      9 C          -2.9040  -19.0572   21.7982 C.2     1  UNL1        0.1298
     10 O          -1.5814  -18.6669   22.3884 O.2     1  UNL1       -0.5058
     11 C          -4.1641  -18.4043   22.2839 C.2     1  UNL1        0.0377
     12 C          -5.4866  -18.7946   21.6937 C.2     1  UNL1        0.0246
     13 H          -0.7943  -19.0748   22.0850 H       1  UNL1        0.2922
     14 O          -8.4585  -17.5330   23.8776 O.3     1  UNL1       -0.4454
     15 C          -9.6450  -16.6163   23.8317 C.3     1  UNL1        0.2087
     16 C         -10.6428  -16.7365   22.7182 C.3     1  UNL1        0.0445
     17 C         -10.3946  -16.0443   21.4108 C.3     1  UNL1        0.0210
     18 C         -11.3925  -16.1644   20.2974 C.3     1  UNL1        0.0722
     19 N         -12.6386  -16.9768   20.4912 N.3     1  UNL1       -0.2727
     20 C         -12.8867  -17.6690   21.7986 C.3     1  UNL1        0.0722
     21 C         -11.8887  -17.5488   22.9121 C.3     1  UNL1        0.0210
     22 C         -12.1208  -16.9401   21.1304 C.3     1  UNL1        0.0722
     23 C         -11.2186  -16.8315   22.1373 C.3     1  UNL1        0.0210
@<TRIPOS>BOND
     1     1     2    2
     2     2    14    1
     3    14    15    1
     4    15    16    1
     5    16    17    1
     6    17    18    1
     7    18    19    1
     8    19    20    1
     9    20    21    1
    10    19    22    1
    11    22    23    1
    12     2     3    1
    13     3     4    2
    14     4     5    1
    15     5     6    2
    16     6     7    1
    17     7     8    1
    18     8     9    2
    19     9    10    1
    20     9    11    1
    21    11    12    2
    22    21    16    1
    23    12     3    1
    24    23    16    1
    25    12     6    1
    26    10    13    1
@<TRIPOS>MOLECULE
*****
 23 26 0 0 0
SMALL
GASTEIGER

@<TRIPOS>ATOM
      1 O          -8.5851  -18.9448   19.8920 O.2     1  UNL1       -0.2448
      2 C          -8.2722  -19.3071   21.3135 C.2     1  UNL1        0.3428
      3 C          -6.9372  -18.9562   21.9005 C.2     1  UNL1        0.0959
      4 C          -5.7009  -19.8040   21.8485 C.2     1  UNL1        0.1049
      5 N          -4.6037  -19.0677   22.5584 N.2     1  UNL1       -0.2476
      6 C          -5.1619  -17.7648   23.0492 C.2     1  UNL1        0.0638
      7 C          -4.5434  -16.6323   23.8139 C.3     1  UNL1        0.0749
      8 C          -5.3670  -15.4309   24.1719 C.2     1  UNL1        0.0168
      9 C          -6.8092  -15.3620   23.7652 C.2     1  UNL1        0.1298
     10 O          -7.6328  -14.1605   24.1233 O.2     1  UNL1       -0.5058
     11 C          -7.4278  -16.4945   23.0006 C.2     1  UNL1        0.0377
     12 C          -6.6041  -17.6959   22.6426 C.2     1  UNL1        0.0246
     13 H          -7.2464  -13.4530   24.6009 H       1  UNL1        0.2922
     14 O          -9.2944  -20.0204   22.1481 O.3     1  UNL1       -0.4454
     15 C         -10.7483  -19.9340   21.7892 C.3     1  UNL1        0.2087
     16 C         -11.4973  -18.6513   21.9979 C.3     1  UNL1        0.0445
     17 C         -12.2180  -18.4053   23.2902 C.3     1  UNL1        0.0210
     18 C         -12.9670  -17.1226   23.4988 C.3     1  UNL1        0.0722
     19 N         -12.9954  -16.0858   22.4152 N.3     1  UNL1       -0.2727
     20 C         -12.2747  -16.3318   21.1228 C.3     1  UNL1        0.0722
     21 C         -11.5257  -17.6146   20.9142 C.3     1  UNL1        0.0210
     22 C         -12.5716  -16.7733   22.2548 C.3     1  UNL1        0.0722
     23 C         -11.8943  -17.9331   22.0660 C.3     1  UNL1        0.0210
@<TRIPOS>BOND
     1     1     2    2
     2     2    14    1
     3    14    15    1
     4    15    16    1
     5    16    17    1
     6    17    18    1
     7    18    19    1
     8    19    20    1
     9    20    21    1
    10    19    22    1
    11    22    23    1
    12     2     3    1
    13     3     4    2
    14     4     5    1
    15     5     6    2
    16     6     7    1
    17     7     8    1
    18     8     9    2
    19     9    10    1
    20     9    11    1
    21    11    12    2
    22    21    16    1
    23    12     3    1
    24    23    16    1
    25    12     6    1
    26    10    13    1
@<TRIPOS>MOLECULE
*****
 23 26 0 0 0
SMALL
GASTEIGER

@<TRIPOS>ATOM
      1 O          -6.2098  -14.7746   24.0761 O.2     1  UNL1       -0.2448
      2 C          -6.6218  -16.0203   23.3493 C.2     1  UNL1        0.3428
      3 C          -7.9997  -16.1275   22.7661 C.2     1  UNL1        0.0959
      4 C          -8.5521  -15.2913   21.6500 C.2     1  UNL1        0.1049
      5 N          -9.9608  -15.7367   21.3908 N.2     1  UNL1       -0.2476
      6 C         -10.2790  -16.8481   22.3466 C.2     1  UNL1        0.0638
      7 C         -11.5157  -17.6714   22.5528 C.3     1  UNL1        0.0749
      8 C         -11.5404  -18.7362   23.6090 C.2     1  UNL1        0.0168
      9 C         -10.3283  -18.9776   24.4590 C.2     1  UNL1        0.1298
     10 O         -10.3531  -20.0425   25.5153 O.2     1  UNL1       -0.5058
     11 C          -9.0916  -18.1544   24.2529 C.2     1  UNL1        0.0377
     12 C          -9.0669  -17.0896   23.1967 C.2     1  UNL1        0.0246
     13 H         -11.1256  -20.5568   25.6441 H       1  UNL1        0.2922
     14 O          -5.6559  -17.1590   23.2056 O.3     1  UNL1       -0.4454
     15 C          -4.1953  -16.9412   23.4687 C.3     1  UNL1        0.2087
     16 C          -3.1736  -17.4584   22.5000 C.3     1  UNL1        0.0445
     17 C          -2.2507  -16.5037   21.8022 C.3     1  UNL1        0.0210
     18 C          -1.2290  -17.0211   20.8335 C.3     1  UNL1        0.0722
     19 N          -1.1301  -18.4931   20.5625 N.3     1  UNL1       -0.2727
     20 C          -2.0529  -19.4478   21.2603 C.3     1  UNL1        0.0722
     21 C          -3.0747  -18.9304   22.2291 C.3     1  UNL1        0.0210
     22 C          -1.7059  -18.2567   21.1015 C.3     1  UNL1        0.0722
     23 C          -2.6298  -17.7891   21.9775 C.3     1  UNL1        0.0210
@<TRIPOS>BOND
     1     1     2    2
     2     2    14    1
     3    14    15    1
     4    15    16    1
     5    16    17    1
     6    17    18    1
     7    18    19    1
     8    19    20    1
     9    20    21    1
    10    19    22    1
    11    22    23    1
    12     2     3    1
    13     3     4    2
    14     4     5    1
    15     5     6    2
    16     6     7    1
    17     7     8    1
    18     8     9    2
    19     9    10    1
    20     9    11    1
    21    11    12    2
    22    21    16    1
    23    12     3    1
    24    23    16    1
    25    12     6    1
    26    10    13    1
