@<TRIPOS>MOLECULE
*****
 31 34 0 0 0
SMALL
GASTEIGER

@<TRIPOS>ATOM
      1 N          -5.7045  -18.9969   20.6772 N.am    1  UNL1       -0.2683
      2 C          -7.0287  -18.4239   21.0877 C.2     1  UNL1        0.3047
      3 O          -7.1093  -17.4803   22.2510 O.2     1  UNL1       -0.2525
      4 N          -8.2720  -18.7943   20.3349 N.am    1  UNL1       -0.2863
      5 H          -5.6516  -19.6162   19.9137 H       1  UNL1        0.1564
      6 H          -8.2191  -19.4136   19.5714 H       1  UNL1        0.1512
      7 C          -9.5960  -18.2213   20.7454 C.3     1  UNL1        0.1021
      8 C         -10.2697  -17.1962   19.8821 C.3     1  UNL1        0.0642
      9 C         -11.5938  -16.6231   20.2927 C.3     1  UNL1        0.1353
     10 C         -12.8425  -15.7929   20.2564 C.3     1  UNL1        0.0437
     11 C         -11.3771  -15.8827   19.0063 C.3     1  UNL1        0.0437
     12 O         -12.2441  -17.0752   21.5665 O.3     1  UNL1       -0.4805
     13 C         -11.5705  -18.1004   22.4298 C.ar    1  UNL1        0.1631
     14 C         -12.2209  -18.5525   23.7035 C.ar    1  UNL1        0.1758
     15 F         -13.5449  -17.9795   24.1141 F       1  UNL1       -0.2009
     16 C         -11.5472  -19.5777   24.5668 C.ar    1  UNL1        0.0624
     17 C         -10.2232  -20.1507   24.1563 C.ar    1  UNL1        0.1423
     18 F          -9.5495  -21.1759   25.0196 F       1  UNL1       -0.2041
     19 C          -9.5728  -19.6986   22.8825 C.ar    1  UNL1        0.0301
     20 C         -10.2465  -18.6734   22.0192 C.ar    1  UNL1        0.0341
     21 C          -2.0196  -17.6948   16.9388 C.3     1  UNL1        0.0521
     22 C          -2.0083  -17.7425   18.4380 C.ar    1  UNL1        0.0594
     23 C          -3.2403  -18.1606   19.1844 C.ar    1  UNL1        0.0160
     24 C          -3.2290  -18.2082   20.6836 C.ar    1  UNL1        0.0162
     25 C          -4.4612  -18.6264   21.4300 C.ar    1  UNL1        0.0516
     26 C          -4.4499  -18.6741   22.9292 C.ar    1  UNL1        0.0147
     27 C          -3.2064  -18.3035   23.6820 C.ar    1  UNL1        0.0013
     28 C          -1.9744  -17.8854   22.9356 C.ar    1  UNL1        0.0016
     29 C          -1.9857  -17.8378   21.4364 C.ar    1  UNL1        0.0204
     30 C          -0.7536  -17.4196   20.6900 C.ar    1  UNL1        0.0984
     31 N          -0.7649  -17.3720   19.1908 N.ar    1  UNL1       -0.2481
@<TRIPOS>BOND
     1    21    22    1
     2    22    23   ar
     3    23    24   ar
     4    24    25   ar
     5    25     1    1
     6     1     2   am
     7     2     3    2
     8     2     4   am
     9     7     4    1
    10     7     8    1
    11     8     9    1
    12     9    10    1
    13     9    11    1
    14     9    12    1
    15    12    13    1
    16    13    14   ar
    17    14    15    1
    18    14    16   ar
    19    16    17   ar
    20    17    18    1
    21    17    19   ar
    22    19    20   ar
    23    25    26   ar
    24    26    27   ar
    25    27    28   ar
    26    28    29   ar
    27    29    30   ar
    28    30    31   ar
    29    31    22   ar
    30    29    24   ar
    31    20     7    1
    32    20    13   ar
    33     1     5    1
    34     4     6    1
@<TRIPOS>MOLECULE
*****
 31 34 0 0 0
SMALL
GASTEIGER

@<TRIPOS>ATOM
      1 N         -16.0255   -4.1921   20.4820 N.am    1  UNL1       -0.2683
      2 C         -14.9582   -3.7336   19.5329 C.2     1  UNL1        0.3047
      3 O         -15.2121   -3.7488   18.0547 O.2     1  UNL1       -0.2525
      4 N         -13.6370   -3.2600   20.0621 N.am    1  UNL1       -0.2863
      5 H         -15.8589   -4.1822   21.4523 H       1  UNL1        0.1564
      6 H         -13.4704   -3.2500   21.0324 H       1  UNL1        0.1512
      7 C         -12.5698   -2.8015   19.1131 C.3     1  UNL1        0.1021
      8 C         -12.5494   -1.3789   18.6379 C.3     1  UNL1        0.0642
      9 C         -11.4820   -0.9205   17.6888 C.3     1  UNL1        0.1353
     10 C         -10.6819   -0.0183   16.7967 C.3     1  UNL1        0.0437
     11 C         -12.2510    0.3570   17.8529 C.3     1  UNL1        0.0437
     12 O         -10.4352   -1.8846   17.2149 O.3     1  UNL1       -0.4805
     13 C         -10.4557   -3.3072   17.6901 C.ar    1  UNL1        0.1631
     14 C          -9.4089   -4.2713   17.2162 C.ar    1  UNL1        0.1758
     15 F          -8.3416   -3.8129   16.2671 F       1  UNL1       -0.2009
     16 C          -9.4293   -5.6939   17.6914 C.ar    1  UNL1        0.0624
     17 C         -10.4966   -6.1524   18.6404 C.ar    1  UNL1        0.1423
     18 F         -10.5170   -7.5750   19.1156 F       1  UNL1       -0.2041
     19 C         -11.5434   -5.1883   19.1143 C.ar    1  UNL1        0.0301
     20 C         -11.5229   -3.7657   18.6392 C.ar    1  UNL1        0.0341
     21 C         -15.1803   -9.1888   18.5927 C.3     1  UNL1        0.0521
     22 C         -16.3825   -8.2949   18.6681 C.ar    1  UNL1        0.0594
     23 C         -16.2635   -6.9273   19.2727 C.ar    1  UNL1        0.0160
     24 C         -17.4657   -6.0334   19.3481 C.ar    1  UNL1        0.0162
     25 C         -17.3467   -4.6658   19.9528 C.ar    1  UNL1        0.0516
     26 C         -18.5489   -3.7719   20.0282 C.ar    1  UNL1        0.0147
     27 C         -19.8701   -4.2456   19.4989 C.ar    1  UNL1        0.0013
     28 C         -19.9891   -5.6132   18.8943 C.ar    1  UNL1        0.0016
     29 C         -18.7869   -6.5071   18.8189 C.ar    1  UNL1        0.0204
     30 C         -18.9059   -7.8746   18.2143 C.ar    1  UNL1        0.0984
     31 N         -17.7037   -8.7685   18.1389 N.ar    1  UNL1       -0.2481
@<TRIPOS>BOND
     1    21    22    1
     2    22    23   ar
     3    23    24   ar
     4    24    25   ar
     5    25     1    1
     6     1     2   am
     7     2     3    2
     8     2     4   am
     9     7     4    1
    10     7     8    1
    11     8     9    1
    12     9    10    1
    13     9    11    1
    14     9    12    1
    15    12    13    1
    16    13    14   ar
    17    14    15    1
    18    14    16   ar
    19    16    17   ar
    20    17    18    1
    21    17    19   ar
    22    19    20   ar
    23    25    26   ar
    24    26    27   ar
    25    27    28   ar
    26    28    29   ar
    27    29    30   ar
    28    30    31   ar
    29    31    22   ar
    30    29    24   ar
    31    20     7    1
    32    20    13   ar
    33     1     5    1
    34     4     6    1
@<TRIPOS>MOLECULE
*****
 31 34 0 0 0
SMALL
GASTEIGER

@<TRIPOS>ATOM
      1 N           1.8069    2.3042   20.2007 N.am    1  UNL1       -0.2683
      2 C           0.3600    2.3185   20.5962 C.2     1  UNL1        0.3047
      3 O          -0.4555    1.0630   20.5024 O.2     1  UNL1       -0.2525
      4 N          -0.2713    3.5882   21.0853 N.am    1  UNL1       -0.2863
      5 H           2.3422    3.1282   20.2622 H       1  UNL1        0.1564
      6 H           0.2639    4.4122   21.1468 H       1  UNL1        0.1512
      7 C          -1.7182    3.6024   21.4807 C.3     1  UNL1        0.1021
      8 C          -2.1007    3.5243   22.9290 C.3     1  UNL1        0.0642
      9 C          -3.5477    3.5385   23.3243 C.3     1  UNL1        0.1353
     10 C          -4.7726    3.5182   24.1898 C.3     1  UNL1        0.0437
     11 C          -2.9087    3.4391   24.6778 C.3     1  UNL1        0.0437
     12 O          -4.6120    3.6308   22.2714 O.3     1  UNL1       -0.4805
     13 C          -4.2294    3.7090   20.8231 C.ar    1  UNL1        0.1631
     14 C          -5.2938    3.8013   19.7702 C.ar    1  UNL1        0.1758
     15 F          -6.7407    3.8155   20.1656 F       1  UNL1       -0.2009
     16 C          -4.9112    3.8794   18.3219 C.ar    1  UNL1        0.0624
     17 C          -3.4644    3.8652   17.9265 C.ar    1  UNL1        0.1423
     18 F          -3.0819    3.9433   16.4782 F       1  UNL1       -0.2041
     19 C          -2.4001    3.7728   18.9794 C.ar    1  UNL1        0.0301
     20 C          -2.7826    3.6947   20.4277 C.ar    1  UNL1        0.0341
     21 C           3.1119   -0.5224   24.6231 C.3     1  UNL1        0.0521
     22 C           3.2592   -0.7681   23.1506 C.ar    1  UNL1        0.0594
     23 C           2.7751    0.2560   22.1673 C.ar    1  UNL1        0.0160
     24 C           2.9224    0.0104   20.6949 C.ar    1  UNL1        0.0162
     25 C           2.4383    1.0345   19.7116 C.ar    1  UNL1        0.0516
     26 C           2.5855    0.7889   18.2392 C.ar    1  UNL1        0.0147
     27 C           3.2169   -0.4809   17.7501 C.ar    1  UNL1        0.0013
     28 C           3.7010   -1.5049   18.7334 C.ar    1  UNL1        0.0016
     29 C           3.5537   -1.2593   20.2058 C.ar    1  UNL1        0.0204
     30 C           4.0378   -2.2834   21.1891 C.ar    1  UNL1        0.0984
     31 N           3.8905   -2.0377   22.6615 N.ar    1  UNL1       -0.2481
@<TRIPOS>BOND
     1    21    22    1
     2    22    23   ar
     3    23    24   ar
     4    24    25   ar
     5    25     1    1
     6     1     2   am
     7     2     3    2
     8     2     4   am
     9     7     4    1
    10     7     8    1
    11     8     9    1
    12     9    10    1
    13     9    11    1
    14     9    12    1
    15    12    13    1
    16    13    14   ar
    17    14    15    1
    18    14    16   ar
    19    16    17   ar
    20    17    18    1
    21    17    19   ar
    22    19    20   ar
    23    25    26   ar
    24    26    27   ar
    25    27    28   ar
    26    28    29   ar
    27    29    30   ar
    28    30    31   ar
    29    31    22   ar
    30    29    24   ar
    31    20     7    1
    32    20    13   ar
    33     1     5    1
    34     4     6    1
@<TRIPOS>MOLECULE
*****
 31 34 0 0 0
SMALL
GASTEIGER

@<TRIPOS>ATOM
      1 N           1.3084    2.3871   20.2283 N.am    1  UNL1       -0.2683
      2 C          -0.1911    2.3840   20.2685 C.2     1  UNL1        0.3047
      3 O          -0.9385    1.0836   20.2742 O.2     1  UNL1       -0.2525
      4 N          -0.9431    3.6814   20.3029 N.am    1  UNL1       -0.2863
      5 H           1.7990    3.2406   20.2246 H       1  UNL1        0.1564
      6 H          -0.4525    4.5350   20.2992 H       1  UNL1        0.1512
      7 C          -2.4425    3.6783   20.3430 C.3     1  UNL1        0.1021
      8 C          -3.2271    3.7187   19.0652 C.3     1  UNL1        0.0642
      9 C          -4.7266    3.7156   19.1054 C.3     1  UNL1        0.1353
     10 C          -6.1493    3.7292   18.6305 C.3     1  UNL1        0.0437
     11 C          -4.5058    3.7638   17.6225 C.3     1  UNL1        0.0437
     12 O          -5.4414    3.6722   20.4234 O.3     1  UNL1       -0.4805
     13 C          -4.6569    3.6318   21.7012 C.ar    1  UNL1        0.1631
     14 C          -5.3717    3.5884   23.0191 C.ar    1  UNL1        0.1758
     15 F          -6.8712    3.5853   23.0593 F       1  UNL1       -0.2009
     16 C          -4.5872    3.5480   24.2969 C.ar    1  UNL1        0.0624
     17 C          -3.0877    3.5511   24.2568 C.ar    1  UNL1        0.1423
     18 F          -2.3032    3.5108   25.5346 F       1  UNL1       -0.2041
     19 C          -2.3729    3.5946   22.9389 C.ar    1  UNL1        0.0301
     20 C          -3.1574    3.6349   21.6610 C.ar    1  UNL1        0.0341
     21 C           2.1367    0.9961   25.3887 C.3     1  UNL1        0.0521
     22 C           2.4936    0.3708   24.0728 C.ar    1  UNL1        0.0594
     23 C           2.0986    1.0428   22.7913 C.ar    1  UNL1        0.0160
     24 C           2.4555    0.4175   21.4754 C.ar    1  UNL1        0.0162
     25 C           2.0604    1.0897   20.1939 C.ar    1  UNL1        0.0516
     26 C           2.4173    0.4644   18.8780 C.ar    1  UNL1        0.0147
     27 C           3.1694   -0.8331   18.8436 C.ar    1  UNL1        0.0013
     28 C           3.5644   -1.5052   20.1251 C.ar    1  UNL1        0.0016
     29 C           3.2075   -0.8799   21.4410 C.ar    1  UNL1        0.0204
     30 C           3.6025   -1.5519   22.7224 C.ar    1  UNL1        0.0984
     31 N           3.2456   -0.9266   24.0383 N.ar    1  UNL1       -0.2481
@<TRIPOS>BOND
     1    21    22    1
     2    22    23   ar
     3    23    24   ar
     4    24    25   ar
     5    25     1    1
     6     1     2   am
     7     2     3    2
     8     2     4   am
     9     7     4    1
    10     7     8    1
    11     8     9    1
    12     9    10    1
    13     9    11    1
    14     9    12    1
    15    12    13    1
    16    13    14   ar
    17    14    15    1
    18    14    16   ar
    19    16    17   ar
    20    17    18    1
    21    17    19   ar
    22    19    20   ar
    23    25    26   ar
    24    26    27   ar
    25    27    28   ar
    26    28    29   ar
    27    29    30   ar
    28    30    31   ar
    29    31    22   ar
    30    29    24   ar
    31    20     7    1
    32    20    13   ar
    33     1     5    1
    34     4     6    1
@<TRIPOS>MOLECULE
*****
 31 34 0 0 0
SMALL
GASTEIGER

@<TRIPOS>ATOM
      1 N          -0.5883    3.5790   20.8569 N.am    1  UNL1       -0.2683
      2 C           0.1590    2.2902   20.6819 C.2     1  UNL1        0.3047
      3 O          -0.5936    1.0028   20.5202 O.2     1  UNL1       -0.2525
      4 N           1.6589    2.2889   20.6685 N.am    1  UNL1       -0.2863
      5 H          -0.0944    4.4239   20.9630 H       1  UNL1        0.1564
      6 H           2.1529    3.1338   20.7746 H       1  UNL1        0.1512
      7 C           2.4062    1.0001   20.4934 C.3     1  UNL1        0.1021
      8 C           2.7630    0.5209   19.1175 C.3     1  UNL1        0.0642
      9 C           3.5103   -0.7679   18.9425 C.3     1  UNL1        0.1353
     10 C           4.2059   -1.9136   18.2692 C.3     1  UNL1        0.0437
     11 C           3.3614   -0.3562   17.5078 C.3     1  UNL1        0.0437
     12 O           3.9008   -1.5774   20.1434 O.3     1  UNL1       -0.4805
     13 C           3.5441   -1.0982   21.5193 C.ar    1  UNL1        0.1631
     14 C           3.9346   -1.9078   22.7201 C.ar    1  UNL1        0.1758
     15 F           4.6819   -3.1966   22.5451 F       1  UNL1       -0.2009
     16 C           3.5778   -1.4286   24.0960 C.ar    1  UNL1        0.0624
     17 C           2.8305   -0.1399   24.2711 C.ar    1  UNL1        0.1423
     18 F           2.4737    0.3393   25.6470 F       1  UNL1       -0.2041
     19 C           2.4400    0.6697   23.0702 C.ar    1  UNL1        0.0301
     20 C           2.7968    0.1905   21.6943 C.ar    1  UNL1        0.0341
     21 C          -2.0420    3.4629   26.0649 C.3     1  UNL1        0.0521
     22 C          -2.8035    3.4929   24.7730 C.ar    1  UNL1        0.0594
     23 C          -2.0651    3.5216   23.4677 C.ar    1  UNL1        0.0160
     24 C          -2.8267    3.5516   22.1757 C.ar    1  UNL1        0.0162
     25 C          -2.0882    3.5803   20.8703 C.ar    1  UNL1        0.0516
     26 C          -2.8498    3.6103   19.5784 C.ar    1  UNL1        0.0147
     27 C          -4.3498    3.6116   19.5918 C.ar    1  UNL1        0.0013
     28 C          -5.0881    3.5829   20.8971 C.ar    1  UNL1        0.0016
     29 C          -4.3266    3.5529   22.1891 C.ar    1  UNL1        0.0204
     30 C          -5.0650    3.5242   23.4944 C.ar    1  UNL1        0.0984
     31 N          -4.3034    3.4942   24.7864 N.ar    1  UNL1       -0.2481
@<TRIPOS>BOND
     1    21    22    1
     2    22    23   ar
     3    23    24   ar
     4    24    25   ar
     5    25     1    1
     6     1     2   am
     7     2     3    2
     8     2     4   am
     9     7     4    1
    10     7     8    1
    11     8     9    1
    12     9    10    1
    13     9    11    1
    14     9    12    1
    15    12    13    1
    16    13    14   ar
    17    14    15    1
    18    14    16   ar
    19    16    17   ar
    20    17    18    1
    21    17    19   ar
    22    19    20   ar
    23    25    26   ar
    24    26    27   ar
    25    27    28   ar
    26    28    29   ar
    27    29    30   ar
    28    30    31   ar
    29    31    22   ar
    30    29    24   ar
    31    20     7    1
    32    20    13   ar
    33     1     5    1
    34     4     6    1
@<TRIPOS>MOLECULE
*****
 31 34 0 0 0
SMALL
GASTEIGER

@<TRIPOS>ATOM
      1 N           1.8677    2.3784   21.3194 N.am    1  UNL1       -0.2683
      2 C           0.5231    2.4189   20.6557 C.2     1  UNL1        0.3047
      3 O          -0.3040    1.1712   20.5603 O.2     1  UNL1       -0.2525
      4 N           0.0056    3.7070   20.0875 N.am    1  UNL1       -0.2863
      5 H           2.4106    3.1974   21.3821 H       1  UNL1        0.1564
      6 H           0.5485    4.5259   20.1501 H       1  UNL1        0.1512
      7 C          -1.3389    3.7474   19.4238 C.3     1  UNL1        0.1021
      8 C          -1.4356    3.8671   17.9317 C.3     1  UNL1        0.0642
      9 C          -2.7802    3.9075   17.2681 C.3     1  UNL1        0.1353
     10 C          -3.8163    3.9847   16.1862 C.3     1  UNL1        0.0437
     11 C          -1.8921    4.0137   16.0639 C.3     1  UNL1        0.0437
     12 O          -4.0281    3.8281   18.0965 O.3     1  UNL1       -0.4805
     13 C          -3.9315    3.7084   19.5886 C.ar    1  UNL1        0.1631
     14 C          -5.1794    3.6290   20.4170 C.ar    1  UNL1        0.1758
     15 F          -6.5241    3.6694   19.7534 F       1  UNL1       -0.2009
     16 C          -5.0828    3.5093   21.9091 C.ar    1  UNL1        0.0624
     17 C          -3.7382    3.4689   22.5728 C.ar    1  UNL1        0.1423
     18 F          -3.6416    3.3491   24.0649 F       1  UNL1       -0.2041
     19 C          -2.4903    3.5483   21.7444 C.ar    1  UNL1        0.0301
     20 C          -2.5870    3.6680   20.2523 C.ar    1  UNL1        0.0341
     21 C           3.6341   -0.5170   17.1068 C.3     1  UNL1        0.0521
     22 C           3.5806   -0.7592   18.5862 C.ar    1  UNL1        0.0594
     23 C           3.0097    0.2866   19.4973 C.ar    1  UNL1        0.0160
     24 C           2.9562    0.0444   20.9766 C.ar    1  UNL1        0.0162
     25 C           2.3852    1.0903   21.8877 C.ar    1  UNL1        0.0516
     26 C           2.3317    0.8481   23.3670 C.ar    1  UNL1        0.0147
     27 C           2.8492   -0.4401   23.9353 C.ar    1  UNL1        0.0013
     28 C           3.4201   -1.4860   23.0242 C.ar    1  UNL1        0.0016
     29 C           3.4736   -1.2437   21.5449 C.ar    1  UNL1        0.0204
     30 C           4.0446   -2.2896   20.6338 C.ar    1  UNL1        0.0984
     31 N           4.0981   -2.0473   19.1544 N.ar    1  UNL1       -0.2481
@<TRIPOS>BOND
     1    21    22    1
     2    22    23   ar
     3    23    24   ar
     4    24    25   ar
     5    25     1    1
     6     1     2   am
     7     2     3    2
     8     2     4   am
     9     7     4    1
    10     7     8    1
    11     8     9    1
    12     9    10    1
    13     9    11    1
    14     9    12    1
    15    12    13    1
    16    13    14   ar
    17    14    15    1
    18    14    16   ar
    19    16    17   ar
    20    17    18    1
    21    17    19   ar
    22    19    20   ar
    23    25    26   ar
    24    26    27   ar
    25    27    28   ar
    26    28    29   ar
    27    29    30   ar
    28    30    31   ar
    29    31    22   ar
    30    29    24   ar
    31    20     7    1
    32    20    13   ar
    33     1     5    1
    34     4     6    1
@<TRIPOS>MOLECULE
*****
 31 34 0 0 0
SMALL
GASTEIGER

@<TRIPOS>ATOM
      1 N           4.2534    0.3168   26.5570 N.am    1  UNL1       -0.2683
      2 C           4.6172   -1.0641   27.0161 C.2     1  UNL1        0.3047
      3 O           3.5457   -2.0947   27.2157 O.2     1  UNL1       -0.2525
      4 N           6.0524   -1.4144   27.2757 N.am    1  UNL1       -0.2863
      5 H           4.9566    0.9932   26.4260 H       1  UNL1        0.1564
      6 H           6.7557   -0.7380   27.1447 H       1  UNL1        0.1512
      7 C           6.4161   -2.7953   27.7348 C.3     1  UNL1        0.1021
      8 C           6.7310   -3.8618   26.7281 C.3     1  UNL1        0.0642
      9 C           7.0947   -5.2427   27.1872 C.3     1  UNL1        0.1353
     10 C           7.4890   -6.6888   27.1304 C.3     1  UNL1        0.0437
     11 C           7.1827   -5.4306   25.7016 C.3     1  UNL1        0.0437
     12 O           7.1436   -5.5571   28.6531 O.3     1  UNL1       -0.4805
     13 C           6.8288   -4.4906   29.6598 C.ar    1  UNL1        0.1631
     14 C           6.8777   -4.8050   31.1256 C.ar    1  UNL1        0.1758
     15 F           7.2414   -6.1860   31.5848 F       1  UNL1       -0.2009
     16 C           6.5629   -3.7385   32.1324 C.ar    1  UNL1        0.0624
     17 C           6.1991   -2.3577   31.6732 C.ar    1  UNL1        0.1423
     18 F           5.8843   -1.2912   32.6800 F       1  UNL1       -0.2041
     19 C           6.1502   -2.0433   30.2074 C.ar    1  UNL1        0.0301
     20 C           6.4651   -3.1098   29.2007 C.ar    1  UNL1        0.0341
     21 C           2.0423    1.2689   31.4000 C.3     1  UNL1        0.0521
     22 C           1.5187    1.2936   29.9945 C.ar    1  UNL1        0.0594
     23 C           2.4302    0.9680   28.8487 C.ar    1  UNL1        0.0160
     24 C           1.9066    0.9927   27.4433 C.ar    1  UNL1        0.0162
     25 C           2.8182    0.6671   26.2974 C.ar    1  UNL1        0.0516
     26 C           2.2945    0.6918   24.8920 C.ar    1  UNL1        0.0147
     27 C           0.8592    1.0421   24.6325 C.ar    1  UNL1        0.0013
     28 C          -0.0523    1.3677   25.7783 C.ar    1  UNL1        0.0016
     29 C           0.4713    1.3430   27.1837 C.ar    1  UNL1        0.0204
     30 C          -0.4402    1.6686   28.3296 C.ar    1  UNL1        0.0984
     31 N           0.0835    1.6439   29.7350 N.ar    1  UNL1       -0.2481
@<TRIPOS>BOND
     1    21    22    1
     2    22    23   ar
     3    23    24   ar
     4    24    25   ar
     5    25     1    1
     6     1     2   am
     7     2     3    2
     8     2     4   am
     9     7     4    1
    10     7     8    1
    11     8     9    1
    12     9    10    1
    13     9    11    1
    14     9    12    1
    15    12    13    1
    16    13    14   ar
    17    14    15    1
    18    14    16   ar
    19    16    17   ar
    20    17    18    1
    21    17    19   ar
    22    19    20   ar
    23    25    26   ar
    24    26    27   ar
    25    27    28   ar
    26    28    29   ar
    27    29    30   ar
    28    30    31   ar
    29    31    22   ar
    30    29    24   ar
    31    20     7    1
    32    20    13   ar
    33     1     5    1
    34     4     6    1
@<TRIPOS>MOLECULE
*****
 31 34 0 0 0
SMALL
GASTEIGER

@<TRIPOS>ATOM
      1 N           6.5348   -2.0322   22.0838 N.am    1  UNL1       -0.2683
      2 C           6.4439   -2.8806   23.3176 C.2     1  UNL1        0.3047
      3 O           5.3394   -3.8859   23.4568 O.2     1  UNL1       -0.2525
      4 N           7.4575   -2.7236   24.4121 N.am    1  UNL1       -0.2863
      5 H           7.2597   -1.3724   21.9925 H       1  UNL1        0.1564
      6 H           8.1824   -2.0637   24.3207 H       1  UNL1        0.1512
      7 C           7.3666   -3.5719   25.6458 C.3     1  UNL1        0.1021
      8 C           6.9228   -2.9638   26.9432 C.3     1  UNL1        0.0642
      9 C           6.8319   -3.8122   28.1769 C.3     1  UNL1        0.1353
     10 C           6.5892   -4.2016   29.6050 C.3     1  UNL1        0.0437
     11 C           6.3948   -2.4909   28.7366 C.3     1  UNL1        0.0437
     12 O           7.1848   -5.2687   28.1132 O.3     1  UNL1       -0.4805
     13 C           7.6285   -5.8768   26.8158 C.ar    1  UNL1        0.1631
     14 C           7.9814   -7.3333   26.7521 C.ar    1  UNL1        0.1758
     15 F           7.8905   -8.1817   27.9858 F       1  UNL1       -0.2009
     16 C           8.4251   -7.9414   25.4547 C.ar    1  UNL1        0.0624
     17 C           8.5160   -7.0931   24.2210 C.ar    1  UNL1        0.1423
     18 F           8.9598   -7.7013   22.9236 F       1  UNL1       -0.2041
     19 C           8.1632   -5.6366   24.2847 C.ar    1  UNL1        0.0301
     20 C           7.7194   -5.0285   25.5821 C.ar    1  UNL1        0.0341
     21 C           2.2398    0.8911   23.5863 C.3     1  UNL1        0.0521
     22 C           2.5534    0.0425   22.3898 C.ar    1  UNL1        0.0594
     23 C           3.8805   -0.6490   22.2878 C.ar    1  UNL1        0.0160
     24 C           4.1940   -1.4976   21.0913 C.ar    1  UNL1        0.0162
     25 C           5.5212   -2.1892   20.9894 C.ar    1  UNL1        0.0516
     26 C           5.8347   -3.0378   19.7929 C.ar    1  UNL1        0.0147
     27 C           4.8210   -3.1948   18.6983 C.ar    1  UNL1        0.0013
     28 C           3.4939   -2.5032   18.8003 C.ar    1  UNL1        0.0016
     29 C           3.1804   -1.6546   19.9968 C.ar    1  UNL1        0.0204
     30 C           1.8533   -0.9631   20.0988 C.ar    1  UNL1        0.0984
     31 N           1.5398   -0.1145   21.2953 N.ar    1  UNL1       -0.2481
@<TRIPOS>BOND
     1    21    22    1
     2    22    23   ar
     3    23    24   ar
     4    24    25   ar
     5    25     1    1
     6     1     2   am
     7     2     3    2
     8     2     4   am
     9     7     4    1
    10     7     8    1
    11     8     9    1
    12     9    10    1
    13     9    11    1
    14     9    12    1
    15    12    13    1
    16    13    14   ar
    17    14    15    1
    18    14    16   ar
    19    16    17   ar
    20    17    18    1
    21    17    19   ar
    22    19    20   ar
    23    25    26   ar
    24    26    27   ar
    25    27    28   ar
    26    28    29   ar
    27    29    30   ar
    28    30    31   ar
    29    31    22   ar
    30    29    24   ar
    31    20     7    1
    32    20    13   ar
    33     1     5    1
    34     4     6    1
@<TRIPOS>MOLECULE
*****
 31 34 0 0 0
SMALL
GASTEIGER

@<TRIPOS>ATOM
      1 N           2.1427    2.0619   21.9255 N.am    1  UNL1       -0.2683
      2 C           0.6615    2.1537   21.7067 C.2     1  UNL1        0.3047
      3 O          -0.1978    0.9352   21.8709 O.2     1  UNL1       -0.2525
      4 N           0.0397    3.4639   21.3238 N.am    1  UNL1       -0.2863
      5 H           2.7067    2.8616   21.8177 H       1  UNL1        0.1564
      6 H           0.6037    4.2636   21.2161 H       1  UNL1        0.1512
      7 C          -1.4414    3.5556   21.1050 C.3     1  UNL1        0.1021
      8 C          -2.3771    3.5055   22.2764 C.3     1  UNL1        0.0642
      9 C          -3.8582    3.5973   22.0576 C.3     1  UNL1        0.1353
     10 C          -5.3271    3.6456   22.3578 C.3     1  UNL1        0.0437
     11 C          -3.8229    3.4722   23.5520 C.3     1  UNL1        0.0437
     12 O          -4.4037    3.7391   20.6675 O.3     1  UNL1       -0.4805
     13 C          -3.4680    3.7892   19.4962 C.ar    1  UNL1        0.1631
     14 C          -4.0134    3.9311   18.1061 C.ar    1  UNL1        0.1758
     15 F          -5.4946    4.0228   17.8873 F       1  UNL1       -0.2009
     16 C          -3.0777    3.9812   16.9348 C.ar    1  UNL1        0.0624
     17 C          -1.5966    3.8894   17.1535 C.ar    1  UNL1        0.1423
     18 F          -0.6609    3.9396   15.9822 F       1  UNL1       -0.2041
     19 C          -1.0512    3.7476   18.5436 C.ar    1  UNL1        0.0301
     20 C          -1.9869    3.6975   19.7149 C.ar    1  UNL1        0.0341
     21 C           3.4540   -0.3888   17.2860 C.3     1  UNL1        0.0521
     22 C           3.5925   -0.7588   18.7331 C.ar    1  UNL1        0.0594
     23 C           3.1093    0.1814   19.7972 C.ar    1  UNL1        0.0160
     24 C           3.2478   -0.1886   21.2442 C.ar    1  UNL1        0.0162
     25 C           2.7645    0.7517   22.3084 C.ar    1  UNL1        0.0516
     26 C           2.9030    0.3817   23.7554 C.ar    1  UNL1        0.0147
     27 C           3.5249   -0.9286   24.1383 C.ar    1  UNL1        0.0013
     28 C           4.0081   -1.8688   23.0742 C.ar    1  UNL1        0.0016
     29 C           3.8696   -1.4988   21.6271 C.ar    1  UNL1        0.0204
     30 C           4.3529   -2.4390   20.5630 C.ar    1  UNL1        0.0984
     31 N           4.2143   -2.0690   19.1160 N.ar    1  UNL1       -0.2481
@<TRIPOS>BOND
     1    21    22    1
     2    22    23   ar
     3    23    24   ar
     4    24    25   ar
     5    25     1    1
     6     1     2   am
     7     2     3    2
     8     2     4   am
     9     7     4    1
    10     7     8    1
    11     8     9    1
    12     9    10    1
    13     9    11    1
    14     9    12    1
    15    12    13    1
    16    13    14   ar
    17    14    15    1
    18    14    16   ar
    19    16    17   ar
    20    17    18    1
    21    17    19   ar
    22    19    20   ar
    23    25    26   ar
    24    26    27   ar
    25    27    28   ar
    26    28    29   ar
    27    29    30   ar
    28    30    31   ar
    29    31    22   ar
    30    29    24   ar
    31    20     7    1
    32    20    13   ar
    33     1     5    1
    34     4     6    1
