@<TRIPOS>MOLECULE
*****
 22 24 0 0 0
SMALL
GASTEIGER

@<TRIPOS>ATOM
      1 C          -8.6137  -17.0476   22.5433 C.ar    1  UNL1       -0.0158
      2 C          -8.0044  -18.3717   22.1888 C.ar    1  UNL1        0.0050
      3 S          -9.1090  -19.2883   21.7532 S.2     1  UNL1       -0.0915
      4 C         -10.4008  -18.5308   21.8384 C.ar    1  UNL1        0.0288
      5 C         -11.8163  -18.9231   21.5345 C.ar    1  UNL1        0.0065
      6 C         -12.9257  -17.9305   21.7189 C.ar    1  UNL1        0.0005
      7 C         -12.6196  -16.5456   22.2072 C.ar    1  UNL1        0.0000
      8 C         -11.2041  -16.1533   22.5112 C.ar    1  UNL1        0.0002
      9 C         -10.0947  -17.1459   22.3268 C.ar    1  UNL1        0.0025
     10 C          -7.5123  -14.7428   22.0688 C.3     1  UNL1        0.0095
     11 C          -7.8721  -15.8376   23.0291 C.3     1  UNL1        0.0463
     12 C          -7.4903  -15.7223   24.4750 C.ar    1  UNL1        0.0007
     13 C          -8.5411  -15.8353   25.5395 C.ar    1  UNL1       -0.0008
     14 C          -8.1593  -15.7200   26.9856 C.ar    1  UNL1        0.0204
     15 C          -6.7266  -15.4917   27.3671 C.ar    1  UNL1        0.0989
     16 N          -5.6759  -15.3787   26.3026 N.ar    1  UNL1       -0.2426
     17 C          -6.0577  -15.4940   24.8566 C.ar    1  UNL1        0.0949
     18 C          -6.5467  -18.7182   22.2579 C.3     1  UNL1        0.0499
     19 C          -5.8202  -19.1552   21.0204 C.3     1  UNL1        0.0774
     20 N          -4.3722  -18.8086   20.8390 N.3     1  UNL1       -0.2700
     21 C          -3.5347  -18.4395   22.0275 C.3     1  UNL1        0.0897
     22 C          -3.7615  -18.8311   19.4691 C.3     1  UNL1        0.0897
@<TRIPOS>BOND
     1    11    10    1
     2    11    12    1
     3    12    13   ar
     4    13    14   ar
     5    14    15   ar
     6    15    16   ar
     7    16    17   ar
     8    11     1    1
     9     1     2   ar
    10     2    18    1
    11    18    19    1
    12    19    20    1
    13    20    21    1
    14    20    22    1
    15     2     3   ar
    16     3     4   ar
    17     4     5   ar
    18     5     6   ar
    19     6     7   ar
    20     7     8   ar
    21     8     9   ar
    22    17    12   ar
    23     9     1   ar
    24     9     4   ar
@<TRIPOS>MOLECULE
*****
 22 24 0 0 0
SMALL
GASTEIGER

@<TRIPOS>ATOM
      1 C          -6.3829  -18.6869   21.6259 C.ar    1  UNL1       -0.0158
      2 C          -7.8327  -18.5068   21.2860 C.ar    1  UNL1        0.0050
      3 S          -8.3702  -17.3867   22.1266 S.2     1  UNL1       -0.0915
      4 C          -7.2526  -16.8747   22.9860 C.ar    1  UNL1        0.0288
      5 C          -7.1946  -15.7805   24.0104 C.ar    1  UNL1        0.0065
      6 C          -5.9084  -15.4899   24.7254 C.ar    1  UNL1        0.0005
      7 C          -4.6802  -16.2935   24.4160 C.ar    1  UNL1        0.0000
      8 C          -4.7382  -17.3876   23.3916 C.ar    1  UNL1        0.0002
      9 C          -6.0243  -17.6782   22.6766 C.ar    1  UNL1        0.0025
     10 C          -5.9259  -21.1028   20.7862 C.3     1  UNL1        0.0095
     11 C          -5.4546  -19.6982   21.0214 C.3     1  UNL1        0.0463
     12 C          -4.0550  -19.3051   20.6519 C.ar    1  UNL1        0.0007
     13 C          -3.8097  -18.4558   19.4400 C.ar    1  UNL1       -0.0008
     14 C          -2.4101  -18.0626   19.0705 C.ar    1  UNL1        0.0204
     15 C          -1.2558  -18.5188   19.9128 C.ar    1  UNL1        0.0989
     16 N          -1.5011  -19.3681   21.1246 N.ar    1  UNL1       -0.2426
     17 C          -2.9007  -19.7613   21.4942 C.ar    1  UNL1        0.0949
     18 C          -8.6088  -19.3063   20.2817 C.3     1  UNL1        0.0499
     19 C         -10.0308  -18.9436   19.9716 C.3     1  UNL1        0.0774
     20 N         -11.0809  -19.0475   21.0377 N.3     1  UNL1       -0.2700
     21 C         -11.0420  -20.1797   22.0210 C.3     1  UNL1        0.0897
     22 C         -12.1699  -18.0193   21.1206 C.3     1  UNL1        0.0897
@<TRIPOS>BOND
     1    11    10    1
     2    11    12    1
     3    12    13   ar
     4    13    14   ar
     5    14    15   ar
     6    15    16   ar
     7    16    17   ar
     8    11     1    1
     9     1     2   ar
    10     2    18    1
    11    18    19    1
    12    19    20    1
    13    20    21    1
    14    20    22    1
    15     2     3   ar
    16     3     4   ar
    17     4     5   ar
    18     5     6   ar
    19     6     7   ar
    20     7     8   ar
    21     8     9   ar
    22    17    12   ar
    23     9     1   ar
    24     9     4   ar
@<TRIPOS>MOLECULE
*****
 22 24 0 0 0
SMALL
GASTEIGER

@<TRIPOS>ATOM
      1 C          -8.4381  -17.2482   23.8979 C.ar    1  UNL1       -0.0158
      2 C          -7.2722  -17.3157   22.9565 C.ar    1  UNL1        0.0050
      3 S          -6.1291  -16.5714   23.5804 S.2     1  UNL1       -0.0915
      4 C          -6.5884  -16.0440   24.9074 C.ar    1  UNL1        0.0288
      5 C          -5.8916  -15.2370   25.9624 C.ar    1  UNL1        0.0065
      6 C          -6.6218  -14.8482   27.2136 C.ar    1  UNL1        0.0005
      7 C          -8.0489  -15.2665   27.4098 C.ar    1  UNL1        0.0000
      8 C          -8.7457  -16.0736   26.3548 C.ar    1  UNL1        0.0002
      9 C          -8.0155  -16.4623   25.1036 C.ar    1  UNL1        0.0025
     10 C         -10.2781  -18.9521   24.5771 C.3     1  UNL1        0.0095
     11 C          -9.7893  -17.8594   23.6730 C.3     1  UNL1        0.0463
     12 C         -10.6519  -17.3781   22.5443 C.ar    1  UNL1        0.0007
     13 C         -10.2065  -16.2201   21.7011 C.ar    1  UNL1       -0.0008
     14 C         -11.0690  -15.7386   20.5723 C.ar    1  UNL1        0.0204
     15 C         -12.3770  -16.4152   20.2866 C.ar    1  UNL1        0.0989
     16 N         -12.8223  -17.5731   21.1297 N.ar    1  UNL1       -0.2426
     17 C         -11.9598  -18.0545   22.2586 C.ar    1  UNL1        0.0949
     18 C          -7.2529  -18.0061   21.6249 C.3     1  UNL1        0.0499
     19 C          -6.5085  -19.2979   21.4607 C.3     1  UNL1        0.0774
     20 N          -5.0310  -19.2845   21.2024 N.3     1  UNL1       -0.2700
     21 C          -4.0688  -19.4388   22.3429 C.3     1  UNL1        0.0897
     22 C          -4.5156  -19.1169   19.8038 C.3     1  UNL1        0.0897
@<TRIPOS>BOND
     1    11    10    1
     2    11    12    1
     3    12    13   ar
     4    13    14   ar
     5    14    15   ar
     6    15    16   ar
     7    16    17   ar
     8    11     1    1
     9     1     2   ar
    10     2    18    1
    11    18    19    1
    12    19    20    1
    13    20    21    1
    14    20    22    1
    15     2     3   ar
    16     3     4   ar
    17     4     5   ar
    18     5     6   ar
    19     6     7   ar
    20     7     8   ar
    21     8     9   ar
    22    17    12   ar
    23     9     1   ar
    24     9     4   ar
@<TRIPOS>MOLECULE
*****
 22 24 0 0 0
SMALL
GASTEIGER

@<TRIPOS>ATOM
      1 C          -8.6533  -17.7891   24.0423 C.ar    1  UNL1       -0.0158
      2 C          -7.7567  -17.3861   22.9093 C.ar    1  UNL1        0.0050
      3 S          -6.8397  -16.3075   23.4050 S.2     1  UNL1       -0.0915
      4 C          -7.1695  -16.0440   24.8444 C.ar    1  UNL1        0.0288
      5 C          -6.5940  -15.0885   25.8473 C.ar    1  UNL1        0.0065
      6 C          -7.1394  -15.0488   27.2440 C.ar    1  UNL1        0.0005
      7 C          -8.2602  -15.9645   27.6379 C.ar    1  UNL1        0.0000
      8 C          -8.8357  -16.9200   26.6350 C.ar    1  UNL1        0.0002
      9 C          -8.2904  -16.9597   25.2382 C.ar    1  UNL1        0.0025
     10 C          -9.3518  -20.2904   23.9646 C.3     1  UNL1        0.0095
     11 C          -9.7246  -18.8376   23.9888 C.3     1  UNL1        0.0463
     12 C         -11.1688  -18.4335   23.9594 C.ar    1  UNL1        0.0007
     13 C         -12.1335  -19.0257   24.9437 C.ar    1  UNL1       -0.0008
     14 C         -13.5777  -18.6215   24.9144 C.ar    1  UNL1        0.0204
     15 C         -14.0573  -17.6252   23.9008 C.ar    1  UNL1        0.0989
     16 N         -13.0927  -17.0330   22.9166 N.ar    1  UNL1       -0.2426
     17 C         -11.6484  -17.4371   22.9459 C.ar    1  UNL1        0.0949
     18 C          -7.7741  -17.9607   21.5238 C.3     1  UNL1        0.0499
     19 C          -9.0482  -17.9714   20.7322 C.3     1  UNL1        0.0774
     20 N          -9.5124  -19.2375   20.0753 N.3     1  UNL1       -0.2700
     21 C         -10.8083  -19.8673   20.4925 C.3     1  UNL1        0.0897
     22 C          -8.6808  -19.8736   19.0013 C.3     1  UNL1        0.0897
@<TRIPOS>BOND
     1    11    10    1
     2    11    12    1
     3    12    13   ar
     4    13    14   ar
     5    14    15   ar
     6    15    16   ar
     7    16    17   ar
     8    11     1    1
     9     1     2   ar
    10     2    18    1
    11    18    19    1
    12    19    20    1
    13    20    21    1
    14    20    22    1
    15     2     3   ar
    16     3     4   ar
    17     4     5   ar
    18     5     6   ar
    19     6     7   ar
    20     7     8   ar
    21     8     9   ar
    22    17    12   ar
    23     9     1   ar
    24     9     4   ar
@<TRIPOS>MOLECULE
*****
 22 24 0 0 0
SMALL
GASTEIGER

@<TRIPOS>ATOM
      1 C           3.8936   -1.9035   19.1717 C.ar    1  UNL1       -0.0158
      2 C           4.8907   -1.3226   18.2135 C.ar    1  UNL1        0.0050
      3 S           4.3865    0.0213   17.7780 S.2     1  UNL1       -0.0915
      4 C           3.0778    0.2710   18.4671 C.ar    1  UNL1        0.0288
      5 C           2.1241    1.4279   18.4215 C.ar    1  UNL1        0.0065
      6 C           0.8658    1.3951   19.2373 C.ar    1  UNL1        0.0005
      7 C           0.5612    0.2055   20.0987 C.ar    1  UNL1        0.0000
      8 C           1.5148   -0.9513   20.1443 C.ar    1  UNL1        0.0002
      9 C           2.7731   -0.9186   19.3285 C.ar    1  UNL1        0.0025
     10 C           3.3920   -4.4523   19.2198 C.3     1  UNL1        0.0095
     11 C           3.9985   -3.2354   19.8536 C.3     1  UNL1        0.0463
     12 C           4.7098   -3.3507   21.1691 C.ar    1  UNL1        0.0007
     13 C           4.1735   -2.6401   22.3765 C.ar    1  UNL1       -0.0008
     14 C           4.8847   -2.7553   23.6921 C.ar    1  UNL1        0.0204
     15 C           6.1323   -3.5811   23.8004 C.ar    1  UNL1        0.0989
     16 N           6.6686   -4.2916   22.5931 N.ar    1  UNL1       -0.2426
     17 C           5.9573   -4.1764   21.2775 C.ar    1  UNL1        0.0949
     18 C           6.1678   -1.9716   17.7688 C.3     1  UNL1        0.0499
     19 C           7.3811   -1.9211   18.6494 C.3     1  UNL1        0.0774
     20 N           7.6531   -0.7036   19.4823 N.3     1  UNL1       -0.2700
     21 C           7.3669   -0.7228   20.9546 C.3     1  UNL1        0.0897
     22 C           8.2113    0.5331   18.8428 C.3     1  UNL1        0.0897
@<TRIPOS>BOND
     1    11    10    1
     2    11    12    1
     3    12    13   ar
     4    13    14   ar
     5    14    15   ar
     6    15    16   ar
     7    16    17   ar
     8    11     1    1
     9     1     2   ar
    10     2    18    1
    11    18    19    1
    12    19    20    1
    13    20    21    1
    14    20    22    1
    15     2     3   ar
    16     3     4   ar
    17     4     5   ar
    18     5     6   ar
    19     6     7   ar
    20     7     8   ar
    21     8     9   ar
    22    17    12   ar
    23     9     1   ar
    24     9     4   ar
@<TRIPOS>MOLECULE
*****
 22 24 0 0 0
SMALL
GASTEIGER

@<TRIPOS>ATOM
      1 C          -7.8298  -18.6856   22.8040 C.ar    1  UNL1       -0.0158
      2 C          -9.3237  -18.8072   22.8630 C.ar    1  UNL1        0.0050
      3 S          -9.8693  -17.5379   23.4471 S.2     1  UNL1       -0.0915
      4 C          -8.7127  -16.6318   23.7491 C.ar    1  UNL1        0.0288
      5 C          -8.6445  -15.2526   24.3346 C.ar    1  UNL1        0.0065
      6 C          -7.3157  -14.5826   24.5227 C.ar    1  UNL1        0.0005
      7 C          -6.0552  -15.2919   24.1253 C.ar    1  UNL1        0.0000
      8 C          -6.1234  -16.6712   23.5398 C.ar    1  UNL1        0.0002
      9 C          -7.4522  -17.3411   23.3517 C.ar    1  UNL1        0.0025
     10 C          -7.1720  -21.1812   22.5046 C.3     1  UNL1        0.0095
     11 C          -6.8802  -19.7258   22.2880 C.3     1  UNL1        0.0463
     12 C          -5.6388  -19.3107   21.5555 C.ar    1  UNL1        0.0007
     13 C          -4.3191  -19.2896   22.2682 C.ar    1  UNL1       -0.0008
     14 C          -3.0776  -18.8745   21.5357 C.ar    1  UNL1        0.0204
     15 C          -3.1559  -18.4806   20.0904 C.ar    1  UNL1        0.0989
     16 N          -4.4756  -18.5017   19.3778 N.ar    1  UNL1       -0.2426
     17 C          -5.7171  -18.9168   20.1103 C.ar    1  UNL1        0.0949
     18 C         -10.1303  -19.9904   22.4163 C.3     1  UNL1        0.0499
     19 C         -10.9288  -19.9183   21.1486 C.3     1  UNL1        0.0774
     20 N         -10.4500  -19.0701   20.0078 N.3     1  UNL1       -0.2700
     21 C          -9.3091  -19.5373   19.1531 C.3     1  UNL1        0.0897
     22 C         -11.1119  -17.7549   19.7217 C.3     1  UNL1        0.0897
@<TRIPOS>BOND
     1    11    10    1
     2    11    12    1
     3    12    13   ar
     4    13    14   ar
     5    14    15   ar
     6    15    16   ar
     7    16    17   ar
     8    11     1    1
     9     1     2   ar
    10     2    18    1
    11    18    19    1
    12    19    20    1
    13    20    21    1
    14    20    22    1
    15     2     3   ar
    16     3     4   ar
    17     4     5   ar
    18     5     6   ar
    19     6     7   ar
    20     7     8   ar
    21     8     9   ar
    22    17    12   ar
    23     9     1   ar
    24     9     4   ar
@<TRIPOS>MOLECULE
*****
 22 24 0 0 0
SMALL
GASTEIGER

@<TRIPOS>ATOM
      1 C           4.0736   -2.2149   21.2908 C.ar    1  UNL1       -0.0158
      2 C           4.9288   -2.8472   22.3485 C.ar    1  UNL1        0.0050
      3 S           4.5870   -2.2104   23.6629 S.2     1  UNL1       -0.0915
      4 C           3.5205   -1.1845   23.4175 C.ar    1  UNL1        0.0288
      5 C           2.7973   -0.2482   24.3396 C.ar    1  UNL1        0.0065
      6 C           1.7568    0.6853   23.7957 C.ar    1  UNL1        0.0005
      7 C           1.4395    0.6825   22.3296 C.ar    1  UNL1        0.0000
      8 C           2.1627   -0.2538   21.4075 C.ar    1  UNL1        0.0002
      9 C           3.2032   -1.1873   21.9515 C.ar    1  UNL1        0.0025
     10 C           3.3460   -3.7566   19.3301 C.3     1  UNL1        0.0095
     11 C           4.0864   -2.5511   19.8290 C.3     1  UNL1        0.0463
     12 C           4.8396   -1.6820   18.8661 C.ar    1  UNL1        0.0007
     13 C           4.2714   -0.3581   18.4482 C.ar    1  UNL1       -0.0008
     14 C           5.0245    0.5110   17.4852 C.ar    1  UNL1        0.0204
     15 C           6.3460    0.0563   16.9401 C.ar    1  UNL1        0.0989
     16 N           6.9142   -1.2675   17.3580 N.ar    1  UNL1       -0.2426
     17 C           6.1610   -2.1366   18.3210 C.ar    1  UNL1        0.0949
     18 C           5.9471   -3.9267   22.1301 C.3     1  UNL1        0.0499
     19 C           6.8641   -4.3297   23.2467 C.3     1  UNL1        0.0774
     20 N           7.9015   -5.3891   23.0199 N.3     1  UNL1       -0.2700
     21 C           8.7382   -5.3653   21.7751 C.3     1  UNL1        0.0897
     22 C           8.1022   -6.4724   24.0378 C.3     1  UNL1        0.0897
@<TRIPOS>BOND
     1    11    10    1
     2    11    12    1
     3    12    13   ar
     4    13    14   ar
     5    14    15   ar
     6    15    16   ar
     7    16    17   ar
     8    11     1    1
     9     1     2   ar
    10     2    18    1
    11    18    19    1
    12    19    20    1
    13    20    21    1
    14    20    22    1
    15     2     3   ar
    16     3     4   ar
    17     4     5   ar
    18     5     6   ar
    19     6     7   ar
    20     7     8   ar
    21     8     9   ar
    22    17    12   ar
    23     9     1   ar
    24     9     4   ar
@<TRIPOS>MOLECULE
*****
 22 24 0 0 0
SMALL
GASTEIGER

@<TRIPOS>ATOM
      1 C           3.5379   -1.7881   20.7938 C.ar    1  UNL1       -0.0158
      2 C           2.5743   -0.7281   20.3491 C.ar    1  UNL1        0.0050
      3 S           2.1572    0.0558   21.5580 S.2     1  UNL1       -0.0915
      4 C           2.8630   -0.5197   22.7499 C.ar    1  UNL1        0.0288
      5 C           2.8389   -0.1533   24.2043 C.ar    1  UNL1        0.0065
      6 C           3.6682   -0.9266   25.1863 C.ar    1  UNL1        0.0005
      7 C           4.5215   -2.0662   24.7140 C.ar    1  UNL1        0.0000
      8 C           4.5456   -2.4326   23.2596 C.ar    1  UNL1        0.0002
      9 C           3.7163   -1.6593   22.2776 C.ar    1  UNL1        0.0025
     10 C           3.4092   -3.9295   19.3281 C.3     1  UNL1        0.0095
     11 C           4.2058   -2.7994   19.9100 C.3     1  UNL1        0.0463
     12 C           5.6702   -2.6806   19.6079 C.ar    1  UNL1        0.0007
     13 C           6.6776   -3.3240   20.5142 C.ar    1  UNL1       -0.0008
     14 C           8.1421   -3.2053   20.2121 C.ar    1  UNL1        0.0204
     15 C           8.5992   -2.4432   19.0037 C.ar    1  UNL1        0.0989
     16 N           7.5919   -1.7999   18.0974 N.ar    1  UNL1       -0.2426
     17 C           6.1274   -1.9186   18.3995 C.ar    1  UNL1        0.0949
     18 C           2.1094   -0.4932   18.9424 C.3     1  UNL1        0.0499
     19 C           3.0313    0.1419   17.9440 C.3     1  UNL1        0.0774
     20 N           3.5920    1.5086   18.2043 N.3     1  UNL1       -0.2700
     21 C           5.0696    1.7454   18.0999 C.3     1  UNL1        0.0897
     22 C           2.6753    2.6384   18.5689 C.3     1  UNL1        0.0897
@<TRIPOS>BOND
     1    11    10    1
     2    11    12    1
     3    12    13   ar
     4    13    14   ar
     5    14    15   ar
     6    15    16   ar
     7    16    17   ar
     8    11     1    1
     9     1     2   ar
    10     2    18    1
    11    18    19    1
    12    19    20    1
    13    20    21    1
    14    20    22    1
    15     2     3   ar
    16     3     4   ar
    17     4     5   ar
    18     5     6   ar
    19     6     7   ar
    20     7     8   ar
    21     8     9   ar
    22    17    12   ar
    23     9     1   ar
    24     9     4   ar
@<TRIPOS>MOLECULE
*****
 22 24 0 0 0
SMALL
GASTEIGER

@<TRIPOS>ATOM
      1 C           5.6105   -2.8371   20.2905 C.ar    1  UNL1       -0.0158
      2 C           6.7146   -2.5001   19.3327 C.ar    1  UNL1        0.0050
      3 S           8.0214   -2.7557   20.0234 S.2     1  UNL1       -0.0915
      4 C           7.7249   -3.2505   21.4080 C.ar    1  UNL1        0.0288
      5 C           8.6192   -3.6618   22.5398 C.ar    1  UNL1        0.0065
      6 C           8.0234   -4.1233   23.8367 C.ar    1  UNL1        0.0005
      7 C           6.5334   -4.1736   24.0018 C.ar    1  UNL1        0.0000
      8 C           5.6391   -3.7624   22.8700 C.ar    1  UNL1        0.0002
      9 C           6.2349   -3.3008   21.5731 C.ar    1  UNL1        0.0025
     10 C           3.4330   -3.8275   19.2766 C.3     1  UNL1        0.0095
     11 C           4.1401   -2.7292   20.0142 C.3     1  UNL1        0.0463
     12 C           3.3768   -1.5232   20.4753 C.ar    1  UNL1        0.0007
     13 C           1.9727   -1.2967   19.9984 C.ar    1  UNL1       -0.0008
     14 C           1.2093   -0.0907   20.4595 C.ar    1  UNL1        0.0204
     15 C           1.8500    0.8890   21.3976 C.ar    1  UNL1        0.0989
     16 N           3.2540    0.6625   21.8745 N.ar    1  UNL1       -0.2426
     17 C           4.0174   -0.5436   21.4134 C.ar    1  UNL1        0.0949
     18 C           6.5423   -1.9962   17.9304 C.3     1  UNL1        0.0499
     19 C           6.2681   -0.5422   17.6844 C.3     1  UNL1        0.0774
     20 N           4.8549   -0.0576   17.5500 N.3     1  UNL1       -0.2700
     21 C           3.8517   -0.8730   16.7890 C.3     1  UNL1        0.0897
     22 C           4.4449    1.2421   18.1764 C.3     1  UNL1        0.0897
@<TRIPOS>BOND
     1    11    10    1
     2    11    12    1
     3    12    13   ar
     4    13    14   ar
     5    14    15   ar
     6    15    16   ar
     7    16    17   ar
     8    11     1    1
     9     1     2   ar
    10     2    18    1
    11    18    19    1
    12    19    20    1
    13    20    21    1
    14    20    22    1
    15     2     3   ar
    16     3     4   ar
    17     4     5   ar
    18     5     6   ar
    19     6     7   ar
    20     7     8   ar
    21     8     9   ar
    22    17    12   ar
    23     9     1   ar
    24     9     4   ar
