@<TRIPOS>MOLECULE
*****
 27 29 0 0 0
SMALL
GASTEIGER

@<TRIPOS>ATOM
      1 N          -8.2429  -17.1883   22.6817 N.pl3   1  UNL1       -0.3034
      2 C          -4.2893  -20.1480   20.8137 C.2     1  UNL1        0.4050
      3 O          -4.0787  -21.1833   19.7489 O.2     1  UNL1       -0.2262
      4 N          -5.6456  -19.5379   21.0088 N.am    1  UNL1       -0.2443
      5 C          -6.8797  -19.8615   20.2198 C.3     1  UNL1        0.0986
      6 C          -8.0028  -19.0207   20.7505 C.3     1  UNL1        0.0431
      7 C          -7.4628  -18.1775   21.8674 C.3     1  UNL1        0.0947
      8 C          -6.0060  -18.4972   22.0270 C.3     1  UNL1        0.1164
      9 C          -2.1138  -18.7691   21.1544 C.3     1  UNL1        0.2573
     10 O          -3.1435  -19.7229   21.6834 O.3     1  UNL1       -0.4304
     11 C          -9.6616  -17.4866   23.0667 C.ar    1  UNL1        0.0490
     12 C          -9.9588  -18.5883   24.0402 C.ar    1  UNL1        0.0153
     13 C         -11.3775  -18.8867   24.4251 C.ar    1  UNL1        0.0124
     14 C         -12.4991  -18.0832   23.8365 C.ar    1  UNL1        0.0791
     15 C         -12.2020  -16.9814   22.8629 C.ar    1  UNL1        0.0685
     16 CL        -13.3236  -16.1780   22.2744 Cl      1  UNL1       -0.0815
     17 C         -10.7832  -16.6831   22.4780 C.ar    1  UNL1        0.0266
     18 C         -13.9178  -18.3816   24.2215 C.1     1  UNL1        0.1013
     19 N         -15.3366  -18.6799   24.6064 N.1     1  UNL1       -0.1908
     20 C          -7.6041  -15.9008   23.1111 C.3     1  UNL1        0.1186
     21 C          -7.2878  -15.6666   24.5585 C.ar    1  UNL1        0.0082
     22 C          -8.3990  -15.5378   25.5578 C.ar    1  UNL1       -0.0018
     23 C          -8.0827  -15.3036   27.0052 C.ar    1  UNL1       -0.0002
     24 C          -6.6551  -15.1983   27.4534 C.ar    1  UNL1        0.0008
     25 C          -5.5438  -15.3272   26.4542 C.ar    1  UNL1        0.0111
     26 C          -5.8601  -15.5613   25.0067 C.ar    1  UNL1        0.0553
     27 CL         -4.7489  -15.6902   24.0075 Cl      1  UNL1       -0.0825
@<TRIPOS>BOND
     1     9    10    1
     2    10     2    1
     3     2     3    2
     4     2     4   am
     5     4     5    1
     6     5     6    1
     7     6     7    1
     8     7     1    1
     9     1    20    1
    10    20    21    1
    11    21    22   ar
    12    22    23   ar
    13    23    24   ar
    14    24    25   ar
    15    25    26   ar
    16    26    27    1
    17     1    11    1
    18    11    12   ar
    19    12    13   ar
    20    13    14   ar
    21    14    18    1
    22    18    19    3
    23    14    15   ar
    24    15    16    1
    25    15    17   ar
    26     7     8    1
    27     8     4    1
    28    26    21   ar
    29    17    11   ar
@<TRIPOS>MOLECULE
*****
 27 29 0 0 0
SMALL
GASTEIGER

@<TRIPOS>ATOM
      1 N          -7.8054  -18.7350   21.5950 N.pl3   1  UNL1       -0.3034
      2 C          -2.5889  -19.5467   21.4972 C.2     1  UNL1        0.4050
      3 O          -1.6185  -20.4819   20.8388 O.2     1  UNL1       -0.2262
      4 N          -4.0587  -19.6802   21.2291 N.am    1  UNL1       -0.2443
      5 C          -4.7025  -20.6947   20.3312 C.3     1  UNL1        0.0986
      6 C          -6.1845  -20.4641   20.3590 C.3     1  UNL1        0.0431
      7 C          -6.4564  -19.3071   21.2740 C.3     1  UNL1        0.0947
      8 C          -5.1426  -18.8226   21.8118 C.3     1  UNL1        0.1164
      9 C          -2.0626  -17.0474   21.9734 C.3     1  UNL1        0.2573
     10 O          -2.0895  -18.4779   22.4237 O.3     1  UNL1       -0.4304
     11 C          -7.9993  -17.9260   22.8432 C.ar    1  UNL1        0.0490
     12 C          -9.0768  -18.2979   23.8181 C.ar    1  UNL1        0.0153
     13 C          -9.2708  -17.4889   25.0663 C.ar    1  UNL1        0.0124
     14 C          -8.3872  -16.3080   25.3395 C.ar    1  UNL1        0.0791
     15 C          -7.3096  -15.9360   24.3645 C.ar    1  UNL1        0.0685
     16 CL         -6.4260  -14.7551   24.6377 Cl      1  UNL1       -0.0815
     17 C          -7.1157  -16.7450   23.1163 C.ar    1  UNL1        0.0266
     18 C          -8.5811  -15.4991   26.5877 C.1     1  UNL1        0.1013
     19 N          -8.7750  -14.6901   27.8359 N.1     1  UNL1       -0.1908
     20 C          -8.9605  -18.9719   20.6678 C.3     1  UNL1        0.1186
     21 C         -10.2475  -18.2278   20.8676 C.ar    1  UNL1        0.0082
     22 C         -10.3667  -16.8015   20.4189 C.ar    1  UNL1       -0.0018
     23 C         -11.6538  -16.0575   20.6187 C.ar    1  UNL1       -0.0002
     24 C         -12.8216  -16.7397   21.2673 C.ar    1  UNL1        0.0008
     25 C         -12.7024  -18.1661   21.7161 C.ar    1  UNL1        0.0111
     26 C         -11.4153  -18.9102   21.5162 C.ar    1  UNL1        0.0553
     27 CL        -11.2961  -20.3365   21.9650 Cl      1  UNL1       -0.0825
@<TRIPOS>BOND
     1     9    10    1
     2    10     2    1
     3     2     3    2
     4     2     4   am
     5     4     5    1
     6     5     6    1
     7     6     7    1
     8     7     1    1
     9     1    20    1
    10    20    21    1
    11    21    22   ar
    12    22    23   ar
    13    23    24   ar
    14    24    25   ar
    15    25    26   ar
    16    26    27    1
    17     1    11    1
    18    11    12   ar
    19    12    13   ar
    20    13    14   ar
    21    14    18    1
    22    18    19    3
    23    14    15   ar
    24    15    16    1
    25    15    17   ar
    26     7     8    1
    27     8     4    1
    28    26    21   ar
    29    17    11   ar
@<TRIPOS>MOLECULE
*****
 27 29 0 0 0
SMALL
GASTEIGER

@<TRIPOS>ATOM
      1 N          -7.7377  -18.4181   21.8551 N.pl3   1  UNL1       -0.3034
      2 C          -7.7237  -15.3712   26.1675 C.2     1  UNL1        0.4050
      3 O          -8.5314  -15.2100   27.4211 O.2     1  UNL1       -0.2262
      4 N          -8.1019  -16.4170   25.1610 N.am    1  UNL1       -0.2443
      5 C          -9.2555  -17.3695   25.2702 C.3     1  UNL1        0.0986
      6 C          -9.2594  -18.2351   24.0451 C.3     1  UNL1        0.0431
      7 C          -8.1083  -17.8175   23.1788 C.3     1  UNL1        0.0947
      8 C          -7.3929  -16.6938   23.8684 C.3     1  UNL1        0.1164
      9 C          -5.1508  -15.0528   25.9971 C.3     1  UNL1        0.2573
     10 O          -6.5377  -14.4866   25.9206 O.3     1  UNL1       -0.4304
     11 C          -6.2941  -18.5526   21.4704 C.ar    1  UNL1        0.0490
     12 C          -5.9251  -18.9997   20.0870 C.ar    1  UNL1        0.0153
     13 C          -4.4815  -19.1342   19.7023 C.ar    1  UNL1        0.0124
     14 C          -3.4069  -18.8215   20.7010 C.ar    1  UNL1        0.0791
     15 C          -3.7759  -18.3743   22.0845 C.ar    1  UNL1        0.0685
     16 CL         -2.7013  -18.0616   23.0832 Cl      1  UNL1       -0.0815
     17 C          -5.2195  -18.2398   22.4692 C.ar    1  UNL1        0.0266
     18 C          -1.9634  -18.9560   20.3163 C.1     1  UNL1        0.1013
     19 N          -0.5198  -19.0904   19.9316 N.1     1  UNL1       -0.1908
     20 C          -8.8106  -18.8842   20.9163 C.3     1  UNL1        0.1186
     21 C         -10.1460  -18.2011   20.9049 C.ar    1  UNL1        0.0082
     22 C         -10.2727  -16.8111   20.3556 C.ar    1  UNL1       -0.0018
     23 C         -11.6080  -16.1280   20.3442 C.ar    1  UNL1       -0.0002
     24 C         -12.8167  -16.8348   20.8822 C.ar    1  UNL1        0.0008
     25 C         -12.6900  -18.2249   21.4316 C.ar    1  UNL1        0.0111
     26 C         -11.3547  -18.9080   21.4429 C.ar    1  UNL1        0.0553
     27 CL        -11.2280  -20.2980   21.9922 Cl      1  UNL1       -0.0825
@<TRIPOS>BOND
     1     9    10    1
     2    10     2    1
     3     2     3    2
     4     2     4   am
     5     4     5    1
     6     5     6    1
     7     6     7    1
     8     7     1    1
     9     1    20    1
    10    20    21    1
    11    21    22   ar
    12    22    23   ar
    13    23    24   ar
    14    24    25   ar
    15    25    26   ar
    16    26    27    1
    17     1    11    1
    18    11    12   ar
    19    12    13   ar
    20    13    14   ar
    21    14    18    1
    22    18    19    3
    23    14    15   ar
    24    15    16    1
    25    15    17   ar
    26     7     8    1
    27     8     4    1
    28    26    21   ar
    29    17    11   ar
@<TRIPOS>MOLECULE
*****
 27 29 0 0 0
SMALL
GASTEIGER

@<TRIPOS>ATOM
      1 N          -8.3009  -17.1518   22.9343 N.pl3   1  UNL1       -0.3034
      2 C          -6.7396  -21.0905   19.7833 C.2     1  UNL1        0.4050
      3 O          -5.4740  -21.8319   19.4691 O.2     1  UNL1       -0.2262
      4 N          -6.7292  -19.9848   20.7967 N.am    1  UNL1       -0.2443
      5 C          -5.5359  -19.5109   21.5724 C.3     1  UNL1        0.0986
      6 C          -5.9794  -18.3920   22.4675 C.3     1  UNL1        0.0431
      7 C          -7.4468  -18.1744   22.2451 C.3     1  UNL1        0.0947
      8 C          -7.9102  -19.1588   21.2125 C.3     1  UNL1        0.1164
      9 C          -8.7726  -20.4140   18.3138 C.3     1  UNL1        0.2573
     10 O          -8.0155  -21.4550   19.0839 O.3     1  UNL1       -0.4304
     11 C          -9.7376  -17.4570   23.2389 C.ar    1  UNL1        0.0490
     12 C         -10.0833  -18.5444   24.2126 C.ar    1  UNL1        0.0153
     13 C         -11.5199  -18.8495   24.5172 C.ar    1  UNL1        0.0124
     14 C         -12.6110  -18.0672   23.8482 C.ar    1  UNL1        0.0791
     15 C         -12.2654  -16.9798   22.8745 C.ar    1  UNL1        0.0685
     16 CL        -13.3564  -16.1975   22.2055 Cl      1  UNL1       -0.0815
     17 C         -10.8287  -16.6746   22.5699 C.ar    1  UNL1        0.0266
     18 C         -14.0477  -18.3724   24.1528 C.1     1  UNL1        0.1013
     19 N         -15.4844  -18.6775   24.4575 N.1     1  UNL1       -0.1908
     20 C          -7.7183  -15.8242   23.3189 C.3     1  UNL1        0.1186
     21 C          -7.3579  -15.5492   24.7487 C.ar    1  UNL1        0.0082
     22 C          -8.4287  -15.5124   25.7984 C.ar    1  UNL1       -0.0018
     23 C          -8.0683  -15.2374   27.2282 C.ar    1  UNL1       -0.0002
     24 C          -6.6370  -14.9991   27.6084 C.ar    1  UNL1        0.0008
     25 C          -5.5660  -15.0359   26.5587 C.ar    1  UNL1        0.0111
     26 C          -5.9265  -15.3109   25.1289 C.ar    1  UNL1        0.0553
     27 CL         -4.8556  -15.3476   24.0792 Cl      1  UNL1       -0.0825
@<TRIPOS>BOND
     1     9    10    1
     2    10     2    1
     3     2     3    2
     4     2     4   am
     5     4     5    1
     6     5     6    1
     7     6     7    1
     8     7     1    1
     9     1    20    1
    10    20    21    1
    11    21    22   ar
    12    22    23   ar
    13    23    24   ar
    14    24    25   ar
    15    25    26   ar
    16    26    27    1
    17     1    11    1
    18    11    12   ar
    19    12    13   ar
    20    13    14   ar
    21    14    18    1
    22    18    19    3
    23    14    15   ar
    24    15    16    1
    25    15    17   ar
    26     7     8    1
    27     8     4    1
    28    26    21   ar
    29    17    11   ar
