@<TRIPOS>MOLECULE
*****
 35 38 0 0 0
SMALL
GASTEIGER

@<TRIPOS>ATOM
      1 C          -1.1466    4.7774   22.9984 C.3     1  UNL1        0.0308
      2 C          -2.5583    4.4145   22.6445 C.ar    1  UNL1       -0.0230
      3 C          -2.8375    3.5954   21.4193 C.ar    1  UNL1        0.0348
      4 C          -4.2492    3.2325   21.0653 C.ar    1  UNL1        0.0025
      5 C          -5.3818    3.6886   21.9366 C.ar    1  UNL1       -0.0031
      6 C          -5.1027    4.5077   23.1619 C.ar    1  UNL1       -0.0103
      7 C          -3.6909    4.8706   23.5158 C.ar    1  UNL1       -0.0273
      8 C          -3.4118    5.6897   24.7410 C.3     1  UNL1        0.0431
      9 C          -4.5443    6.1458   25.6123 C.3     1  UNL1        0.0772
     10 N          -5.9561    5.7829   25.2584 N.3     1  UNL1       -0.2657
     11 C          -6.2352    4.9638   24.0332 C.3     1  UNL1        0.0989
     12 C          -1.7049    3.1392   20.5479 C.ar    1  UNL1        0.2033
     13 N          -1.2591    3.7871   19.2706 N.ar    1  UNL1       -0.0556
     14 O          -0.0979    3.0034   18.7341 O.2     1  UNL1       -0.3324
     15 C           0.1738    1.8713   19.6800 C.ar    1  UNL1        0.2600
     16 N          -0.8193    1.9553   20.8009 N.ar    1  UNL1       -0.1870
     17 C           1.2498    0.8369   19.5310 C.ar    1  UNL1        0.0569
     18 C           1.1510   -0.4609   20.2767 C.ar    1  UNL1        0.0079
     19 C           2.2270   -1.4953   20.1277 C.ar    1  UNL1        0.0377
     20 C           3.4018   -1.2320   19.2330 C.ar    1  UNL1        0.1479
     21 C           3.5007    0.0658   18.4873 C.ar    1  UNL1        0.1024
     22 C           2.4246    1.1002   18.6363 C.ar    1  UNL1        0.0181
     23 C           4.6755    0.3291   17.5926 C.1     1  UNL1        0.1035
     24 N           5.8503    0.5924   16.6979 N.1     1  UNL1       -0.1907
     25 O           4.4778   -2.2664   19.0840 O.3     1  UNL1       -0.4785
     26 C           4.3743   -3.5680   19.8223 C.3     1  UNL1        0.1662
     27 C           4.7834   -3.6476   21.2633 C.3     1  UNL1        0.0472
     28 C           3.8616   -4.7900   19.1196 C.3     1  UNL1        0.0472
     29 C          -7.0887    6.2390   26.1297 C.3     1  UNL1        0.1169
     30 C          -8.3629    6.7290   25.5081 C.3     1  UNL1        0.1555
     31 O          -9.6145    5.9096   25.6182 O.3     1  UNL1       -0.3805
     32 H          -9.5026    5.0807   25.1270 H       1  UNL1        0.2105
     33 C          -6.9470    6.2052   27.6226 C.3     1  UNL1        0.1555
     34 O          -8.1597    6.0265   28.4872 O.3     1  UNL1       -0.3805
     35 H          -8.7382    6.7997   28.3965 H       1  UNL1        0.2105
@<TRIPOS>BOND
     1     1     2    1
     2     2     3   ar
     3     3    12    1
     4    12    13   ar
     5    13    14   ar
     6    14    15   ar
     7    15    17    1
     8    17    18   ar
     9    18    19   ar
    10    19    20   ar
    11    20    25    1
    12    25    26    1
    13    26    27    1
    14    26    28    1
    15    20    21   ar
    16    21    23    1
    17    23    24    3
    18    21    22   ar
    19    15    16   ar
    20     3     4   ar
    21     4     5   ar
    22     5     6   ar
    23     6     7   ar
    24     7     8    1
    25     8     9    1
    26     9    10    1
    27    10    29    1
    28    29    30    1
    29    30    31    1
    30    29    33    1
    31    33    34    1
    32    10    11    1
    33     7     2   ar
    34    16    12   ar
    35    11     6    1
    36    22    17   ar
    37    31    32    1
    38    34    35    1
@<TRIPOS>MOLECULE
*****
 35 38 0 0 0
SMALL
GASTEIGER

@<TRIPOS>ATOM
      1 C           0.8894    1.0468   22.5972 C.3     1  UNL1        0.0308
      2 C           1.2137    0.8055   21.1527 C.ar    1  UNL1       -0.0230
      3 C           0.5467    1.6241   20.0874 C.ar    1  UNL1        0.0348
      4 C           0.8710    1.3829   18.6429 C.ar    1  UNL1        0.0025
      5 C           1.8624    0.3230   18.2637 C.ar    1  UNL1       -0.0031
      6 C           2.5295   -0.4956   19.3290 C.ar    1  UNL1       -0.0103
      7 C           2.2052   -0.2544   20.7735 C.ar    1  UNL1       -0.0273
      8 C           2.8722   -1.0730   21.8388 C.3     1  UNL1        0.0431
      9 C           3.8636   -2.1328   21.4596 C.3     1  UNL1        0.0772
     10 N           4.1880   -2.3741   20.0151 N.3     1  UNL1       -0.2657
     11 C           3.5209   -1.5555   18.9498 C.3     1  UNL1        0.0989
     12 C          -0.4448    2.6840   20.4666 C.ar    1  UNL1        0.2033
     13 N          -0.2104    4.1651   20.4272 N.ar    1  UNL1       -0.0556
     14 O          -1.4654    4.8454   20.8880 O.2     1  UNL1       -0.3324
     15 C          -2.4754    3.7847   21.2121 C.ar    1  UNL1        0.2600
     16 N          -1.8446    2.4489   20.9516 N.ar    1  UNL1       -0.1870
     17 C          -3.8710    4.0187   21.7093 C.ar    1  UNL1        0.0569
     18 C          -4.2410    3.6386   23.1124 C.ar    1  UNL1        0.0079
     19 C          -5.6366    3.8726   23.6097 C.ar    1  UNL1        0.0377
     20 C          -6.6624    4.4868   22.7039 C.ar    1  UNL1        0.1479
     21 C          -6.2925    4.8669   21.3007 C.ar    1  UNL1        0.1024
     22 C          -4.8968    4.6328   20.8035 C.ar    1  UNL1        0.0181
     23 C          -7.3183    5.4811   20.3949 C.1     1  UNL1        0.1035
     24 N          -8.3441    6.0952   19.4890 N.1     1  UNL1       -0.1907
     25 O          -8.0581    4.7208   23.2011 O.3     1  UNL1       -0.4785
     26 C          -8.3629    5.9257   24.0408 C.3     1  UNL1        0.1662
     27 C          -9.6651    6.0148   24.7800 C.3     1  UNL1        0.0472
     28 C          -7.3656    7.0416   24.1414 C.3     1  UNL1        0.0472
     29 C           5.1794   -3.4340   19.6359 C.3     1  UNL1        0.1169
     30 C           6.5716   -3.3924   20.1928 C.3     1  UNL1        0.1555
     31 O           7.1208   -4.5786   20.9285 O.3     1  UNL1       -0.3805
     32 H           6.6213   -4.7094   21.7497 H       1  UNL1        0.2105
     33 C           4.7786   -4.5354   18.6998 C.3     1  UNL1        0.1555
     34 O           4.9724   -5.9678   19.1005 O.3     1  UNL1       -0.3805
     35 H           5.9207   -6.1567   19.1769 H       1  UNL1        0.2105
@<TRIPOS>BOND
     1     1     2    1
     2     2     3   ar
     3     3    12    1
     4    12    13   ar
     5    13    14   ar
     6    14    15   ar
     7    15    17    1
     8    17    18   ar
     9    18    19   ar
    10    19    20   ar
    11    20    25    1
    12    25    26    1
    13    26    27    1
    14    26    28    1
    15    20    21   ar
    16    21    23    1
    17    23    24    3
    18    21    22   ar
    19    15    16   ar
    20     3     4   ar
    21     4     5   ar
    22     5     6   ar
    23     6     7   ar
    24     7     8    1
    25     8     9    1
    26     9    10    1
    27    10    29    1
    28    29    30    1
    29    30    31    1
    30    29    33    1
    31    33    34    1
    32    10    11    1
    33     7     2   ar
    34    16    12   ar
    35    11     6    1
    36    22    17   ar
    37    31    32    1
    38    34    35    1
@<TRIPOS>MOLECULE
*****
 35 38 0 0 0
SMALL
GASTEIGER

@<TRIPOS>ATOM
      1 C          -4.1100    3.4287   19.7188 C.3     1  UNL1        0.0308
      2 C          -3.7272    3.6928   21.1449 C.ar    1  UNL1       -0.0230
      3 C          -2.3196    3.4477   21.6014 C.ar    1  UNL1        0.0348
      4 C          -1.9369    3.7118   23.0275 C.ar    1  UNL1        0.0025
      5 C          -2.9618    4.2211   23.9971 C.ar    1  UNL1       -0.0031
      6 C          -4.3695    4.4662   23.5407 C.ar    1  UNL1       -0.0103
      7 C          -4.7522    4.2021   22.1146 C.ar    1  UNL1       -0.0273
      8 C          -6.1599    4.4472   21.6581 C.3     1  UNL1        0.0431
      9 C          -7.1848    4.9564   22.6277 C.3     1  UNL1        0.0772
     10 N          -6.8021    5.2205   24.0538 N.3     1  UNL1       -0.2657
     11 C          -5.3944    4.9754   24.5103 C.3     1  UNL1        0.0989
     12 C          -1.2946    2.9384   20.6318 C.ar    1  UNL1        0.2033
     13 N          -1.0123    3.5018   19.2705 N.ar    1  UNL1       -0.0556
     14 O           0.0848    2.6880   18.6506 O.2     1  UNL1       -0.3324
     15 C           0.4804    1.6217   19.6287 C.ar    1  UNL1        0.2600
     16 N          -0.3721    1.7766   20.8531 N.ar    1  UNL1       -0.1870
     17 C           1.5421    0.5831   19.4192 C.ar    1  UNL1        0.0569
     18 C           1.4850   -0.7110   20.1756 C.ar    1  UNL1        0.0079
     19 C           2.5467   -1.7496   19.9661 C.ar    1  UNL1        0.0377
     20 C           3.6656   -1.4942   19.0002 C.ar    1  UNL1        0.1479
     21 C           3.7227   -0.2001   18.2438 C.ar    1  UNL1        0.1024
     22 C           2.6609    0.8385   18.4534 C.ar    1  UNL1        0.0181
     23 C           4.8416    0.0553   17.2779 C.1     1  UNL1        0.1035
     24 N           5.9604    0.3107   16.3120 N.1     1  UNL1       -0.1907
     25 O           4.7273   -2.5329   18.7907 O.3     1  UNL1       -0.4785
     26 C           4.7439   -3.7702   19.6386 C.3     1  UNL1        0.1662
     27 C           4.0641   -5.0180   19.1579 C.3     1  UNL1        0.0472
     28 C           5.4401   -3.7596   20.9672 C.3     1  UNL1        0.0472
     29 C          -7.8270    5.7298   25.0234 C.3     1  UNL1        0.1169
     30 C          -9.2880    5.5743   24.7211 C.3     1  UNL1        0.1555
     31 O         -10.2645    6.6148   25.1834 O.3     1  UNL1       -0.3805
     32 H         -10.2989    6.6180   26.1528 H       1  UNL1        0.2105
     33 C          -7.3910    6.3946   26.2954 C.3     1  UNL1        0.1555
     34 O          -8.4008    6.7205   27.3557 O.3     1  UNL1       -0.3805
     35 H          -9.0137    7.3943   27.0222 H       1  UNL1        0.2105
@<TRIPOS>BOND
     1     1     2    1
     2     2     3   ar
     3     3    12    1
     4    12    13   ar
     5    13    14   ar
     6    14    15   ar
     7    15    17    1
     8    17    18   ar
     9    18    19   ar
    10    19    20   ar
    11    20    25    1
    12    25    26    1
    13    26    27    1
    14    26    28    1
    15    20    21   ar
    16    21    23    1
    17    23    24    3
    18    21    22   ar
    19    15    16   ar
    20     3     4   ar
    21     4     5   ar
    22     5     6   ar
    23     6     7   ar
    24     7     8    1
    25     8     9    1
    26     9    10    1
    27    10    29    1
    28    29    30    1
    29    30    31    1
    30    29    33    1
    31    33    34    1
    32    10    11    1
    33     7     2   ar
    34    16    12   ar
    35    11     6    1
    36    22    17   ar
    37    31    32    1
    38    34    35    1
@<TRIPOS>MOLECULE
*****
 35 38 0 0 0
SMALL
GASTEIGER

@<TRIPOS>ATOM
      1 C          -1.3377    3.4222   22.5232 C.3     1  UNL1        0.0308
      2 C          -1.8964    3.4093   23.9151 C.ar    1  UNL1       -0.0230
      3 C          -1.0948    2.8239   25.0397 C.ar    1  UNL1        0.0348
      4 C          -1.6535    2.8111   26.4317 C.ar    1  UNL1        0.0025
      5 C          -3.0139    3.3837   26.6991 C.ar    1  UNL1       -0.0031
      6 C          -3.8156    3.9691   25.5746 C.ar    1  UNL1       -0.0103
      7 C          -3.2568    3.9820   24.1826 C.ar    1  UNL1       -0.0273
      8 C          -4.0584    4.5674   23.0580 C.3     1  UNL1        0.0431
      9 C          -5.4188    5.1400   23.3255 C.3     1  UNL1        0.0772
     10 N          -5.9775    5.1272   24.7175 N.3     1  UNL1       -0.2657
     11 C          -5.1759    4.5417   25.8420 C.3     1  UNL1        0.0989
     12 C           0.2656    2.2512   24.7723 C.ar    1  UNL1        0.2033
     13 N           1.5631    2.7693   25.3183 N.ar    1  UNL1       -0.0556
     14 O           2.6668    1.8983   24.7954 O.2     1  UNL1       -0.3324
     15 C           2.0513    0.8420   23.9262 C.ar    1  UNL1        0.2600
     16 N           0.5673    1.0601   23.9120 N.ar    1  UNL1       -0.1870
     17 C           2.7900   -0.2421   23.1991 C.ar    1  UNL1        0.0569
     18 C           2.5728   -0.4415   21.7283 C.ar    1  UNL1        0.0079
     19 C           3.3115   -1.5256   21.0011 C.ar    1  UNL1        0.0377
     20 C           4.2677   -2.4104   21.7446 C.ar    1  UNL1        0.1479
     21 C           4.4850   -2.2111   23.2154 C.ar    1  UNL1        0.1024
     22 C           3.7462   -1.1270   23.9426 C.ar    1  UNL1        0.0181
     23 C           5.4412   -3.0960   23.9590 C.1     1  UNL1        0.1035
     24 N           6.3973   -3.9809   24.7025 N.1     1  UNL1       -0.1907
     25 O           5.0065   -3.4946   21.0174 O.3     1  UNL1       -0.4785
     26 C           4.6568   -3.8162   19.5947 C.3     1  UNL1        0.1662
     27 C           3.5842   -4.8209   19.2947 C.3     1  UNL1        0.0472
     28 C           5.3799   -3.1331   18.4719 C.3     1  UNL1        0.0472
     29 C          -7.3379    5.6998   24.9849 C.3     1  UNL1        0.1169
     30 C          -7.5068    6.7871   26.0042 C.3     1  UNL1        0.1555
     31 O          -8.1087    6.4741   27.3421 O.3     1  UNL1       -0.3805
     32 H          -9.0361    6.2144   27.2267 H       1  UNL1        0.2105
     33 C          -8.5294    5.1850   24.2329 C.3     1  UNL1        0.1555
     34 O          -8.4506    3.8730   23.5102 O.3     1  UNL1       -0.3805
     35 H          -7.8160    3.9436   22.7801 H       1  UNL1        0.2105
@<TRIPOS>BOND
     1     1     2    1
     2     2     3   ar
     3     3    12    1
     4    12    13   ar
     5    13    14   ar
     6    14    15   ar
     7    15    17    1
     8    17    18   ar
     9    18    19   ar
    10    19    20   ar
    11    20    25    1
    12    25    26    1
    13    26    27    1
    14    26    28    1
    15    20    21   ar
    16    21    23    1
    17    23    24    3
    18    21    22   ar
    19    15    16   ar
    20     3     4   ar
    21     4     5   ar
    22     5     6   ar
    23     6     7   ar
    24     7     8    1
    25     8     9    1
    26     9    10    1
    27    10    29    1
    28    29    30    1
    29    30    31    1
    30    29    33    1
    31    33    34    1
    32    10    11    1
    33     7     2   ar
    34    16    12   ar
    35    11     6    1
    36    22    17   ar
    37    31    32    1
    38    34    35    1
@<TRIPOS>MOLECULE
*****
 35 38 0 0 0
SMALL
GASTEIGER

@<TRIPOS>ATOM
      1 C          -1.0846    2.4114   26.6832 C.3     1  UNL1        0.0308
      2 C          -1.5325    2.8963   25.3363 C.ar    1  UNL1       -0.0230
      3 C          -0.6521    2.7003   24.1378 C.ar    1  UNL1        0.0348
      4 C          -1.1000    3.1852   22.7908 C.ar    1  UNL1        0.0025
      5 C          -2.4282    3.8662   22.6424 C.ar    1  UNL1       -0.0031
      6 C          -3.3087    4.0622   23.8409 C.ar    1  UNL1       -0.0103
      7 C          -2.8608    3.5773   25.1879 C.ar    1  UNL1       -0.0273
      8 C          -3.7412    3.7733   26.3864 C.3     1  UNL1        0.0431
      9 C          -5.0694    4.4542   26.2379 C.3     1  UNL1        0.0772
     10 N          -5.5173    4.9391   24.8910 N.3     1  UNL1       -0.2657
     11 C          -4.6369    4.7431   23.6925 C.3     1  UNL1        0.0989
     12 C           0.6762    2.0194   24.2862 C.ar    1  UNL1        0.2033
     13 N           1.8155    2.4865   25.1428 N.ar    1  UNL1       -0.0556
     14 O           2.9419    1.5076   24.9901 O.2     1  UNL1       -0.3324
     15 C           2.4986    0.4356   24.0391 C.ar    1  UNL1        0.2600
     16 N           1.0984    0.7519   23.6040 N.ar    1  UNL1       -0.1870
     17 C           3.3126   -0.7453   23.6002 C.ar    1  UNL1        0.0569
     18 C           4.1725   -1.4734   24.5904 C.ar    1  UNL1        0.0079
     19 C           4.9865   -2.6543   24.1515 C.ar    1  UNL1        0.0377
     20 C           4.9407   -3.1072   22.7223 C.ar    1  UNL1        0.1479
     21 C           4.0809   -2.3792   21.7319 C.ar    1  UNL1        0.1024
     22 C           3.2669   -1.1983   22.1709 C.ar    1  UNL1        0.0181
     23 C           4.0352   -2.8322   20.3027 C.1     1  UNL1        0.1035
     24 N           3.9894   -3.2851   18.8734 N.1     1  UNL1       -0.1907
     25 O           5.7548   -4.2882   22.2834 O.3     1  UNL1       -0.4785
     26 C           7.2380   -4.1523   22.1053 C.3     1  UNL1        0.1662
     27 C           7.7991   -3.7373   20.7775 C.3     1  UNL1        0.0472
     28 C           8.1600   -4.4314   23.2550 C.3     1  UNL1        0.0472
     29 C          -6.8456    5.6201   24.7426 C.3     1  UNL1        0.1169
     30 C          -7.7276    5.2969   23.5732 C.3     1  UNL1        0.1555
     31 O          -8.2161    3.8936   23.3674 O.3     1  UNL1       -0.3805
     32 H          -7.4635    3.3152   23.1678 H       1  UNL1        0.2105
     33 C          -7.2919    6.6242   25.7637 C.3     1  UNL1        0.1555
     34 O          -8.5042    6.3514   26.6038 O.3     1  UNL1       -0.3805
     35 H          -9.2921    6.3338   26.0384 H       1  UNL1        0.2105
@<TRIPOS>BOND
     1     1     2    1
     2     2     3   ar
     3     3    12    1
     4    12    13   ar
     5    13    14   ar
     6    14    15   ar
     7    15    17    1
     8    17    18   ar
     9    18    19   ar
    10    19    20   ar
    11    20    25    1
    12    25    26    1
    13    26    27    1
    14    26    28    1
    15    20    21   ar
    16    21    23    1
    17    23    24    3
    18    21    22   ar
    19    15    16   ar
    20     3     4   ar
    21     4     5   ar
    22     5     6   ar
    23     6     7   ar
    24     7     8    1
    25     8     9    1
    26     9    10    1
    27    10    29    1
    28    29    30    1
    29    30    31    1
    30    29    33    1
    31    33    34    1
    32    10    11    1
    33     7     2   ar
    34    16    12   ar
    35    11     6    1
    36    22    17   ar
    37    31    32    1
    38    34    35    1
@<TRIPOS>MOLECULE
*****
 35 38 0 0 0
SMALL
GASTEIGER

@<TRIPOS>ATOM
      1 C          -1.3094    2.6387   25.9372 C.3     1  UNL1        0.0308
      2 C          -1.9253    3.2349   24.7063 C.ar    1  UNL1       -0.0230
      3 C          -1.1885    3.1874   23.4007 C.ar    1  UNL1        0.0348
      4 C          -1.8044    3.7836   22.1697 C.ar    1  UNL1        0.0025
      5 C          -3.1571    4.4274   22.2445 C.ar    1  UNL1       -0.0031
      6 C          -3.8940    4.4750   23.5502 C.ar    1  UNL1       -0.0103
      7 C          -3.2781    3.8788   24.7811 C.ar    1  UNL1       -0.0273
      8 C          -4.0149    3.9263   26.0868 C.3     1  UNL1        0.0431
      9 C          -5.3676    4.5701   26.1615 C.3     1  UNL1        0.0772
     10 N          -5.9835    5.1664   24.9306 N.3     1  UNL1       -0.2657
     11 C          -5.2467    5.1188   23.6249 C.3     1  UNL1        0.0989
     12 C           0.1643    2.5435   23.3259 C.ar    1  UNL1        0.2033
     13 N           1.4372    3.0981   23.8936 N.ar    1  UNL1       -0.0556
     14 O           2.5413    2.1295   23.5888 O.2     1  UNL1       -0.3324
     15 C           1.9507    0.9763   22.8328 C.ar    1  UNL1        0.2600
     16 N           0.4817    1.2323   22.6703 N.ar    1  UNL1       -0.1870
     17 C           2.6979   -0.2223   22.3279 C.ar    1  UNL1        0.0569
     18 C           2.5331   -0.6639   20.9039 C.ar    1  UNL1        0.0079
     19 C           3.2804   -1.8624   20.3991 C.ar    1  UNL1        0.0377
     20 C           4.1925   -2.6195   21.3182 C.ar    1  UNL1        0.1479
     21 C           4.3574   -2.1780   22.7423 C.ar    1  UNL1        0.1024
     22 C           3.6101   -0.9793   23.2471 C.ar    1  UNL1        0.0181
     23 C           5.2695   -2.9351   23.6614 C.1     1  UNL1        0.1035
     24 N           6.1816   -3.6922   24.5806 N.1     1  UNL1       -0.1907
     25 O           4.9398   -3.8182   20.8133 O.3     1  UNL1       -0.4785
     26 C           5.1061   -4.0316   19.3380 C.3     1  UNL1        0.1662
     27 C           5.8348   -3.0146   18.5105 C.3     1  UNL1        0.0472
     28 C           4.5438   -5.2621   18.6901 C.3     1  UNL1        0.0472
     29 C          -7.3363    5.8102   25.0054 C.3     1  UNL1        0.1169
     30 C          -8.4184    5.3945   24.0535 C.3     1  UNL1        0.1555
     31 O          -8.5026    3.9706   23.5892 O.3     1  UNL1       -0.3805
     32 H          -7.7234    3.7592   23.0515 H       1  UNL1        0.2105
     33 C          -7.6069    6.8697   26.0321 C.3     1  UNL1        0.1555
     34 O          -9.0134    7.3230   26.2894 O.3     1  UNL1       -0.3805
     35 H          -9.3586    7.7695   25.5005 H       1  UNL1        0.2105
@<TRIPOS>BOND
     1     1     2    1
     2     2     3   ar
     3     3    12    1
     4    12    13   ar
     5    13    14   ar
     6    14    15   ar
     7    15    17    1
     8    17    18   ar
     9    18    19   ar
    10    19    20   ar
    11    20    25    1
    12    25    26    1
    13    26    27    1
    14    26    28    1
    15    20    21   ar
    16    21    23    1
    17    23    24    3
    18    21    22   ar
    19    15    16   ar
    20     3     4   ar
    21     4     5   ar
    22     5     6   ar
    23     6     7   ar
    24     7     8    1
    25     8     9    1
    26     9    10    1
    27    10    29    1
    28    29    30    1
    29    30    31    1
    30    29    33    1
    31    33    34    1
    32    10    11    1
    33     7     2   ar
    34    16    12   ar
    35    11     6    1
    36    22    17   ar
    37    31    32    1
    38    34    35    1
@<TRIPOS>MOLECULE
*****
 35 38 0 0 0
SMALL
GASTEIGER

@<TRIPOS>ATOM
      1 C           8.3446   -0.9378   32.5398 C.3     1  UNL1        0.0308
      2 C           6.9656   -1.2735   33.0250 C.ar    1  UNL1       -0.0230
      3 C           6.1383   -2.2870   32.2913 C.ar    1  UNL1        0.0348
      4 C           4.7593   -2.6227   32.7765 C.ar    1  UNL1        0.0025
      5 C           4.2074   -1.9448   33.9955 C.ar    1  UNL1       -0.0031
      6 C           5.0346   -0.9312   34.7293 C.ar    1  UNL1       -0.0103
      7 C           6.4137   -0.5955   34.2441 C.ar    1  UNL1       -0.0273
      8 C           7.2409    0.4180   34.9778 C.3     1  UNL1        0.0431
      9 C           6.6890    1.0958   36.1968 C.3     1  UNL1        0.0772
     10 N           5.3099    0.7602   36.6820 N.3     1  UNL1       -0.2657
     11 C           4.4827   -0.2534   35.9482 C.3     1  UNL1        0.0989
     12 C           6.6902   -2.9649   31.0723 C.ar    1  UNL1        0.2033
     13 N           7.5915   -4.1639   31.0623 N.ar    1  UNL1       -0.0556
     14 O           7.8960   -4.5029   29.6331 O.2     1  UNL1       -0.3324
     15 C           7.1829   -3.5133   28.7599 C.ar    1  UNL1        0.2600
     16 N           6.4377   -2.5628   29.6494 N.ar    1  UNL1       -0.1870
     17 C           7.2102   -3.4802   27.2606 C.ar    1  UNL1        0.0569
     18 C           6.9077   -2.2038   26.5329 C.ar    1  UNL1        0.0079
     19 C           6.9351   -2.1706   25.0336 C.ar    1  UNL1        0.0377
     20 C           7.2649   -3.4138   24.2618 C.ar    1  UNL1        0.1479
     21 C           7.5674   -4.6902   24.9894 C.ar    1  UNL1        0.1024
     22 C           7.5400   -4.7233   26.4888 C.ar    1  UNL1        0.0181
     23 C           7.8972   -5.9334   24.2176 C.1     1  UNL1        0.1035
     24 N           8.2270   -7.1766   23.4457 N.1     1  UNL1       -0.1907
     25 O           7.2922   -3.3806   22.7624 O.3     1  UNL1       -0.4785
     26 C           6.0156   -3.5128   21.9859 C.3     1  UNL1        0.1662
     27 C           4.7004   -3.5518   22.7060 C.3     1  UNL1        0.0472
     28 C           6.0544   -3.6060   20.4893 C.3     1  UNL1        0.0472
     29 C           4.7580    1.4381   37.9010 C.3     1  UNL1        0.1169
     30 C           3.3321    1.2087   38.3059 C.3     1  UNL1        0.1555
     31 O           3.0219    0.5194   39.6015 O.3     1  UNL1       -0.3805
     32 H           3.3287   -0.3999   39.5603 H       1  UNL1        0.2105
     33 C           5.6322    2.3453   38.7151 C.3     1  UNL1        0.1555
     34 O           5.3656    2.5279   40.1798 O.3     1  UNL1       -0.3805
     35 H           4.5125    2.9737   40.3001 H       1  UNL1        0.2105
@<TRIPOS>BOND
     1     1     2    1
     2     2     3   ar
     3     3    12    1
     4    12    13   ar
     5    13    14   ar
     6    14    15   ar
     7    15    17    1
     8    17    18   ar
     9    18    19   ar
    10    19    20   ar
    11    20    25    1
    12    25    26    1
    13    26    27    1
    14    26    28    1
    15    20    21   ar
    16    21    23    1
    17    23    24    3
    18    21    22   ar
    19    15    16   ar
    20     3     4   ar
    21     4     5   ar
    22     5     6   ar
    23     6     7   ar
    24     7     8    1
    25     8     9    1
    26     9    10    1
    27    10    29    1
    28    29    30    1
    29    30    31    1
    30    29    33    1
    31    33    34    1
    32    10    11    1
    33     7     2   ar
    34    16    12   ar
    35    11     6    1
    36    22    17   ar
    37    31    32    1
    38    34    35    1
@<TRIPOS>MOLECULE
*****
 35 38 0 0 0
SMALL
GASTEIGER

@<TRIPOS>ATOM
      1 C          -3.0761    3.5365   20.4022 C.3     1  UNL1        0.0308
      2 C          -3.1205    3.6888   21.8938 C.ar    1  UNL1       -0.0230
      3 C          -1.8917    3.4224   22.7118 C.ar    1  UNL1        0.0348
      4 C          -1.9361    3.5747   24.2034 C.ar    1  UNL1        0.0025
      5 C          -3.2093    3.9934   24.8769 C.ar    1  UNL1       -0.0031
      6 C          -4.4381    4.2598   24.0589 C.ar    1  UNL1       -0.0103
      7 C          -4.3937    4.1075   22.5673 C.ar    1  UNL1       -0.0273
      8 C          -5.6225    4.3738   21.7493 C.3     1  UNL1        0.0431
      9 C          -6.8956    4.7925   22.4229 C.3     1  UNL1        0.0772
     10 N          -6.9400    4.9448   23.9145 N.3     1  UNL1       -0.2657
     11 C          -5.7113    4.6785   24.7325 C.3     1  UNL1        0.0989
     12 C          -0.6185    3.0037   22.0382 C.ar    1  UNL1        0.2033
     13 N           0.4061    3.9221   21.4407 N.ar    1  UNL1       -0.0556
     14 O           1.5115    3.0791   20.8771 O.2     1  UNL1       -0.3324
     15 C           1.1701    1.6399   21.1263 C.ar    1  UNL1        0.2600
     16 N          -0.1463    1.5933   21.8439 N.ar    1  UNL1       -0.1870
     17 C           1.9994    0.4553   20.7279 C.ar    1  UNL1        0.0569
     18 C           2.1542    0.1014   19.2785 C.ar    1  UNL1        0.0079
     19 C           2.9835   -1.0832   18.8800 C.ar    1  UNL1        0.0377
     20 C           3.6581   -1.9140   19.9310 C.ar    1  UNL1        0.1479
     21 C           3.5034   -1.5602   21.3805 C.ar    1  UNL1        0.1024
     22 C           2.6740   -0.3755   21.7789 C.ar    1  UNL1        0.0181
     23 C           4.1781   -2.3911   22.4315 C.1     1  UNL1        0.1035
     24 N           4.8527   -3.2219   23.4825 N.1     1  UNL1       -0.1907
     25 O           4.4875   -3.0987   19.5326 O.3     1  UNL1       -0.4785
     26 C           5.9471   -2.9258   19.2331 C.3     1  UNL1        0.1662
     27 C           6.3801   -2.3640   17.9114 C.3     1  UNL1        0.0472
     28 C           6.9736   -3.3147   20.2554 C.3     1  UNL1        0.0472
     29 C          -8.2133    5.3635   24.5881 C.3     1  UNL1        0.1169
     30 C          -9.4956    4.6500   24.2777 C.3     1  UNL1        0.1555
     31 O          -9.4702    3.2104   23.8570 O.3     1  UNL1       -0.3805
     32 H          -9.0289    3.1328   22.9966 H       1  UNL1        0.2105
     33 C          -8.2040    6.4957   25.5720 C.3     1  UNL1        0.1555
     34 O          -8.2117    6.2098   27.0444 O.3     1  UNL1       -0.3805
     35 H          -9.0515    5.7900   27.2879 H       1  UNL1        0.2105
@<TRIPOS>BOND
     1     1     2    1
     2     2     3   ar
     3     3    12    1
     4    12    13   ar
     5    13    14   ar
     6    14    15   ar
     7    15    17    1
     8    17    18   ar
     9    18    19   ar
    10    19    20   ar
    11    20    25    1
    12    25    26    1
    13    26    27    1
    14    26    28    1
    15    20    21   ar
    16    21    23    1
    17    23    24    3
    18    21    22   ar
    19    15    16   ar
    20     3     4   ar
    21     4     5   ar
    22     5     6   ar
    23     6     7   ar
    24     7     8    1
    25     8     9    1
    26     9    10    1
    27    10    29    1
    28    29    30    1
    29    30    31    1
    30    29    33    1
    31    33    34    1
    32    10    11    1
    33     7     2   ar
    34    16    12   ar
    35    11     6    1
    36    22    17   ar
    37    31    32    1
    38    34    35    1
@<TRIPOS>MOLECULE
*****
 35 38 0 0 0
SMALL
GASTEIGER

@<TRIPOS>ATOM
      1 C           3.7773   -0.8416   25.5080 C.3     1  UNL1        0.0308
      2 C           3.1294   -0.5099   24.1964 C.ar    1  UNL1       -0.0230
      3 C           2.1338    0.6090   24.1135 C.ar    1  UNL1        0.0348
      4 C           1.4859    0.9408   22.8019 C.ar    1  UNL1        0.0025
      5 C           1.8335    0.1536   21.5734 C.ar    1  UNL1       -0.0031
      6 C           2.8291   -0.9654   21.6563 C.ar    1  UNL1       -0.0103
      7 C           3.4770   -1.2971   22.9678 C.ar    1  UNL1       -0.0273
      8 C           4.4725   -2.4160   23.0507 C.3     1  UNL1        0.0431
      9 C           4.8201   -3.2032   21.8222 C.3     1  UNL1        0.0772
     10 N           4.1722   -2.8715   20.5106 N.3     1  UNL1       -0.2657
     11 C           3.1767   -1.7526   20.4277 C.3     1  UNL1        0.0989
     12 C           1.7862    1.3963   25.3421 C.ar    1  UNL1        0.2033
     13 N           1.1687    2.7631   25.3680 N.ar    1  UNL1       -0.0556
     14 O           0.9959    3.1665   26.8024 O.2     1  UNL1       -0.3324
     15 C           1.5066    2.0490   27.6630 C.ar    1  UNL1        0.2600
     16 N           1.9950    0.9550   26.7604 N.ar    1  UNL1       -0.1870
     17 C           1.5255    2.0291   29.1626 C.ar    1  UNL1        0.0569
     18 C           0.7628    3.0634   29.9362 C.ar    1  UNL1        0.0079
     19 C           0.7817    3.0435   31.4359 C.ar    1  UNL1        0.0377
     20 C           1.5634    1.9892   32.1622 C.ar    1  UNL1        0.1479
     21 C           2.3262    0.9547   31.3886 C.ar    1  UNL1        0.1024
     22 C           2.3072    0.9748   29.8889 C.ar    1  UNL1        0.0181
     23 C           3.1078   -0.0996   32.1149 C.1     1  UNL1        0.1035
     24 N           3.8895   -1.1538   32.8411 N.1     1  UNL1       -0.1907
     25 O           1.5823    1.9692   33.6619 O.3     1  UNL1       -0.4785
     26 C           2.3784    2.9930   34.4156 C.3     1  UNL1        0.1662
     27 C           1.7079    4.2291   34.9375 C.3     1  UNL1        0.0472
     28 C           3.8451    2.7806   34.6474 C.3     1  UNL1        0.0472
     29 C           4.5198   -3.6587   19.2820 C.3     1  UNL1        0.1169
     30 C           5.3561   -3.0358   18.2038 C.3     1  UNL1        0.1555
     31 O           4.7091   -2.1908   17.1467 O.3     1  UNL1       -0.3805
     32 H           4.1275   -2.7438   16.6018 H       1  UNL1        0.2105
     33 C           4.0311   -5.0689   19.1316 C.3     1  UNL1        0.1555
     34 O           3.4078   -5.7751   20.2989 O.3     1  UNL1       -0.3805
     35 H           4.0749   -5.9075   20.9905 H       1  UNL1        0.2105
@<TRIPOS>BOND
     1     1     2    1
     2     2     3   ar
     3     3    12    1
     4    12    13   ar
     5    13    14   ar
     6    14    15   ar
     7    15    17    1
     8    17    18   ar
     9    18    19   ar
    10    19    20   ar
    11    20    25    1
    12    25    26    1
    13    26    27    1
    14    26    28    1
    15    20    21   ar
    16    21    23    1
    17    23    24    3
    18    21    22   ar
    19    15    16   ar
    20     3     4   ar
    21     4     5   ar
    22     5     6   ar
    23     6     7   ar
    24     7     8    1
    25     8     9    1
    26     9    10    1
    27    10    29    1
    28    29    30    1
    29    30    31    1
    30    29    33    1
    31    33    34    1
    32    10    11    1
    33     7     2   ar
    34    16    12   ar
    35    11     6    1
    36    22    17   ar
    37    31    32    1
    38    34    35    1
