@<TRIPOS>MOLECULE
*****
 27 29 0 0 0
SMALL
GASTEIGER

@<TRIPOS>ATOM
      1 N          -6.4896  -17.2608   23.1322 N.3     1  UNL1       -0.2713
      2 C          -6.5742  -18.4891   22.2755 C.3     1  UNL1        0.0749
      3 C          -7.9071  -19.1172   21.9944 C.3     1  UNL1        0.0485
      4 C          -9.1554  -18.5169   22.5701 C.3     1  UNL1        0.1096
      5 O          -9.7446  -19.6767   21.8232 O.3     1  UNL1       -0.3826
      6 C          -9.0708  -17.2885   23.4269 C.3     1  UNL1        0.0485
      7 C          -7.7380  -16.6605   23.7079 C.3     1  UNL1        0.0749
      8 H          -9.0354  -20.1737   21.3861 H       1  UNL1        0.2107
      9 C         -10.6083  -18.3195   22.8865 C.ar    1  UNL1        0.0018
     10 C         -11.5094  -17.6542   21.8888 C.ar    1  UNL1       -0.0020
     11 C         -12.9623  -17.4566   22.2051 C.ar    1  UNL1       -0.0002
     12 C         -13.5141  -17.9245   23.5192 C.ar    1  UNL1       -0.0000
     13 C         -12.6131  -18.5898   24.5168 C.ar    1  UNL1       -0.0002
     14 C         -11.1601  -18.7873   24.2005 C.ar    1  UNL1       -0.0020
     15 C          -5.0628  -15.1591   23.6774 C.3     1  UNL1        0.0203
     16 C          -5.1568  -16.6327   23.4132 C.3     1  UNL1        0.0888
     17 C          -3.9179  -17.4781   23.4300 C.3     1  UNL1        0.1472
     18 O          -3.5348  -18.2226   24.6746 O.3     1  UNL1       -0.3787
     19 H          -2.7148  -18.7162   24.5166 H       1  UNL1        0.2108
     20 C          -3.0620  -17.5791   22.2022 C.ar    1  UNL1        0.0058
     21 C          -3.1606  -18.7855   21.3164 C.ar    1  UNL1        0.0012
     22 C          -2.3048  -18.8864   20.0887 C.ar    1  UNL1        0.0364
     23 C          -1.3503  -17.7809   19.7468 C.ar    1  UNL1        0.1337
     24 O          -0.4945  -17.8818   18.5190 O.3     1  UNL1       -0.5055
     25 C          -1.2517  -16.5745   20.6327 C.ar    1  UNL1        0.0364
     26 C          -2.1076  -16.4736   21.8604 C.ar    1  UNL1        0.0012
     27 H          -0.5561  -18.6355   17.9657 H       1  UNL1        0.2922
@<TRIPOS>BOND
     1    16    15    1
     2    16    17    1
     3    17    18    1
     4    17    20    1
     5    20    21   ar
     6    21    22   ar
     7    22    23   ar
     8    23    24    1
     9    23    25   ar
    10    25    26   ar
    11    16     1    1
    12     1     2    1
    13     2     3    1
    14     3     4    1
    15     4     5    1
    16     4     9    1
    17     9    10   ar
    18    10    11   ar
    19    11    12   ar
    20    12    13   ar
    21    13    14   ar
    22     4     6    1
    23     6     7    1
    24    26    20   ar
    25     7     1    1
    26    14     9   ar
    27    18    19    1
    28    24    27    1
    29     5     8    1
@<TRIPOS>MOLECULE
*****
 27 29 0 0 0
SMALL
GASTEIGER

@<TRIPOS>ATOM
      1 N          -6.8856  -18.8472   22.2734 N.3     1  UNL1       -0.2713
      2 C          -6.7462  -17.4294   22.7430 C.3     1  UNL1        0.0749
      3 C          -7.9510  -16.6771   23.2251 C.3     1  UNL1        0.0485
      4 C          -9.2953  -17.3425   23.2376 C.3     1  UNL1        0.1096
      5 O          -9.6676  -15.9930   23.7765 O.3     1  UNL1       -0.3826
      6 C          -9.4348  -18.7603   22.7681 C.3     1  UNL1        0.0485
      7 C          -8.2299  -19.5126   22.2860 C.3     1  UNL1        0.0749
      8 H          -8.8756  -15.4353   23.8270 H       1  UNL1        0.2107
      9 C         -10.7689  -17.5393   23.4374 C.ar    1  UNL1        0.0018
     10 C         -11.2628  -18.5310   24.4484 C.ar    1  UNL1       -0.0020
     11 C         -12.7364  -18.7278   24.6482 C.ar    1  UNL1       -0.0002
     12 C         -13.7160  -17.9328   23.8367 C.ar    1  UNL1       -0.0000
     13 C         -13.2220  -16.9410   22.8257 C.ar    1  UNL1       -0.0002
     14 C         -11.7484  -16.7443   22.6259 C.ar    1  UNL1       -0.0020
     15 C          -5.8520  -20.8723   21.0161 C.3     1  UNL1        0.0203
     16 C          -5.6808  -19.5995   21.7913 C.3     1  UNL1        0.0888
     17 C          -4.3049  -19.0791   22.0844 C.3     1  UNL1        0.1472
     18 O          -3.8573  -18.9008   23.5049 O.3     1  UNL1       -0.3787
     19 H          -2.9496  -18.5588   23.5173 H       1  UNL1        0.2108
     20 C          -3.3765  -18.7371   20.9569 C.ar    1  UNL1        0.0058
     21 C          -1.8930  -18.7420   21.1791 C.ar    1  UNL1        0.0012
     22 C          -0.9647  -18.4000   20.0517 C.ar    1  UNL1        0.0364
     23 C          -1.5198  -18.0532   18.7020 C.ar    1  UNL1        0.1337
     24 O          -0.5913  -17.7111   17.5745 O.3     1  UNL1       -0.5055
     25 C          -3.0032  -18.0483   18.4798 C.ar    1  UNL1        0.0364
     26 C          -3.9315  -18.3903   19.6072 C.ar    1  UNL1        0.0012
     27 H           0.3353  -17.7142   17.7133 H       1  UNL1        0.2922
@<TRIPOS>BOND
     1    16    15    1
     2    16    17    1
     3    17    18    1
     4    17    20    1
     5    20    21   ar
     6    21    22   ar
     7    22    23   ar
     8    23    24    1
     9    23    25   ar
    10    25    26   ar
    11    16     1    1
    12     1     2    1
    13     2     3    1
    14     3     4    1
    15     4     5    1
    16     4     9    1
    17     9    10   ar
    18    10    11   ar
    19    11    12   ar
    20    12    13   ar
    21    13    14   ar
    22     4     6    1
    23     6     7    1
    24    26    20   ar
    25     7     1    1
    26    14     9   ar
    27    18    19    1
    28    24    27    1
    29     5     8    1
@<TRIPOS>MOLECULE
*****
 27 29 0 0 0
SMALL
GASTEIGER

@<TRIPOS>ATOM
      1 N          -6.0844  -17.1435   23.2121 N.3     1  UNL1       -0.2713
      2 C          -6.5498  -16.0403   24.1155 C.3     1  UNL1        0.0749
      3 C          -8.0062  -15.6874   24.1796 C.3     1  UNL1        0.0485
      4 C          -8.9974  -16.4377   23.3402 C.3     1  UNL1        0.1096
      5 O          -9.9180  -15.4794   24.0361 O.3     1  UNL1       -0.3826
      6 C          -8.5321  -17.5410   22.4368 C.3     1  UNL1        0.0485
      7 C          -7.0756  -17.8940   22.3727 C.3     1  UNL1        0.0749
      8 H          -9.4039  -14.9113   24.6310 H       1  UNL1        0.2107
      9 C         -10.3083  -16.8553   22.7425 C.ar    1  UNL1        0.0018
     10 C         -11.2281  -17.7589   23.5089 C.ar    1  UNL1       -0.0020
     11 C         -12.5389  -18.1765   22.9112 C.ar    1  UNL1       -0.0002
     12 C         -12.9300  -17.6904   21.5471 C.ar    1  UNL1       -0.0000
     13 C         -12.0102  -16.7867   20.7807 C.ar    1  UNL1       -0.0002
     14 C         -10.6993  -16.3691   21.3784 C.ar    1  UNL1       -0.0020
     15 C          -3.6234  -16.6753   23.9009 C.3     1  UNL1        0.0203
     16 C          -4.6279  -17.4965   23.1480 C.3     1  UNL1        0.0888
     17 C          -4.1759  -18.6705   22.3312 C.3     1  UNL1        0.1472
     18 O          -4.5683  -20.0608   22.7350 O.3     1  UNL1       -0.3787
     19 H          -4.1965  -20.6976   22.1048 H       1  UNL1        0.2108
     20 C          -3.3315  -18.4542   21.1104 C.ar    1  UNL1        0.0058
     21 C          -1.8699  -18.1492   21.2538 C.ar    1  UNL1        0.0012
     22 C          -1.0256  -17.9330   20.0330 C.ar    1  UNL1        0.0364
     23 C          -1.6429  -18.0218   18.6688 C.ar    1  UNL1        0.1337
     24 O          -0.7985  -17.8055   17.4480 O.3     1  UNL1       -0.5055
     25 C          -3.1045  -18.3267   18.5254 C.ar    1  UNL1        0.0364
     26 C          -3.9488  -18.5430   19.7461 C.ar    1  UNL1        0.0012
     27 H           0.1146  -17.6150   17.5376 H       1  UNL1        0.2922
@<TRIPOS>BOND
     1    16    15    1
     2    16    17    1
     3    17    18    1
     4    17    20    1
     5    20    21   ar
     6    21    22   ar
     7    22    23   ar
     8    23    24    1
     9    23    25   ar
    10    25    26   ar
    11    16     1    1
    12     1     2    1
    13     2     3    1
    14     3     4    1
    15     4     5    1
    16     4     9    1
    17     9    10   ar
    18    10    11   ar
    19    11    12   ar
    20    12    13   ar
    21    13    14   ar
    22     4     6    1
    23     6     7    1
    24    26    20   ar
    25     7     1    1
    26    14     9   ar
    27    18    19    1
    28    24    27    1
    29     5     8    1
@<TRIPOS>MOLECULE
*****
 27 29 0 0 0
SMALL
GASTEIGER

@<TRIPOS>ATOM
      1 N          -8.1970  -19.1590   20.9684 N.3     1  UNL1       -0.2713
      2 C          -7.7696  -19.8282   22.2409 C.3     1  UNL1        0.0749
      3 C          -6.3109  -19.9686   22.5611 C.3     1  UNL1        0.0485
      4 C          -5.2797  -19.4398   21.6088 C.3     1  UNL1        0.1096
      5 O          -4.3863  -19.9920   22.6799 O.3     1  UNL1       -0.3826
      6 C          -5.7071  -18.7706   20.3362 C.3     1  UNL1        0.0485
      7 C          -7.1658  -18.6302   20.0160 C.3     1  UNL1        0.0749
      8 H          -4.9282  -20.3791   23.3852 H       1  UNL1        0.2107
      9 C          -3.9382  -19.1028   21.0285 C.ar    1  UNL1        0.0018
     10 C          -3.7561  -19.0517   19.5405 C.ar    1  UNL1       -0.0020
     11 C          -2.4147  -18.7146   18.9601 C.ar    1  UNL1       -0.0002
     12 C          -1.2552  -18.4287   19.8678 C.ar    1  UNL1       -0.0000
     13 C          -1.4372  -18.4798   21.3558 C.ar    1  UNL1       -0.0002
     14 C          -2.7787  -18.8168   21.9362 C.ar    1  UNL1       -0.0020
     15 C         -10.3275  -20.0201   19.7560 C.3     1  UNL1        0.0203
     16 C          -9.6557  -19.0186   20.6481 C.3     1  UNL1        0.0888
     17 C         -10.4426  -17.8768   21.2200 C.3     1  UNL1        0.1472
     18 O         -10.3380  -16.5121   20.6063 O.3     1  UNL1       -0.3787
     19 H         -10.9062  -15.8944   21.0926 H       1  UNL1        0.2108
     20 C         -11.3341  -18.0996   22.4056 C.ar    1  UNL1        0.0058
     21 C         -12.7681  -17.6622   22.3584 C.ar    1  UNL1        0.0012
     22 C         -13.6595  -17.8850   23.5440 C.ar    1  UNL1        0.0364
     23 C         -13.1170  -18.5454   24.7767 C.ar    1  UNL1        0.1337
     24 O         -14.0085  -18.7682   25.9623 O.3     1  UNL1       -0.5055
     25 C         -11.6830  -18.9828   24.8239 C.ar    1  UNL1        0.0364
     26 C         -10.7916  -18.7599   23.6383 C.ar    1  UNL1        0.0012
     27 H         -14.9043  -18.4949   25.9328 H       1  UNL1        0.2922
@<TRIPOS>BOND
     1    16    15    1
     2    16    17    1
     3    17    18    1
     4    17    20    1
     5    20    21   ar
     6    21    22   ar
     7    22    23   ar
     8    23    24    1
     9    23    25   ar
    10    25    26   ar
    11    16     1    1
    12     1     2    1
    13     2     3    1
    14     3     4    1
    15     4     5    1
    16     4     9    1
    17     9    10   ar
    18    10    11   ar
    19    11    12   ar
    20    12    13   ar
    21    13    14   ar
    22     4     6    1
    23     6     7    1
    24    26    20   ar
    25     7     1    1
    26    14     9   ar
    27    18    19    1
    28    24    27    1
    29     5     8    1
@<TRIPOS>MOLECULE
*****
 27 29 0 0 0
SMALL
GASTEIGER

@<TRIPOS>ATOM
      1 N          -6.9998  -16.0428   24.2386 N.3     1  UNL1       -0.2713
      2 C          -7.7889  -16.7243   25.3169 C.3     1  UNL1        0.0749
      3 C          -9.1974  -17.1660   25.0504 C.3     1  UNL1        0.0485
      4 C          -9.8168  -16.9261   23.7055 C.3     1  UNL1        0.1096
      5 O         -10.9588  -17.6065   24.4007 O.3     1  UNL1       -0.3826
      6 C          -9.0278  -16.2446   22.6271 C.3     1  UNL1        0.0485
      7 C          -7.6193  -15.8029   22.8936 C.3     1  UNL1        0.0749
      8 H         -10.6987  -17.8285   25.3084 H       1  UNL1        0.2107
      9 C         -10.8329  -16.9226   22.6020 C.ar    1  UNL1        0.0018
     10 C         -12.0395  -17.8092   22.6906 C.ar    1  UNL1       -0.0020
     11 C         -13.0555  -17.8057   21.5872 C.ar    1  UNL1       -0.0002
     12 C         -12.8650  -16.9153   20.3950 C.ar    1  UNL1       -0.0000
     13 C         -11.6584  -16.0286   20.3065 C.ar    1  UNL1       -0.0002
     14 C         -10.6423  -16.0322   21.4100 C.ar    1  UNL1       -0.0020
     15 C          -5.1590  -15.2771   25.9045 C.3     1  UNL1        0.0203
     16 C          -5.5913  -15.6011   24.5051 C.3     1  UNL1        0.0888
     17 C          -4.6152  -15.4833   23.3723 C.3     1  UNL1        0.1472
     18 O          -4.3611  -14.1485   22.7369 O.3     1  UNL1       -0.3787
     19 H          -3.7085  -14.2478   22.0261 H       1  UNL1        0.2108
     20 C          -3.8931  -16.7004   22.8749 C.ar    1  UNL1        0.0058
     21 C          -2.5072  -16.5738   22.3153 C.ar    1  UNL1        0.0012
     22 C          -1.7852  -17.7909   21.8179 C.ar    1  UNL1        0.0364
     23 C          -2.4491  -19.1345   21.8801 C.ar    1  UNL1        0.1337
     24 O          -1.7270  -20.3516   21.3826 O.3     1  UNL1       -0.5055
     25 C          -3.8350  -19.2611   22.4397 C.ar    1  UNL1        0.0364
     26 C          -4.5570  -18.0441   22.9371 C.ar    1  UNL1        0.0012
     27 H          -0.8613  -20.2725   21.0330 H       1  UNL1        0.2922
@<TRIPOS>BOND
     1    16    15    1
     2    16    17    1
     3    17    18    1
     4    17    20    1
     5    20    21   ar
     6    21    22   ar
     7    22    23   ar
     8    23    24    1
     9    23    25   ar
    10    25    26   ar
    11    16     1    1
    12     1     2    1
    13     2     3    1
    14     3     4    1
    15     4     5    1
    16     4     9    1
    17     9    10   ar
    18    10    11   ar
    19    11    12   ar
    20    12    13   ar
    21    13    14   ar
    22     4     6    1
    23     6     7    1
    24    26    20   ar
    25     7     1    1
    26    14     9   ar
    27    18    19    1
    28    24    27    1
    29     5     8    1
@<TRIPOS>MOLECULE
*****
 27 29 0 0 0
SMALL
GASTEIGER

@<TRIPOS>ATOM
      1 N          -6.9791  -19.0089   21.6394 N.3     1  UNL1       -0.2713
      2 C          -7.5889  -19.5006   20.3602 C.3     1  UNL1        0.0749
      3 C          -9.0790  -19.4936   20.1885 C.3     1  UNL1        0.0485
      4 C          -9.9593  -18.9950   21.2959 C.3     1  UNL1        0.1096
      5 O         -11.0004  -19.3572   20.2786 O.3     1  UNL1       -0.3826
      6 C          -9.3495  -18.5033   22.5752 C.3     1  UNL1        0.0485
      7 C          -7.8594  -18.5103   22.7469 C.3     1  UNL1        0.0749
      8 H         -10.5680  -19.7050   19.4830 H       1  UNL1        0.2107
      9 C         -11.2012  -18.6222   22.0501 C.ar    1  UNL1        0.0018
     10 C         -11.2848  -18.8707   23.5269 C.ar    1  UNL1       -0.0020
     11 C         -12.5267  -18.4979   24.2811 C.ar    1  UNL1       -0.0002
     12 C         -13.6850  -17.8765   23.5583 C.ar    1  UNL1       -0.0000
     13 C         -13.6014  -17.6280   22.0815 C.ar    1  UNL1       -0.0002
     14 C         -12.3595  -18.0009   21.3273 C.ar    1  UNL1       -0.0020
     15 C          -4.8692  -18.3632   23.0112 C.3     1  UNL1        0.0203
     16 C          -5.4889  -19.0159   21.8112 C.3     1  UNL1        0.0888
     17 C          -4.6185  -19.6755   20.7830 C.3     1  UNL1        0.1472
     18 O          -5.0677  -20.9455   20.1233 O.3     1  UNL1       -0.3787
     19 H          -4.3937  -21.2366   19.4894 H       1  UNL1        0.2108
     20 C          -3.2988  -19.0650   20.4144 C.ar    1  UNL1        0.0058
     21 C          -3.1691  -18.2645   19.1525 C.ar    1  UNL1        0.0012
     22 C          -1.8494  -17.6541   18.7840 C.ar    1  UNL1        0.0364
     23 C          -0.6595  -17.8442   19.6773 C.ar    1  UNL1        0.1337
     24 O           0.6602  -17.2337   19.3087 O.3     1  UNL1       -0.5055
     25 C          -0.7893  -18.6447   20.9392 C.ar    1  UNL1        0.0364
     26 C          -2.1089  -19.2551   21.3077 C.ar    1  UNL1        0.0012
     27 H           0.7412  -16.7337   18.5204 H       1  UNL1        0.2922
@<TRIPOS>BOND
     1    16    15    1
     2    16    17    1
     3    17    18    1
     4    17    20    1
     5    20    21   ar
     6    21    22   ar
     7    22    23   ar
     8    23    24    1
     9    23    25   ar
    10    25    26   ar
    11    16     1    1
    12     1     2    1
    13     2     3    1
    14     3     4    1
    15     4     5    1
    16     4     9    1
    17     9    10   ar
    18    10    11   ar
    19    11    12   ar
    20    12    13   ar
    21    13    14   ar
    22     4     6    1
    23     6     7    1
    24    26    20   ar
    25     7     1    1
    26    14     9   ar
    27    18    19    1
    28    24    27    1
    29     5     8    1
@<TRIPOS>MOLECULE
*****
 27 29 0 0 0
SMALL
GASTEIGER

@<TRIPOS>ATOM
      1 N          -8.9853  -17.8866   21.6649 N.3     1  UNL1       -0.2713
      2 C          -8.8683  -16.4783   21.1620 C.3     1  UNL1        0.0749
      3 C          -8.4350  -15.3835   22.0915 C.3     1  UNL1        0.0485
      4 C          -8.1189  -15.6971   23.5238 C.3     1  UNL1        0.1096
      5 O          -7.8609  -14.2194   23.5176 O.3     1  UNL1       -0.3826
      6 C          -8.2360  -17.1054   24.0268 C.3     1  UNL1        0.0485
      7 C          -8.6692  -18.2002   23.0974 C.3     1  UNL1        0.0749
      8 H          -8.0287  -13.8656   22.6302 H       1  UNL1        0.2107
      9 C          -7.7131  -15.4975   24.9541 C.ar    1  UNL1        0.0018
     10 C          -6.2663  -15.3144   25.3047 C.ar    1  UNL1       -0.0020
     11 C          -5.8605  -15.1148   26.7348 C.ar    1  UNL1       -0.0002
     12 C          -6.9017  -15.0983   27.8145 C.ar    1  UNL1       -0.0000
     13 C          -8.3486  -15.2814   27.4640 C.ar    1  UNL1       -0.0002
     14 C          -8.7543  -15.4810   26.0337 C.ar    1  UNL1       -0.0020
     15 C         -10.8661  -19.3661   20.6530 C.3     1  UNL1        0.0203
     16 C          -9.4186  -18.9813   20.7355 C.3     1  UNL1        0.0888
     17 C          -8.4044  -19.6912   19.8886 C.3     1  UNL1        0.1472
     18 O          -8.8321  -20.3841   18.6288 O.3     1  UNL1       -0.3787
     19 H          -8.0597  -20.7893   18.2044 H       1  UNL1        0.2108
     20 C          -6.9623  -19.7083   20.3013 C.ar    1  UNL1        0.0058
     21 C          -6.5585  -20.3635   21.5888 C.ar    1  UNL1        0.0012
     22 C          -5.1165  -20.3806   22.0015 C.ar    1  UNL1        0.0364
     23 C          -4.0784  -19.7425   21.1268 C.ar    1  UNL1        0.1337
     24 O          -2.6364  -19.7596   21.5396 O.3     1  UNL1       -0.5055
     25 C          -4.4823  -19.0873   19.8393 C.ar    1  UNL1        0.0364
     26 C          -5.9242  -19.0702   19.4266 C.ar    1  UNL1        0.0012
     27 H          -2.3841  -20.1689   22.3438 H       1  UNL1        0.2922
@<TRIPOS>BOND
     1    16    15    1
     2    16    17    1
     3    17    18    1
     4    17    20    1
     5    20    21   ar
     6    21    22   ar
     7    22    23   ar
     8    23    24    1
     9    23    25   ar
    10    25    26   ar
    11    16     1    1
    12     1     2    1
    13     2     3    1
    14     3     4    1
    15     4     5    1
    16     4     9    1
    17     9    10   ar
    18    10    11   ar
    19    11    12   ar
    20    12    13   ar
    21    13    14   ar
    22     4     6    1
    23     6     7    1
    24    26    20   ar
    25     7     1    1
    26    14     9   ar
    27    18    19    1
    28    24    27    1
    29     5     8    1
@<TRIPOS>MOLECULE
*****
 27 29 0 0 0
SMALL
GASTEIGER

@<TRIPOS>ATOM
      1 N         -11.4359   -6.1525   17.9567 N.3     1  UNL1       -0.2713
      2 C         -11.7365   -6.6017   16.5575 C.3     1  UNL1        0.0749
      3 C         -12.9752   -7.3994   16.2758 C.3     1  UNL1        0.0485
      4 C         -13.9132   -7.7479   17.3932 C.3     1  UNL1        0.1096
      5 O         -14.6256   -8.3964   16.2433 O.3     1  UNL1       -0.3826
      6 C         -13.6126   -7.2987   18.7924 C.3     1  UNL1        0.0485
      7 C         -12.3739   -6.5010   19.0742 C.3     1  UNL1        0.0749
      8 H         -14.1218   -8.2507   15.4273 H       1  UNL1        0.2107
      9 C         -15.0987   -8.3216   18.1113 C.ar    1  UNL1        0.0018
     10 C         -15.9052   -7.4587   19.0358 C.ar    1  UNL1       -0.0020
     11 C         -17.0906   -8.0323   19.7539 C.ar    1  UNL1       -0.0002
     12 C         -17.4695   -9.4690   19.5474 C.ar    1  UNL1       -0.0000
     13 C         -16.6630  -10.3319   18.6229 C.ar    1  UNL1       -0.0002
     14 C         -15.4775   -9.7582   17.9048 C.ar    1  UNL1       -0.0020
     15 C          -9.2780   -5.7647   19.3508 C.3     1  UNL1        0.0203
     16 C         -10.1972   -5.3548   18.2385 C.3     1  UNL1        0.0888
     17 C          -9.8777   -4.1473   17.4081 C.3     1  UNL1        0.1472
     18 O          -8.8196   -4.2248   16.3477 O.3     1  UNL1       -0.3787
     19 H          -8.7391   -3.3641   15.9077 H       1  UNL1        0.2108
     20 C         -10.6163   -2.8621   17.6380 C.ar    1  UNL1        0.0058
     21 C         -11.5656   -2.7388   18.7929 C.ar    1  UNL1        0.0012
     22 C         -12.3041   -1.4537   19.0227 C.ar    1  UNL1        0.0364
     23 C         -12.0934   -0.2918   18.0977 C.ar    1  UNL1        0.1337
     24 O         -12.8321    0.9934   18.3277 O.3     1  UNL1       -0.5055
     25 C         -11.1442   -0.4150   16.9429 C.ar    1  UNL1        0.0364
     26 C         -10.4057   -1.7002   16.7130 C.ar    1  UNL1        0.0012
     27 H         -13.4250    1.0704   19.0491 H       1  UNL1        0.2922
@<TRIPOS>BOND
     1    16    15    1
     2    16    17    1
     3    17    18    1
     4    17    20    1
     5    20    21   ar
     6    21    22   ar
     7    22    23   ar
     8    23    24    1
     9    23    25   ar
    10    25    26   ar
    11    16     1    1
    12     1     2    1
    13     2     3    1
    14     3     4    1
    15     4     5    1
    16     4     9    1
    17     9    10   ar
    18    10    11   ar
    19    11    12   ar
    20    12    13   ar
    21    13    14   ar
    22     4     6    1
    23     6     7    1
    24    26    20   ar
    25     7     1    1
    26    14     9   ar
    27    18    19    1
    28    24    27    1
    29     5     8    1
@<TRIPOS>MOLECULE
*****
 27 29 0 0 0
SMALL
GASTEIGER

@<TRIPOS>ATOM
      1 N          -8.4586  -17.6867   21.6042 N.3     1  UNL1       -0.2713
      2 C          -8.5287  -16.2421   21.2065 C.3     1  UNL1        0.0749
      3 C          -8.2294  -15.1715   22.2136 C.3     1  UNL1        0.0485
      4 C          -7.8599  -15.5456   23.6185 C.3     1  UNL1        0.1096
      5 O          -7.7938  -14.0505   23.7210 O.3     1  UNL1       -0.3826
      6 C          -7.7898  -16.9902   24.0162 C.3     1  UNL1        0.0485
      7 C          -8.0891  -18.0608   23.0091 C.3     1  UNL1        0.0749
      8 H          -8.0153  -13.6574   22.8624 H       1  UNL1        0.2107
      9 C          -7.4675  -15.4004   25.0589 C.ar    1  UNL1        0.0018
     10 C          -6.0292  -15.1852   25.4264 C.ar    1  UNL1       -0.0020
     11 C          -5.6367  -15.0400   26.8668 C.ar    1  UNL1       -0.0002
     12 C          -6.6826  -15.1101   27.9399 C.ar    1  UNL1       -0.0000
     13 C          -8.1209  -15.3253   27.5724 C.ar    1  UNL1       -0.0002
     14 C          -8.5133  -15.4704   26.1319 C.ar    1  UNL1       -0.0020
     15 C          -7.6568  -19.3127   19.7432 C.3     1  UNL1        0.0203
     16 C          -8.7579  -18.7572   20.5971 C.3     1  UNL1        0.0888
     17 C         -10.1583  -19.2723   20.4437 C.3     1  UNL1        0.1472
     18 O         -10.5122  -20.1475   19.2781 O.3     1  UNL1       -0.3787
     19 H         -11.4498  -20.3907   19.3292 H       1  UNL1        0.2108
     20 C         -11.2050  -18.9120   21.4561 C.ar    1  UNL1        0.0058
     21 C         -12.3146  -17.9730   21.0860 C.ar    1  UNL1        0.0012
     22 C         -13.3612  -17.6128   22.0984 C.ar    1  UNL1        0.0364
     23 C         -13.2982  -18.1917   23.4807 C.ar    1  UNL1        0.1337
     24 O         -14.3449  -17.8315   24.4931 O.3     1  UNL1       -0.5055
     25 C         -12.1887  -19.1308   23.8508 C.ar    1  UNL1        0.0364
     26 C         -11.1421  -19.4909   22.8384 C.ar    1  UNL1        0.0012
     27 H         -15.0381  -17.2449   24.2619 H       1  UNL1        0.2922
@<TRIPOS>BOND
     1    16    15    1
     2    16    17    1
     3    17    18    1
     4    17    20    1
     5    20    21   ar
     6    21    22   ar
     7    22    23   ar
     8    23    24    1
     9    23    25   ar
    10    25    26   ar
    11    16     1    1
    12     1     2    1
    13     2     3    1
    14     3     4    1
    15     4     5    1
    16     4     9    1
    17     9    10   ar
    18    10    11   ar
    19    11    12   ar
    20    12    13   ar
    21    13    14   ar
    22     4     6    1
    23     6     7    1
    24    26    20   ar
    25     7     1    1
    26    14     9   ar
    27    18    19    1
    28    24    27    1
    29     5     8    1
