@<TRIPOS>MOLECULE
*****
 28 30 0 0 0
SMALL
GASTEIGER

@<TRIPOS>ATOM
      1 C          -7.3241  -19.5329   21.0144 C.ar    1  UNL1       -0.0059
      2 C          -7.6604  -20.1873   19.7072 C.ar    1  UNL1        0.0175
      3 C          -8.9136  -19.8045   18.9773 C.ar    1  UNL1        0.1000
      4 N          -9.8306  -18.7672   19.5545 N.ar    1  UNL1       -0.2294
      5 C          -9.4944  -18.1127   20.8616 C.ar    1  UNL1        0.1292
      6 C          -8.2411  -18.4956   21.5916 C.ar    1  UNL1        0.0073
      7 C          -7.9048  -17.8411   22.8987 C.3     1  UNL1        0.0337
      8 N         -10.4114  -17.0755   21.4388 N.pl3   1  UNL1       -0.2784
      9 H         -10.1655  -16.1231   21.3972 H       1  UNL1        0.1555
     10 C         -11.7029  -17.4892   22.0795 C.ar    1  UNL1        0.1653
     11 N         -12.9997  -17.7393   21.3682 N.ar    1  UNL1       -0.2217
     12 C         -14.0228  -18.1302   22.3931 C.ar    1  UNL1        0.1177
     13 C         -13.3583  -18.1217   23.7379 C.ar    1  UNL1        0.1194
     14 S         -11.9246  -17.7256   23.5441 S.2     1  UNL1       -0.0409
     15 C         -14.0127  -18.4515   25.0468 C.1     1  UNL1        0.1086
     16 N         -14.6671  -18.7813   26.3556 N.1     1  UNL1       -0.1903
     17 C          -6.0709  -19.9157   21.7443 C.3     1  UNL1        0.0991
     18 C           1.6661  -17.1551   20.2382 C.3     1  UNL1        0.1122
     19 N           0.3335  -17.6320   20.7349 N.am    1  UNL1       -0.2870
     20 C          -0.7403  -18.0083   19.7575 C.2     1  UNL1        0.3041
     21 O          -0.4815  -17.9078   18.2835 O.2     1  UNL1       -0.2526
     22 N          -2.0730  -18.4852   20.2542 N.am    1  UNL1       -0.2614
     23 C          -2.3318  -18.5857   21.7283 C.3     1  UNL1        0.1123
     24 C          -3.6644  -19.0625   22.2249 C.3     1  UNL1        0.0942
     25 N          -4.7382  -19.4389   21.2476 N.3     1  UNL1       -0.2660
     26 C          -4.4794  -19.3384   19.7735 C.3     1  UNL1        0.0942
     27 C          -3.1468  -18.8615   19.2769 C.3     1  UNL1        0.1123
     28 H           0.1636  -17.6979   21.7024 H       1  UNL1        0.1510
@<TRIPOS>BOND
     1    18    19    1
     2    19    20   am
     3    20    21    2
     4    20    22   am
     5    22    23    1
     6    23    24    1
     7    24    25    1
     8    25    17    1
     9    17     1    1
    10     1     2   ar
    11     2     3   ar
    12     3     4   ar
    13     4     5   ar
    14     5     8    1
    15     8    10    1
    16    10    11   ar
    17    11    12   ar
    18    12    13   ar
    19    13    15    1
    20    15    16    3
    21    13    14   ar
    22     5     6   ar
    23     6     7    1
    24    25    26    1
    25    26    27    1
    26    27    22    1
    27     6     1   ar
    28    14    10   ar
    29    19    28    1
    30     8     9    1
@<TRIPOS>MOLECULE
*****
 28 30 0 0 0
SMALL
GASTEIGER

@<TRIPOS>ATOM
      1 C          -6.9606  -17.8042   22.5359 C.ar    1  UNL1       -0.0059
      2 C          -6.6163  -16.7034   23.4950 C.ar    1  UNL1        0.0175
      3 C          -7.5789  -15.5749   23.7182 C.ar    1  UNL1        0.1000
      4 N          -8.8857  -15.5470   22.9823 N.ar    1  UNL1       -0.2294
      5 C          -9.2299  -16.6478   22.0233 C.ar    1  UNL1        0.1292
      6 C          -8.2674  -17.7764   21.8001 C.ar    1  UNL1        0.0073
      7 C          -8.6117  -18.8771   20.8410 C.3     1  UNL1        0.0337
      8 N         -10.5367  -16.6199   21.2874 N.pl3   1  UNL1       -0.2784
      9 H         -10.5876  -16.2194   20.3895 H       1  UNL1        0.1555
     10 C         -11.7660  -17.2022   21.9196 C.ar    1  UNL1        0.1653
     11 N         -12.9889  -17.6798   21.1940 N.ar    1  UNL1       -0.2217
     12 C         -13.9669  -18.1820   22.2143 C.ar    1  UNL1        0.1177
     13 C         -13.3485  -18.0147   23.5707 C.ar    1  UNL1        0.1194
     14 S         -11.9883  -17.4092   23.3886 S.2     1  UNL1       -0.0409
     15 C         -13.9796  -18.3875   24.8795 C.1     1  UNL1        0.1086
     16 N         -14.6107  -18.7604   26.1882 N.1     1  UNL1       -0.1903
     17 C          -5.9981  -18.9328   22.3128 C.3     1  UNL1        0.0991
     18 C           1.7977  -17.1250   19.9239 C.3     1  UNL1        0.1122
     19 N           0.4687  -17.3888   20.5674 N.am    1  UNL1       -0.2870
     20 C          -0.6821  -17.8773   19.7386 C.2     1  UNL1        0.3041
     21 O          -0.5039  -18.1019   18.2663 O.2     1  UNL1       -0.2526
     22 N          -2.0111  -18.1412   20.3822 N.am    1  UNL1       -0.2614
     23 C          -2.1893  -17.9166   21.8545 C.3     1  UNL1        0.1123
     24 C          -3.5183  -18.1805   22.4980 C.3     1  UNL1        0.0942
     25 N          -4.6691  -18.6689   21.6692 N.3     1  UNL1       -0.2660
     26 C          -4.4909  -18.8935   20.1969 C.3     1  UNL1        0.0942
     27 C          -3.1619  -18.6296   19.5534 C.3     1  UNL1        0.1123
     28 H           0.3518  -17.2414   21.5338 H       1  UNL1        0.1510
@<TRIPOS>BOND
     1    18    19    1
     2    19    20   am
     3    20    21    2
     4    20    22   am
     5    22    23    1
     6    23    24    1
     7    24    25    1
     8    25    17    1
     9    17     1    1
    10     1     2   ar
    11     2     3   ar
    12     3     4   ar
    13     4     5   ar
    14     5     8    1
    15     8    10    1
    16    10    11   ar
    17    11    12   ar
    18    12    13   ar
    19    13    15    1
    20    15    16    3
    21    13    14   ar
    22     5     6   ar
    23     6     7    1
    24    25    26    1
    25    26    27    1
    26    27    22    1
    27     6     1   ar
    28    14    10   ar
    29    19    28    1
    30     8     9    1
@<TRIPOS>MOLECULE
*****
 28 30 0 0 0
SMALL
GASTEIGER

@<TRIPOS>ATOM
      1 C           6.6330   -0.4840   32.9279 C.ar    1  UNL1       -0.0059
      2 C           8.1062   -0.2268   33.0447 C.ar    1  UNL1        0.0175
      3 C           9.0798   -1.3567   32.8857 C.ar    1  UNL1        0.1000
      4 N           8.5803   -2.7439   32.6098 N.ar    1  UNL1       -0.2294
      5 C           7.1072   -3.0012   32.4930 C.ar    1  UNL1        0.1292
      6 C           6.1335   -1.8713   32.6520 C.ar    1  UNL1        0.0073
      7 C           4.6604   -2.1286   32.5352 C.3     1  UNL1        0.0337
      8 N           6.6077   -4.3885   32.2172 N.pl3   1  UNL1       -0.2784
      9 H           5.8682   -4.7604   32.7502 H       1  UNL1        0.1555
     10 C           7.2348   -5.2089   31.1293 C.ar    1  UNL1        0.1653
     11 N           8.4177   -6.1186   31.2816 N.ar    1  UNL1       -0.2217
     12 C           8.7031   -6.7357   29.9445 C.ar    1  UNL1        0.1177
     13 C           7.6965   -6.2074   28.9659 C.ar    1  UNL1        0.1194
     14 S           6.7890   -5.2638   29.6982 S.2     1  UNL1       -0.0409
     15 C           7.6121   -6.5607   27.5105 C.1     1  UNL1        0.1086
     16 N           7.5278   -6.9139   26.0551 N.1     1  UNL1       -0.1903
     17 C           5.6595    0.6459   33.0869 C.3     1  UNL1        0.0991
     18 C           0.7385    2.3586   39.6138 C.3     1  UNL1        0.1122
     19 N           1.4677    2.1738   38.3160 N.am    1  UNL1       -0.2870
     20 C           2.7427    1.3848   38.2779 C.2     1  UNL1        0.3041
     21 O           3.2887    0.7805   39.5375 O.2     1  UNL1       -0.2526
     22 N           3.4719    1.2001   36.9801 N.am    1  UNL1       -0.2614
     23 C           2.9260    1.8044   35.7205 C.3     1  UNL1        0.1123
     24 C           3.6552    1.6197   34.4227 C.3     1  UNL1        0.0942
     25 N           4.9303    0.8306   34.3846 N.3     1  UNL1       -0.2660
     26 C           5.4762    0.2263   35.6443 C.3     1  UNL1        0.0942
     27 C           4.7470    0.4110   36.9420 C.3     1  UNL1        0.1123
     28 H           1.1093    2.5705   37.4893 H       1  UNL1        0.1510
@<TRIPOS>BOND
     1    18    19    1
     2    19    20   am
     3    20    21    2
     4    20    22   am
     5    22    23    1
     6    23    24    1
     7    24    25    1
     8    25    17    1
     9    17     1    1
    10     1     2   ar
    11     2     3   ar
    12     3     4   ar
    13     4     5   ar
    14     5     8    1
    15     8    10    1
    16    10    11   ar
    17    11    12   ar
    18    12    13   ar
    19    13    15    1
    20    15    16    3
    21    13    14   ar
    22     5     6   ar
    23     6     7    1
    24    25    26    1
    25    26    27    1
    26    27    22    1
    27     6     1   ar
    28    14    10   ar
    29    19    28    1
    30     8     9    1
@<TRIPOS>MOLECULE
*****
 28 30 0 0 0
SMALL
GASTEIGER

@<TRIPOS>ATOM
      1 C           7.8229   -5.0970   24.5096 C.ar    1  UNL1       -0.0059
      2 C           8.2023   -6.5125   24.1892 C.ar    1  UNL1        0.0175
      3 C           7.8161   -7.6219   25.1219 C.ar    1  UNL1        0.1000
      4 N           7.0504   -7.3160   26.3750 N.ar    1  UNL1       -0.2294
      5 C           6.6710   -5.9006   26.6953 C.ar    1  UNL1        0.1292
      6 C           7.0572   -4.7911   25.7626 C.ar    1  UNL1        0.0073
      7 C           6.6778   -3.3757   26.0830 C.3     1  UNL1        0.0337
      8 N           5.9053   -5.5946   27.9484 N.pl3   1  UNL1       -0.2784
      9 H           4.9210   -5.5841   27.9336 H       1  UNL1        0.1555
     10 C           6.6394   -5.3048   29.2240 C.ar    1  UNL1        0.1653
     11 N           7.3316   -6.3136   30.0917 N.ar    1  UNL1       -0.2217
     12 C           7.9302   -5.5875   31.2598 C.ar    1  UNL1        0.1177
     13 C           7.6078   -4.1298   31.1139 C.ar    1  UNL1        0.1194
     14 S           6.8101   -3.9551   29.8557 S.2     1  UNL1       -0.0409
     15 C           8.0123   -3.0384   32.0602 C.1     1  UNL1        0.1086
     16 N           8.4167   -1.9470   33.0065 N.1     1  UNL1       -0.1903
     17 C           8.2091   -3.9876   23.5769 C.3     1  UNL1        0.0991
     18 C           3.9390   -0.9323   17.0821 C.3     1  UNL1        0.1122
     19 N           4.8929   -1.3813   18.1492 N.am    1  UNL1       -0.2870
     20 C           4.3938   -2.1916   19.3086 C.2     1  UNL1        0.3041
     21 O           2.9410   -2.5530   19.4009 O.2     1  UNL1       -0.2526
     22 N           5.3476   -2.6406   20.3756 N.am    1  UNL1       -0.2614
     23 C           6.8005   -2.2793   20.2833 C.3     1  UNL1        0.1123
     24 C           7.7543   -2.7282   21.3504 C.3     1  UNL1        0.0942
     25 N           7.2553   -3.5386   22.5098 N.3     1  UNL1       -0.2660
     26 C           5.8024   -3.9000   22.6021 C.3     1  UNL1        0.0942
     27 C           4.8486   -3.4510   21.5350 C.3     1  UNL1        0.1123
     28 H           5.8464   -1.1441   18.0886 H       1  UNL1        0.1510
@<TRIPOS>BOND
     1    18    19    1
     2    19    20   am
     3    20    21    2
     4    20    22   am
     5    22    23    1
     6    23    24    1
     7    24    25    1
     8    25    17    1
     9    17     1    1
    10     1     2   ar
    11     2     3   ar
    12     3     4   ar
    13     4     5   ar
    14     5     8    1
    15     8    10    1
    16    10    11   ar
    17    11    12   ar
    18    12    13   ar
    19    13    15    1
    20    15    16    3
    21    13    14   ar
    22     5     6   ar
    23     6     7    1
    24    25    26    1
    25    26    27    1
    26    27    22    1
    27     6     1   ar
    28    14    10   ar
    29    19    28    1
    30     8     9    1
@<TRIPOS>MOLECULE
*****
 28 30 0 0 0
SMALL
GASTEIGER

@<TRIPOS>ATOM
      1 C           6.1684   -2.8355   19.3729 C.ar    1  UNL1       -0.0059
      2 C           7.3112   -2.2978   18.5636 C.ar    1  UNL1        0.0175
      3 C           8.6586   -2.1159   19.1970 C.ar    1  UNL1        0.1000
      4 N           8.8633   -2.4716   20.6398 N.ar    1  UNL1       -0.2294
      5 C           7.7206   -3.0093   21.4491 C.ar    1  UNL1        0.1292
      6 C           6.3731   -3.1913   20.8157 C.ar    1  UNL1        0.0073
      7 C           5.2304   -3.7289   21.6250 C.3     1  UNL1        0.0337
      8 N           7.9253   -3.3651   22.8918 N.pl3   1  UNL1       -0.2784
      9 H           7.9459   -2.6568   23.5753 H       1  UNL1        0.1555
     10 C           8.0986   -4.7999   23.2932 C.ar    1  UNL1        0.1653
     11 N           8.6305   -5.9006   22.4239 N.ar    1  UNL1       -0.2217
     12 C           8.6311   -7.1670   23.2277 C.ar    1  UNL1        0.1177
     13 C           8.0995   -6.8490   24.5939 C.ar    1  UNL1        0.1194
     14 S           7.7705   -5.3861   24.6343 S.2     1  UNL1       -0.0409
     15 C           7.9273   -7.8229   25.7217 C.1     1  UNL1        0.1086
     16 N           7.7551   -8.7969   26.8494 N.1     1  UNL1       -0.1903
     17 C           4.8209   -3.0174   18.7395 C.3     1  UNL1        0.0991
     18 C          -0.4489    3.4528   18.4002 C.3     1  UNL1        0.1122
     19 N           0.5929    2.3818   18.2678 N.am    1  UNL1       -0.2870
     20 C           0.6538    1.2668   19.2693 C.2     1  UNL1        0.3041
     21 O          -0.3271    1.2228   20.4032 O.2     1  UNL1       -0.2526
     22 N           1.6956    0.1957   19.1368 N.am    1  UNL1       -0.2614
     23 C           2.6764    0.2397   18.0029 C.3     1  UNL1        0.1123
     24 C           3.7182   -0.8314   17.8704 C.3     1  UNL1        0.0942
     25 N           3.7791   -1.9464   18.8719 N.3     1  UNL1       -0.2660
     26 C           2.7983   -1.9903   20.0059 C.3     1  UNL1        0.0942
     27 C           1.7565   -0.9192   20.1383 C.3     1  UNL1        0.1123
     28 H           1.2367    2.4106   17.5235 H       1  UNL1        0.1510
@<TRIPOS>BOND
     1    18    19    1
     2    19    20   am
     3    20    21    2
     4    20    22   am
     5    22    23    1
     6    23    24    1
     7    24    25    1
     8    25    17    1
     9    17     1    1
    10     1     2   ar
    11     2     3   ar
    12     3     4   ar
    13     4     5   ar
    14     5     8    1
    15     8    10    1
    16    10    11   ar
    17    11    12   ar
    18    12    13   ar
    19    13    15    1
    20    15    16    3
    21    13    14   ar
    22     5     6   ar
    23     6     7    1
    24    25    26    1
    25    26    27    1
    26    27    22    1
    27     6     1   ar
    28    14    10   ar
    29    19    28    1
    30     8     9    1
@<TRIPOS>MOLECULE
*****
 28 30 0 0 0
SMALL
GASTEIGER

@<TRIPOS>ATOM
      1 C           4.1310   -2.2289   19.2190 C.ar    1  UNL1       -0.0059
      2 C           3.4714   -3.5731   19.1284 C.ar    1  UNL1        0.0175
      3 C           3.8847   -4.6755   20.0578 C.ar    1  UNL1        0.1000
      4 N           4.9576   -4.4338   21.0779 N.ar    1  UNL1       -0.2294
      5 C           5.6171   -3.0897   21.1685 C.ar    1  UNL1        0.1292
      6 C           5.2038   -1.9872   20.2391 C.ar    1  UNL1        0.0073
      7 C           5.8634   -0.6431   20.3298 C.3     1  UNL1        0.0337
      8 N           6.6900   -2.8479   22.1886 N.pl3   1  UNL1       -0.2784
      9 H           7.2417   -2.0341   22.1393 H       1  UNL1        0.1555
     10 C           6.9222   -3.8462   23.2838 C.ar    1  UNL1        0.1653
     11 N           7.6096   -5.1714   23.1378 N.ar    1  UNL1       -0.2217
     12 C           7.6200   -5.8388   24.4811 C.ar    1  UNL1        0.1177
     13 C           6.9390   -4.9260   25.4574 C.ar    1  UNL1        0.1194
     14 S           6.5077   -3.6945   24.7174 S.2     1  UNL1       -0.0409
     15 C           6.7265   -5.1971   26.9173 C.1     1  UNL1        0.1086
     16 N           6.5141   -5.4682   28.3772 N.1     1  UNL1       -0.1903
     17 C           3.7177   -1.1265   18.2896 C.3     1  UNL1        0.0991
     18 C          -2.5226    3.4983   21.3587 C.3     1  UNL1        0.1122
     19 N          -1.5039    2.4890   20.9189 N.am    1  UNL1       -0.2870
     20 C          -0.3572    2.9109   20.0488 C.2     1  UNL1        0.3041
     21 O          -0.2293    4.3421   19.6185 O.2     1  UNL1       -0.2526
     22 N           0.6615    1.9015   19.6090 N.am    1  UNL1       -0.2614
     23 C           0.5335    0.4703   20.0393 C.3     1  UNL1        0.1123
     24 C           1.5523   -0.5390   19.5995 C.3     1  UNL1        0.0942
     25 N           2.6989   -0.1172   18.7294 N.3     1  UNL1       -0.2660
     26 C           2.8269    1.3140   18.2991 C.3     1  UNL1        0.0942
     27 C           1.8081    2.3234   18.7389 C.3     1  UNL1        0.1123
     28 H          -1.5879    1.5496   21.2014 H       1  UNL1        0.1510
@<TRIPOS>BOND
     1    18    19    1
     2    19    20   am
     3    20    21    2
     4    20    22   am
     5    22    23    1
     6    23    24    1
     7    24    25    1
     8    25    17    1
     9    17     1    1
    10     1     2   ar
    11     2     3   ar
    12     3     4   ar
    13     4     5   ar
    14     5     8    1
    15     8    10    1
    16    10    11   ar
    17    11    12   ar
    18    12    13   ar
    19    13    15    1
    20    15    16    3
    21    13    14   ar
    22     5     6   ar
    23     6     7    1
    24    25    26    1
    25    26    27    1
    26    27    22    1
    27     6     1   ar
    28    14    10   ar
    29    19    28    1
    30     8     9    1
@<TRIPOS>MOLECULE
*****
 28 30 0 0 0
SMALL
GASTEIGER

@<TRIPOS>ATOM
      1 C           7.1981   -2.8210   25.0491 C.ar    1  UNL1       -0.0059
      2 C           7.1355   -4.1724   25.6971 C.ar    1  UNL1        0.0175
      3 C           7.2724   -5.4114   24.8627 C.ar    1  UNL1        0.1000
      4 N           7.4719   -5.2990   23.3803 N.ar    1  UNL1       -0.2294
      5 C           7.5345   -3.9477   22.7322 C.ar    1  UNL1        0.1292
      6 C           7.3976   -2.7086   23.5666 C.ar    1  UNL1        0.0073
      7 C           7.4602   -1.3573   22.9186 C.3     1  UNL1        0.0337
      8 N           7.7340   -3.8353   21.2498 N.pl3   1  UNL1       -0.2784
      9 H           8.6399   -3.8958   20.8691 H       1  UNL1        0.1555
     10 C           6.5533   -3.6307   20.3476 C.ar    1  UNL1        0.1653
     11 N           5.3197   -4.4828   20.3029 N.ar    1  UNL1       -0.2217
     12 C           4.4029   -3.9169   19.2593 C.ar    1  UNL1        0.1177
     13 C           5.0700   -2.7149   18.6589 C.ar    1  UNL1        0.1194
     14 S           6.3990   -2.5381   19.3315 S.2     1  UNL1       -0.0409
     15 C           4.5069   -1.8429   17.5761 C.1     1  UNL1        0.1086
     16 N           3.9438   -0.9709   16.4932 N.1     1  UNL1       -0.1903
     17 C           7.0612   -1.5821   25.8835 C.3     1  UNL1        0.0991
     18 C          -0.5467   -0.0210   28.9547 C.3     1  UNL1        0.1122
     19 N           0.7200   -0.2760   28.1929 N.am    1  UNL1       -0.2870
     20 C           1.9943   -0.5621   28.9307 C.2     1  UNL1        0.3041
     21 O           2.0018   -0.5932   30.4304 O.2     1  UNL1       -0.2526
     22 N           3.2610   -0.8171   28.1689 N.am    1  UNL1       -0.2614
     23 C           3.2535   -0.7860   26.6693 C.3     1  UNL1        0.1123
     24 C           4.5202   -1.0410   25.9075 C.3     1  UNL1        0.0942
     25 N           5.7945   -1.3271   26.6453 N.3     1  UNL1       -0.2660
     26 C           5.8020   -1.3582   28.1449 C.3     1  UNL1        0.0942
     27 C           4.5352   -1.1032   28.9067 C.3     1  UNL1        0.1123
     28 H           0.7151   -0.2556   27.2086 H       1  UNL1        0.1510
@<TRIPOS>BOND
     1    18    19    1
     2    19    20   am
     3    20    21    2
     4    20    22   am
     5    22    23    1
     6    23    24    1
     7    24    25    1
     8    25    17    1
     9    17     1    1
    10     1     2   ar
    11     2     3   ar
    12     3     4   ar
    13     4     5   ar
    14     5     8    1
    15     8    10    1
    16    10    11   ar
    17    11    12   ar
    18    12    13   ar
    19    13    15    1
    20    15    16    3
    21    13    14   ar
    22     5     6   ar
    23     6     7    1
    24    25    26    1
    25    26    27    1
    26    27    22    1
    27     6     1   ar
    28    14    10   ar
    29    19    28    1
    30     8     9    1
@<TRIPOS>MOLECULE
*****
 28 30 0 0 0
SMALL
GASTEIGER

@<TRIPOS>ATOM
      1 C           6.0736   -2.7620   19.2284 C.ar    1  UNL1       -0.0059
      2 C           7.3220   -1.9826   18.9384 C.ar    1  UNL1        0.0175
      3 C           7.2448   -0.7092   18.1494 C.ar    1  UNL1        0.1000
      4 N           5.9193   -0.2152   17.6505 N.ar    1  UNL1       -0.2294
      5 C           4.6710   -0.9945   17.9405 C.ar    1  UNL1        0.1292
      6 C           4.7481   -2.2680   18.7295 C.ar    1  UNL1        0.0073
      7 C           3.4997   -3.0473   19.0195 C.3     1  UNL1        0.0337
      8 N           3.3454   -0.5005   17.4416 N.pl3   1  UNL1       -0.2784
      9 H           2.9382   -0.9059   16.6422 H       1  UNL1        0.1555
     10 C           2.6404    0.6112   18.1606 C.ar    1  UNL1        0.1653
     11 N           3.1657    2.0011   18.3661 N.ar    1  UNL1       -0.2217
     12 C           2.1362    2.7771   19.1329 C.ar    1  UNL1        0.1177
     13 C           0.9746    1.8667   19.4013 C.ar    1  UNL1        0.1194
     14 S           1.2862    0.5282   18.8004 S.2     1  UNL1       -0.0409
     15 C          -0.2786    2.2310   20.1408 C.1     1  UNL1        0.1086
     16 N          -1.5318    2.5953   20.8803 N.1     1  UNL1       -0.1903
     17 C           6.1507   -4.0354   20.0174 C.3     1  UNL1        0.0991
     18 C           6.2404   -3.2964   28.3357 C.3     1  UNL1        0.1122
     19 N           6.0065   -3.3445   26.8549 N.am    1  UNL1       -0.2870
     20 C           7.0864   -3.8427   25.9408 C.2     1  UNL1        0.3041
     21 O           8.4002   -4.2927   26.5076 O.2     1  UNL1       -0.2526
     22 N           6.8525   -3.8909   24.4600 N.am    1  UNL1       -0.2614
     23 C           5.5387   -3.4409   23.8932 C.3     1  UNL1        0.1123
     24 C           5.3047   -3.4891   22.4123 C.3     1  UNL1        0.0942
     25 N           6.3847   -3.9872   21.4982 N.3     1  UNL1       -0.2660
     26 C           7.6985   -4.4373   22.0650 C.3     1  UNL1        0.0942
     27 C           7.9324   -4.3891   23.5459 C.3     1  UNL1        0.1123
     28 H           5.1442   -3.0492   26.4829 H       1  UNL1        0.1510
@<TRIPOS>BOND
     1    18    19    1
     2    19    20   am
     3    20    21    2
     4    20    22   am
     5    22    23    1
     6    23    24    1
     7    24    25    1
     8    25    17    1
     9    17     1    1
    10     1     2   ar
    11     2     3   ar
    12     3     4   ar
    13     4     5   ar
    14     5     8    1
    15     8    10    1
    16    10    11   ar
    17    11    12   ar
    18    12    13   ar
    19    13    15    1
    20    15    16    3
    21    13    14   ar
    22     5     6   ar
    23     6     7    1
    24    25    26    1
    25    26    27    1
    26    27    22    1
    27     6     1   ar
    28    14    10   ar
    29    19    28    1
    30     8     9    1
@<TRIPOS>MOLECULE
*****
 28 30 0 0 0
SMALL
GASTEIGER

@<TRIPOS>ATOM
      1 C           7.2235   -3.2283   30.5789 C.ar    1  UNL1       -0.0059
      2 C           7.7970   -4.2124   31.5550 C.ar    1  UNL1        0.0175
      3 C           7.7248   -5.6828   31.2675 C.ar    1  UNL1        0.1000
      4 N           7.0791   -6.1692   30.0040 N.ar    1  UNL1       -0.2294
      5 C           6.5056   -5.1852   29.0280 C.ar    1  UNL1        0.1292
      6 C           6.5778   -3.7147   29.3154 C.ar    1  UNL1        0.0073
      7 C           6.0043   -2.7307   28.3393 C.3     1  UNL1        0.0337
      8 N           5.8598   -5.6716   27.7644 N.pl3   1  UNL1       -0.2784
      9 H           4.8785   -5.6869   27.6875 H       1  UNL1        0.1555
     10 C           6.7093   -6.1347   26.6182 C.ar    1  UNL1        0.1653
     11 N           7.1388   -7.5473   26.3533 N.ar    1  UNL1       -0.2217
     12 C           7.9734   -7.5521   25.1070 C.ar    1  UNL1        0.1177
     13 C           8.0597   -6.1424   24.6015 C.ar    1  UNL1        0.1194
     14 S           7.2784   -5.2664   25.5355 S.2     1  UNL1       -0.0409
     15 C           8.7976   -5.6884   23.3770 C.1     1  UNL1        0.1086
     16 N           9.5356   -5.2345   22.1525 N.1     1  UNL1       -0.1903
     17 C           7.2957   -1.7579   30.8663 C.3     1  UNL1        0.0991
     18 C           3.9288    0.9266   38.0222 C.3     1  UNL1        0.1122
     19 N           4.3129    0.4073   36.6684 N.am    1  UNL1       -0.2870
     20 C           5.7594    0.3194   36.2815 C.2     1  UNL1        0.3041
     21 O           6.8219    0.7508   37.2484 O.2     1  UNL1       -0.2526
     22 N           6.1435   -0.2000   34.9277 N.am    1  UNL1       -0.2614
     23 C           5.0810   -0.6314   33.9608 C.3     1  UNL1        0.1123
     24 C           5.4651   -1.1507   32.6070 C.3     1  UNL1        0.0942
     25 N           6.9117   -1.2386   32.2201 N.3     1  UNL1       -0.2660
     26 C           7.9741   -0.8072   33.1870 C.3     1  UNL1        0.0942
     27 C           7.5900   -0.2879   34.5408 C.3     1  UNL1        0.1123
     28 H           3.6155    0.1241   36.0337 H       1  UNL1        0.1510
@<TRIPOS>BOND
     1    18    19    1
     2    19    20   am
     3    20    21    2
     4    20    22   am
     5    22    23    1
     6    23    24    1
     7    24    25    1
     8    25    17    1
     9    17     1    1
    10     1     2   ar
    11     2     3   ar
    12     3     4   ar
    13     4     5   ar
    14     5     8    1
    15     8    10    1
    16    10    11   ar
    17    11    12   ar
    18    12    13   ar
    19    13    15    1
    20    15    16    3
    21    13    14   ar
    22     5     6   ar
    23     6     7    1
    24    25    26    1
    25    26    27    1
    26    27    22    1
    27     6     1   ar
    28    14    10   ar
    29    19    28    1
    30     8     9    1
