@<TRIPOS>MOLECULE
*****
 33 36 0 0 0
SMALL
GASTEIGER

@<TRIPOS>ATOM
      1 C          -0.6923    2.8767   23.2246 C.ar    1  UNL1        0.3283
      2 N           0.0001    2.1417   24.3338 N.ar    1  UNL1       -0.1746
      3 C          -0.6159    2.0934   25.7006 C.ar    1  UNL1        0.1712
      4 N          -1.9244    2.7801   25.9582 N.ar    1  UNL1       -0.1943
      5 C          -2.6168    3.5151   24.8490 C.ar    1  UNL1        0.2255
      6 N          -2.0008    3.5634   23.4822 N.ar    1  UNL1       -0.1607
      7 C           0.0765    1.3584   26.8098 C.ar    1  UNL1        0.0553
      8 C          -0.7295    0.6815   27.8786 C.ar    1  UNL1        0.0075
      9 C          -0.0371   -0.0534   28.9878 C.ar    1  UNL1        0.0340
     10 C           1.4612   -0.1115   29.0283 C.ar    1  UNL1        0.1254
     11 N           2.1536   -0.8466   30.1375 N.pl3   1  UNL1       -0.3426
     12 N           2.2671    0.5653   27.9595 N.ar    1  UNL1       -0.2295
     13 C           1.5748    1.3003   26.8503 C.ar    1  UNL1        0.1033
     14 H           1.6247   -1.2908   30.8390 H       1  UNL1        0.1437
     15 H           3.1370   -0.8847   30.1641 H       1  UNL1        0.1437
     16 N          -3.9253    4.2018   25.1066 N.pl3   1  UNL1       -0.2729
     17 C          -4.9178    4.3662   23.9941 C.3     1  UNL1        0.1257
     18 C          -6.2263    5.0529   24.2517 C.3     1  UNL1        0.1637
     19 O          -6.5422    5.5752   25.6219 O.3     1  UNL1       -0.3501
     20 C          -5.5496    5.4109   26.7345 C.3     1  UNL1        0.1637
     21 C          -4.2412    4.7242   26.4769 C.3     1  UNL1        0.1257
     22 O          -0.0763    2.9250   21.8578 O.3     1  UNL1       -0.4222
     23 C           2.6126   -0.4110   20.4826 C.ar    1  UNL1        0.0538
     24 C           3.1989    0.7998   21.1460 C.ar    1  UNL1        0.0076
     25 C           2.3026    1.9118   21.6044 C.ar    1  UNL1        0.0378
     26 C           0.8200    1.8130   21.3994 C.ar    1  UNL1        0.1487
     27 C           0.2337    0.6022   20.7360 C.ar    1  UNL1        0.0378
     28 C           1.1300   -0.5098   20.2776 C.ar    1  UNL1        0.0076
     29 C           4.9282   -2.6455   18.1600 C.3     1  UNL1        0.1152
     30 N           4.0319   -1.5335   18.6184 N.am    1  UNL1       -0.2726
     31 C           3.6587   -0.4321   17.6709 C.3     1  UNL1        0.1152
     32 C           3.5089   -1.5229   20.0242 C.2     1  UNL1        0.2491
     33 O           3.8821   -2.6243   20.9715 O.2     1  UNL1       -0.2699
@<TRIPOS>BOND
     1    29    30    1
     2    30    31    1
     3    30    32   am
     4    32    33    2
     5    32    23    1
     6    23    24   ar
     7    24    25   ar
     8    25    26   ar
     9    26    22    1
    10    22     1    1
    11     1     2   ar
    12     2     3   ar
    13     3     7    1
    14     7     8   ar
    15     8     9   ar
    16     9    10   ar
    17    10    11    1
    18    10    12   ar
    19    12    13   ar
    20     3     4   ar
    21     4     5   ar
    22     5    16    1
    23    16    17    1
    24    17    18    1
    25    18    19    1
    26    19    20    1
    27    20    21    1
    28     5     6   ar
    29    26    27   ar
    30    27    28   ar
    31    28    23   ar
    32     6     1   ar
    33    13     7   ar
    34    21    16    1
    35    11    14    1
    36    11    15    1
@<TRIPOS>MOLECULE
*****
 33 36 0 0 0
SMALL
GASTEIGER

@<TRIPOS>ATOM
      1 C          -0.2480    3.8687   20.4858 C.ar    1  UNL1        0.3283
      2 N          -1.6206    4.0453   19.9070 N.ar    1  UNL1       -0.1746
      3 C          -2.8293    3.8864   20.7810 C.ar    1  UNL1        0.1712
      4 N          -2.6654    3.5508   22.2338 N.ar    1  UNL1       -0.1943
      5 C          -1.2929    3.3742   22.8126 C.ar    1  UNL1        0.2255
      6 N          -0.0842    3.5331   21.9386 N.ar    1  UNL1       -0.1607
      7 C          -4.2018    4.0630   20.2022 C.ar    1  UNL1        0.0553
      8 C          -5.3505    4.4299   21.0945 C.ar    1  UNL1        0.0075
      9 C          -6.7230    4.6065   20.5158 C.ar    1  UNL1        0.0340
     10 C          -6.9469    4.4163   19.0448 C.ar    1  UNL1        0.1254
     11 N          -8.3195    4.5929   18.4661 N.pl3   1  UNL1       -0.3426
     12 N          -5.7983    4.0494   18.1526 N.ar    1  UNL1       -0.2295
     13 C          -4.4257    3.8727   18.7313 C.ar    1  UNL1        0.1033
     14 H          -9.0734    4.8337   19.0516 H       1  UNL1        0.1437
     15 H          -8.4664    4.4680   17.5006 H       1  UNL1        0.1437
     16 N          -1.1291    3.0386   24.2654 N.pl3   1  UNL1       -0.2729
     17 C          -0.0337    2.1116   24.7021 C.3     1  UNL1        0.1257
     18 C           0.1301    1.7760   26.1548 C.3     1  UNL1        0.1637
     19 O          -0.8014    2.3675   27.1709 O.3     1  UNL1       -0.3501
     20 C          -1.8968    3.2945   26.7342 C.3     1  UNL1        0.1637
     21 C          -2.0607    3.6301   25.2814 C.3     1  UNL1        0.1257
     22 O           0.9606    4.0276   19.6118 O.3     1  UNL1       -0.4222
     23 C           3.1750    0.3926   18.1514 C.ar    1  UNL1        0.0538
     24 C           3.9000    1.6947   18.3206 C.ar    1  UNL1        0.0076
     25 C           3.1619    2.9064   18.8074 C.ar    1  UNL1        0.0378
     26 C           1.6987    2.8159   19.1250 C.ar    1  UNL1        0.1487
     27 C           0.9737    1.5138   18.9559 C.ar    1  UNL1        0.0378
     28 C           1.7118    0.3021   18.4691 C.ar    1  UNL1        0.0076
     29 C           5.3342   -2.9372   18.1585 C.3     1  UNL1        0.1152
     30 N           4.5961   -1.7255   18.6453 N.am    1  UNL1       -0.2726
     31 C           4.5410   -1.4203   20.1130 C.3     1  UNL1        0.1152
     32 C           3.9131   -0.8191   17.6646 C.2     1  UNL1        0.2491
     33 O           3.9682   -1.1244   16.1971 O.2     1  UNL1       -0.2699
@<TRIPOS>BOND
     1    29    30    1
     2    30    31    1
     3    30    32   am
     4    32    33    2
     5    32    23    1
     6    23    24   ar
     7    24    25   ar
     8    25    26   ar
     9    26    22    1
    10    22     1    1
    11     1     2   ar
    12     2     3   ar
    13     3     7    1
    14     7     8   ar
    15     8     9   ar
    16     9    10   ar
    17    10    11    1
    18    10    12   ar
    19    12    13   ar
    20     3     4   ar
    21     4     5   ar
    22     5    16    1
    23    16    17    1
    24    17    18    1
    25    18    19    1
    26    19    20    1
    27    20    21    1
    28     5     6   ar
    29    26    27   ar
    30    27    28   ar
    31    28    23   ar
    32     6     1   ar
    33    13     7   ar
    34    21    16    1
    35    11    14    1
    36    11    15    1
@<TRIPOS>MOLECULE
*****
 33 36 0 0 0
SMALL
GASTEIGER

@<TRIPOS>ATOM
      1 C          -1.0484    3.8502   23.0034 C.ar    1  UNL1        0.3283
      2 N          -2.3919    4.1071   22.3878 N.ar    1  UNL1       -0.1746
      3 C          -2.7526    3.4666   21.0803 C.ar    1  UNL1        0.1712
      4 N          -1.7698    2.5692   20.3883 N.ar    1  UNL1       -0.1943
      5 C          -0.4263    2.3123   21.0039 C.ar    1  UNL1        0.2255
      6 N          -0.0656    2.9528   22.3115 N.ar    1  UNL1       -0.1607
      7 C          -4.0962    3.7235   20.4646 C.ar    1  UNL1        0.0553
      8 C          -4.2646    3.6540   18.9757 C.ar    1  UNL1        0.0075
      9 C          -5.6080    3.9109   18.3601 C.ar    1  UNL1        0.0340
     10 C          -6.7831    4.2372   19.2334 C.ar    1  UNL1        0.1254
     11 N          -8.1267    4.4941   18.6177 N.pl3   1  UNL1       -0.3426
     12 N          -6.6148    4.3066   20.7223 N.ar    1  UNL1       -0.2295
     13 C          -5.2713    4.0498   21.3379 C.ar    1  UNL1        0.1033
     14 H          -8.2372    4.4485   17.6405 H       1  UNL1        0.1437
     15 H          -8.8980    4.7082   19.1909 H       1  UNL1        0.1437
     16 N           0.5565    1.4149   20.3119 N.pl3   1  UNL1       -0.2729
     17 C           1.3493    1.9281   19.1466 C.3     1  UNL1        0.1257
     18 C           2.3321    1.0307   18.4546 C.3     1  UNL1        0.1637
     19 O           2.5221   -0.3798   18.9280 O.3     1  UNL1       -0.3501
     20 C           1.7293   -0.8931   20.0935 C.3     1  UNL1        0.1637
     21 C           0.7465    0.0043   20.7854 C.3     1  UNL1        0.1257
     22 O          -0.6877    4.4907   24.3109 O.3     1  UNL1       -0.4222
     23 C           0.3470    1.9279   27.8622 C.ar    1  UNL1        0.0538
     24 C           0.9180    3.3097   27.7427 C.ar    1  UNL1        0.0076
     25 C           0.5732    4.1640   26.5589 C.ar    1  UNL1        0.0378
     26 C          -0.3428    3.6364   25.4947 C.ar    1  UNL1        0.1487
     27 C          -0.9139    2.2546   25.6142 C.ar    1  UNL1        0.0378
     28 C          -0.5690    1.4003   26.7979 C.ar    1  UNL1        0.0076
     29 C           2.2840   -0.6138   30.2154 C.3     1  UNL1        0.1152
     30 N           1.9391    0.2405   29.0317 N.am    1  UNL1       -0.2726
     31 C           2.8415    0.2616   27.8337 C.3     1  UNL1        0.1152
     32 C           0.6918    1.0736   29.0459 C.2     1  UNL1        0.2491
     33 O          -0.2105    1.0524   30.2439 O.2     1  UNL1       -0.2699
@<TRIPOS>BOND
     1    29    30    1
     2    30    31    1
     3    30    32   am
     4    32    33    2
     5    32    23    1
     6    23    24   ar
     7    24    25   ar
     8    25    26   ar
     9    26    22    1
    10    22     1    1
    11     1     2   ar
    12     2     3   ar
    13     3     7    1
    14     7     8   ar
    15     8     9   ar
    16     9    10   ar
    17    10    11    1
    18    10    12   ar
    19    12    13   ar
    20     3     4   ar
    21     4     5   ar
    22     5    16    1
    23    16    17    1
    24    17    18    1
    25    18    19    1
    26    19    20    1
    27    20    21    1
    28     5     6   ar
    29    26    27   ar
    30    27    28   ar
    31    28    23   ar
    32     6     1   ar
    33    13     7   ar
    34    21    16    1
    35    11    14    1
    36    11    15    1
@<TRIPOS>MOLECULE
*****
 33 36 0 0 0
SMALL
GASTEIGER

@<TRIPOS>ATOM
      1 C          -0.3493    3.8685   20.5243 C.ar    1  UNL1        0.3283
      2 N          -0.1140    3.4741   21.9523 N.ar    1  UNL1       -0.1746
      3 C          -1.2768    3.3005   22.8838 C.ar    1  UNL1        0.1712
      4 N          -2.6749    3.5213   22.3874 N.ar    1  UNL1       -0.1943
      5 C          -2.9103    3.9157   20.9595 C.ar    1  UNL1        0.2255
      6 N          -1.7475    4.0892   20.0279 N.ar    1  UNL1       -0.1607
      7 C          -1.0414    2.9061   24.3119 C.ar    1  UNL1        0.0553
      8 C           0.0143    1.8944   24.6463 C.ar    1  UNL1        0.0075
      9 C           0.2497    1.5000   26.0742 C.ar    1  UNL1        0.0340
     10 C          -0.5707    2.1174   27.1677 C.ar    1  UNL1        0.1254
     11 N          -0.3354    1.7230   28.5957 N.pl3   1  UNL1       -0.3426
     12 N          -1.6264    3.1291   26.8333 N.ar    1  UNL1       -0.2295
     13 C          -1.8618    3.5235   25.4054 C.ar    1  UNL1        0.1033
     14 H           0.3575    1.0589   28.8152 H       1  UNL1        0.1437
     15 H          -0.8738    2.1282   29.3134 H       1  UNL1        0.1437
     16 N          -4.3084    4.1365   20.4631 N.pl3   1  UNL1       -0.2729
     17 C          -4.6795    3.7391   19.0651 C.3     1  UNL1        0.1257
     18 C          -6.0776    3.9599   18.5687 C.3     1  UNL1        0.1637
     19 O          -7.1047    4.5780   19.4703 O.3     1  UNL1       -0.3501
     20 C          -6.7337    4.9755   20.8683 C.3     1  UNL1        0.1637
     21 C          -5.3356    4.7547   21.3647 C.3     1  UNL1        0.1257
     22 O           0.8134    4.0420   19.5928 O.3     1  UNL1       -0.4222
     23 C           3.0852    0.4416   18.1345 C.ar    1  UNL1        0.0538
     24 C           1.6101    0.3452   18.3893 C.ar    1  UNL1        0.0076
     25 C           0.8529    1.5453   18.8753 C.ar    1  UNL1        0.0378
     26 C           1.5707    2.8419   19.1067 C.ar    1  UNL1        0.1487
     27 C           3.0457    2.9384   18.8519 C.ar    1  UNL1        0.0378
     28 C           3.8030    1.7382   18.3659 C.ar    1  UNL1        0.0076
     29 C           5.2658   -2.8742   18.1462 C.3     1  UNL1        0.1152
     30 N           4.5085   -1.6741   18.6323 N.am    1  UNL1       -0.2726
     31 C           4.4174   -1.3895   20.1023 C.3     1  UNL1        0.1152
     32 C           3.8424   -0.7585   17.6484 C.2     1  UNL1        0.2491
     33 O           3.9335   -1.0430   16.1785 O.2     1  UNL1       -0.2699
@<TRIPOS>BOND
     1    29    30    1
     2    30    31    1
     3    30    32   am
     4    32    33    2
     5    32    23    1
     6    23    24   ar
     7    24    25   ar
     8    25    26   ar
     9    26    22    1
    10    22     1    1
    11     1     2   ar
    12     2     3   ar
    13     3     7    1
    14     7     8   ar
    15     8     9   ar
    16     9    10   ar
    17    10    11    1
    18    10    12   ar
    19    12    13   ar
    20     3     4   ar
    21     4     5   ar
    22     5    16    1
    23    16    17    1
    24    17    18    1
    25    18    19    1
    26    19    20    1
    27    20    21    1
    28     5     6   ar
    29    26    27   ar
    30    27    28   ar
    31    28    23   ar
    32     6     1   ar
    33    13     7   ar
    34    21    16    1
    35    11    14    1
    36    11    15    1
@<TRIPOS>MOLECULE
*****
 33 36 0 0 0
SMALL
GASTEIGER

@<TRIPOS>ATOM
      1 C          -0.8760    3.3663   23.5622 C.ar    1  UNL1        0.3283
      2 N           0.1857    2.3613   23.2261 N.ar    1  UNL1       -0.1746
      3 C           0.1972    1.7052   21.8773 C.ar    1  UNL1        0.1712
      4 N          -0.8529    2.0539   20.8646 N.ar    1  UNL1       -0.1943
      5 C          -1.9146    3.0588   21.2006 C.ar    1  UNL1        0.2255
      6 N          -1.9261    3.7151   22.5495 N.ar    1  UNL1       -0.1607
      7 C           1.2589    0.7002   21.5412 C.ar    1  UNL1        0.0553
      8 C           1.0653   -0.2376   20.3866 C.ar    1  UNL1        0.0075
      9 C           2.1269   -1.2425   20.0505 C.ar    1  UNL1        0.0340
     10 C           3.3821   -1.3097   20.8690 C.ar    1  UNL1        0.1254
     11 N           4.4438   -2.3147   20.5329 N.pl3   1  UNL1       -0.3426
     12 N           3.5756   -0.3720   22.0236 N.ar    1  UNL1       -0.2295
     13 C           2.5140    0.6330   22.3597 C.ar    1  UNL1        0.1033
     14 H           4.3168   -2.9302   19.7751 H       1  UNL1        0.1437
     15 H           5.2676   -2.3588   21.0701 H       1  UNL1        0.1437
     16 N          -2.9647    3.4076   20.1879 N.pl3   1  UNL1       -0.2729
     17 C          -4.4154    3.2069   20.5122 C.3     1  UNL1        0.1257
     18 C          -5.4655    3.5557   19.4994 C.3     1  UNL1        0.1637
     19 O          -5.0649    4.1051   18.1624 O.3     1  UNL1       -0.3501
     20 C          -3.6142    4.3057   17.8381 C.3     1  UNL1        0.1637
     21 C          -2.5640    3.9570   18.8508 C.3     1  UNL1        0.1257
     22 O          -0.8876    4.0225   24.9110 O.3     1  UNL1       -0.4222
     23 C           0.6471    1.7976   28.5088 C.ar    1  UNL1        0.0538
     24 C           1.4254    2.9533   27.9534 C.ar    1  UNL1        0.0076
     25 C           0.9139    3.6949   26.7541 C.ar    1  UNL1        0.0378
     26 C          -0.3760    3.2809   26.1102 C.ar    1  UNL1        0.1487
     27 C          -1.1544    2.1252   26.6656 C.ar    1  UNL1        0.0378
     28 C          -0.6428    1.3835   27.8649 C.ar    1  UNL1        0.0076
     29 C           2.6620   -0.7976   30.7347 C.3     1  UNL1        0.1152
     30 N           2.1505   -0.0560   29.5355 N.am    1  UNL1       -0.2726
     31 C           2.6308   -0.4263   28.1635 C.3     1  UNL1        0.1152
     32 C           1.1586    1.0559   29.7081 C.2     1  UNL1        0.2491
     33 O           0.6783    1.4262   31.0800 O.2     1  UNL1       -0.2699
@<TRIPOS>BOND
     1    29    30    1
     2    30    31    1
     3    30    32   am
     4    32    33    2
     5    32    23    1
     6    23    24   ar
     7    24    25   ar
     8    25    26   ar
     9    26    22    1
    10    22     1    1
    11     1     2   ar
    12     2     3   ar
    13     3     7    1
    14     7     8   ar
    15     8     9   ar
    16     9    10   ar
    17    10    11    1
    18    10    12   ar
    19    12    13   ar
    20     3     4   ar
    21     4     5   ar
    22     5    16    1
    23    16    17    1
    24    17    18    1
    25    18    19    1
    26    19    20    1
    27    20    21    1
    28     5     6   ar
    29    26    27   ar
    30    27    28   ar
    31    28    23   ar
    32     6     1   ar
    33    13     7   ar
    34    21    16    1
    35    11    14    1
    36    11    15    1
@<TRIPOS>MOLECULE
*****
 33 36 0 0 0
SMALL
GASTEIGER

@<TRIPOS>ATOM
      1 C           6.3150   -1.5520   32.6896 C.ar    1  UNL1        0.3283
      2 N           5.8164   -0.8835   33.9365 N.ar    1  UNL1       -0.1746
      3 C           4.5700   -0.0501   33.8936 C.ar    1  UNL1        0.1712
      4 N           3.8221    0.1149   32.6039 N.ar    1  UNL1       -0.1943
      5 C           4.3206   -0.5535   31.3571 C.ar    1  UNL1        0.2255
      6 N           5.5670   -1.3870   31.3999 N.ar    1  UNL1       -0.1607
      7 C           4.0715    0.6183   35.1406 C.ar    1  UNL1        0.0553
      8 C           4.5627    0.1636   36.4829 C.ar    1  UNL1        0.0075
      9 C           4.0642    0.8320   37.7298 C.ar    1  UNL1        0.0340
     10 C           3.0745    1.9551   37.6343 C.ar    1  UNL1        0.1254
     11 N           2.5759    2.6235   38.8812 N.pl3   1  UNL1       -0.3426
     12 N           2.5833    2.4097   36.2919 N.ar    1  UNL1       -0.2295
     13 C           3.0818    1.7414   35.0451 C.ar    1  UNL1        0.1033
     14 H           2.8983    2.3251   39.7623 H       1  UNL1        0.1437
     15 H           1.9264    3.3606   38.8185 H       1  UNL1        0.1437
     16 N           3.5726   -0.3885   30.0673 N.pl3   1  UNL1       -0.2729
     17 C           4.3222   -0.3103   28.7704 C.3     1  UNL1        0.1257
     18 C           3.5742   -0.1452   27.4807 C.3     1  UNL1        0.1637
     19 O           2.0768   -0.0585   27.4879 O.3     1  UNL1       -0.3501
     20 C           1.3272   -0.1367   28.7849 C.3     1  UNL1        0.1637
     21 C           2.0751   -0.3017   30.0746 C.3     1  UNL1        0.1257
     22 O           7.5614   -2.3854   32.7324 O.3     1  UNL1       -0.4222
     23 C           8.1586   -5.6956   29.7432 C.ar    1  UNL1        0.0538
     24 C           9.0457   -4.4865   29.7105 C.ar    1  UNL1        0.0076
     25 C           8.8466   -3.3831   30.7069 C.ar    1  UNL1        0.0378
     26 C           7.7604   -3.4888   31.7360 C.ar    1  UNL1        0.1487
     27 C           6.8734   -4.6979   31.7687 C.ar    1  UNL1        0.0378
     28 C           7.0724   -5.8013   30.7722 C.ar    1  UNL1        0.0076
     29 C           7.7777   -7.9050   26.4685 C.3     1  UNL1        0.1152
     30 N           7.5786   -6.8016   27.4649 N.am    1  UNL1       -0.2726
     31 C           6.6004   -5.7008   27.1795 C.3     1  UNL1        0.1152
     32 C           8.3577   -6.7990   28.7467 C.2     1  UNL1        0.2491
     33 O           9.3358   -7.8998   29.0321 O.2     1  UNL1       -0.2699
@<TRIPOS>BOND
     1    29    30    1
     2    30    31    1
     3    30    32   am
     4    32    33    2
     5    32    23    1
     6    23    24   ar
     7    24    25   ar
     8    25    26   ar
     9    26    22    1
    10    22     1    1
    11     1     2   ar
    12     2     3   ar
    13     3     7    1
    14     7     8   ar
    15     8     9   ar
    16     9    10   ar
    17    10    11    1
    18    10    12   ar
    19    12    13   ar
    20     3     4   ar
    21     4     5   ar
    22     5    16    1
    23    16    17    1
    24    17    18    1
    25    18    19    1
    26    19    20    1
    27    20    21    1
    28     5     6   ar
    29    26    27   ar
    30    27    28   ar
    31    28    23   ar
    32     6     1   ar
    33    13     7   ar
    34    21    16    1
    35    11    14    1
    36    11    15    1
@<TRIPOS>MOLECULE
*****
 33 36 0 0 0
SMALL
GASTEIGER

@<TRIPOS>ATOM
      1 C          -0.6834    2.8457   20.8464 C.ar    1  UNL1        0.3283
      2 N           0.2210    1.9115   20.0985 N.ar    1  UNL1       -0.1746
      3 C           1.1165    0.9721   20.8505 C.ar    1  UNL1        0.1712
      4 N           1.1076    0.9669   22.3505 N.ar    1  UNL1       -0.1943
      5 C           0.2033    1.9010   23.0984 C.ar    1  UNL1        0.2255
      6 N          -0.6923    2.8405   22.3464 N.ar    1  UNL1       -0.1607
      7 C           2.0209    0.0378   20.1026 C.ar    1  UNL1        0.0553
      8 C           2.5292   -1.2068   20.7678 C.ar    1  UNL1        0.0075
      9 C           3.4336   -2.1410   20.0200 C.ar    1  UNL1        0.0340
     10 C           3.8297   -1.8306   18.6070 C.ar    1  UNL1        0.1254
     11 N           4.7341   -2.7649   17.8591 N.pl3   1  UNL1       -0.3426
     12 N           3.3214   -0.5860   17.9418 N.ar    1  UNL1       -0.2295
     13 C           2.4170    0.3483   18.6896 C.ar    1  UNL1        0.1033
     14 H           5.0677   -3.5818   18.2957 H       1  UNL1        0.1437
     15 H           4.9941   -2.5611   16.9316 H       1  UNL1        0.1437
     16 N           0.1944    1.8958   24.5984 N.pl3   1  UNL1       -0.2729
     17 C          -0.9896    2.4373   25.3433 C.3     1  UNL1        0.1257
     18 C          -0.9985    2.4321   26.8432 C.3     1  UNL1        0.1637
     19 O           0.1766    1.8854   27.5983 O.3     1  UNL1       -0.3501
     20 C           1.3607    1.3439   26.8534 C.3     1  UNL1        0.1637
     21 C           1.3696    1.3491   25.3535 C.3     1  UNL1        0.1257
     22 O          -1.5789    3.7851   20.0943 O.3     1  UNL1       -0.4222
     23 C          -5.5904    4.9135   21.7927 C.ar    1  UNL1        0.0538
     24 C          -5.4088    3.5876   21.1152 C.ar    1  UNL1        0.0076
     25 C          -4.0717    3.2115   20.5491 C.ar    1  UNL1        0.0378
     26 C          -2.9160    4.1612   20.6604 C.ar    1  UNL1        0.1487
     27 C          -3.0976    5.4871   21.3379 C.ar    1  UNL1        0.0378
     28 C          -4.4348    5.8633   21.9040 C.ar    1  UNL1        0.0076
     29 C          -8.5779    5.3783   24.3633 C.3     1  UNL1        0.1152
     30 N          -7.2408    5.0022   23.7972 N.am    1  UNL1       -0.2726
     31 C          -6.2168    4.3386   24.6697 C.3     1  UNL1        0.1152
     32 C          -6.9276    5.2896   22.3588 C.2     1  UNL1        0.2491
     33 O          -7.9515    5.9532   21.4864 O.2     1  UNL1       -0.2699
@<TRIPOS>BOND
     1    29    30    1
     2    30    31    1
     3    30    32   am
     4    32    33    2
     5    32    23    1
     6    23    24   ar
     7    24    25   ar
     8    25    26   ar
     9    26    22    1
    10    22     1    1
    11     1     2   ar
    12     2     3   ar
    13     3     7    1
    14     7     8   ar
    15     8     9   ar
    16     9    10   ar
    17    10    11    1
    18    10    12   ar
    19    12    13   ar
    20     3     4   ar
    21     4     5   ar
    22     5    16    1
    23    16    17    1
    24    17    18    1
    25    18    19    1
    26    19    20    1
    27    20    21    1
    28     5     6   ar
    29    26    27   ar
    30    27    28   ar
    31    28    23   ar
    32     6     1   ar
    33    13     7   ar
    34    21    16    1
    35    11    14    1
    36    11    15    1
@<TRIPOS>MOLECULE
*****
 33 36 0 0 0
SMALL
GASTEIGER

@<TRIPOS>ATOM
      1 C          -0.9164    3.0745   22.3446 C.ar    1  UNL1        0.3283
      2 N          -0.1955    2.7196   23.6113 N.ar    1  UNL1       -0.1746
      3 C          -0.9091    2.8000   24.9281 C.ar    1  UNL1        0.1712
      4 N          -2.3437    3.2352   24.9784 N.ar    1  UNL1       -0.1943
      5 C          -3.0647    3.5901   23.7118 C.ar    1  UNL1        0.2255
      6 N          -2.3510    3.5097   22.3949 N.ar    1  UNL1       -0.1607
      7 C          -0.1882    2.4451   26.1948 C.ar    1  UNL1        0.0553
      8 C          -0.8581    1.5815   27.2223 C.ar    1  UNL1        0.0075
      9 C          -0.1372    1.2266   28.4889 C.ar    1  UNL1        0.0340
     10 C           1.2534    1.7353   28.7281 C.ar    1  UNL1        0.1254
     11 N           1.9744    1.3804   29.9948 N.pl3   1  UNL1       -0.3426
     12 N           1.9233    2.5988   27.7007 N.ar    1  UNL1       -0.2295
     13 C           1.2024    2.9537   26.4340 C.ar    1  UNL1        0.1033
     14 H           1.5347    0.8136   30.6691 H       1  UNL1        0.1437
     15 H           2.8871    1.7142   30.1518 H       1  UNL1        0.1437
     16 N          -4.4992    4.0253   23.7621 N.pl3   1  UNL1       -0.2729
     17 C          -5.0163    4.7678   24.9585 C.3     1  UNL1        0.1257
     18 C          -6.4509    5.2030   25.0087 C.3     1  UNL1        0.1637
     19 O          -7.3684    4.8957   23.8626 O.3     1  UNL1       -0.3501
     20 C          -6.8514    4.1532   22.6662 C.3     1  UNL1        0.1637
     21 C          -5.4168    3.7180   22.6159 C.3     1  UNL1        0.1257
     22 O          -0.2027    2.9941   21.0277 O.3     1  UNL1       -0.4222
     23 C           2.6295   -0.4052   20.2072 C.ar    1  UNL1        0.0538
     24 C           3.1666    0.9485   20.5662 C.ar    1  UNL1        0.0076
     25 C           2.2225    2.0816   20.8397 C.ar    1  UNL1        0.0378
     26 C           0.7413    1.8610   20.7542 C.ar    1  UNL1        0.1487
     27 C           0.2042    0.5073   20.3952 C.ar    1  UNL1        0.0378
     28 C           1.1483   -0.6258   20.1216 C.ar    1  UNL1        0.0076
     29 C           5.0732   -2.8683   18.2808 C.3     1  UNL1        0.1152
     30 N           4.1292   -1.7352   18.5544 N.am    1  UNL1       -0.2726
     31 C           3.7407   -0.7991   17.4485 C.3     1  UNL1        0.1152
     32 C           3.5735   -1.5383   19.9336 C.2     1  UNL1        0.2491
     33 O           3.9620   -2.4744   21.0394 O.2     1  UNL1       -0.2699
@<TRIPOS>BOND
     1    29    30    1
     2    30    31    1
     3    30    32   am
     4    32    33    2
     5    32    23    1
     6    23    24   ar
     7    24    25   ar
     8    25    26   ar
     9    26    22    1
    10    22     1    1
    11     1     2   ar
    12     2     3   ar
    13     3     7    1
    14     7     8   ar
    15     8     9   ar
    16     9    10   ar
    17    10    11    1
    18    10    12   ar
    19    12    13   ar
    20     3     4   ar
    21     4     5   ar
    22     5    16    1
    23    16    17    1
    24    17    18    1
    25    18    19    1
    26    19    20    1
    27    20    21    1
    28     5     6   ar
    29    26    27   ar
    30    27    28   ar
    31    28    23   ar
    32     6     1   ar
    33    13     7   ar
    34    21    16    1
    35    11    14    1
    36    11    15    1
@<TRIPOS>MOLECULE
*****
 33 36 0 0 0
SMALL
GASTEIGER

@<TRIPOS>ATOM
      1 C          -0.3281    2.5842   22.8119 C.ar    1  UNL1        0.3283
      2 N           0.2861    1.8705   23.9796 N.ar    1  UNL1       -0.1746
      3 C          -0.3255    1.9989   25.3432 C.ar    1  UNL1        0.1712
      4 N          -1.5513    2.8409   25.5391 N.ar    1  UNL1       -0.1943
      5 C          -2.1655    3.5545   24.3715 C.ar    1  UNL1        0.2255
      6 N          -1.5539    3.4262   23.0078 N.ar    1  UNL1       -0.1607
      7 C           0.2887    1.2852   26.5109 C.ar    1  UNL1        0.0553
      8 C          -0.5821    0.7752   27.6207 C.ar    1  UNL1        0.0075
      9 C           0.0320    0.0616   28.7884 C.ar    1  UNL1        0.0340
     10 C           1.5170   -0.1421   28.8463 C.ar    1  UNL1        0.1254
     11 N           2.1312   -0.8557   30.0140 N.pl3   1  UNL1       -0.3426
     12 N           2.3878    0.3679   27.7365 N.ar    1  UNL1       -0.2295
     13 C           1.7737    1.0815   26.5688 C.ar    1  UNL1        0.1033
     14 H           1.5597   -1.1904   30.7424 H       1  UNL1        0.1437
     15 H           3.1058   -0.9894   30.0520 H       1  UNL1        0.1437
     16 N          -3.3913    4.3965   24.5674 N.pl3   1  UNL1       -0.2729
     17 C          -3.5492    5.6798   23.8070 C.3     1  UNL1        0.1257
     18 C          -4.7750    6.5218   24.0030 C.3     1  UNL1        0.1637
     19 O          -5.8430    6.0805   24.9593 O.3     1  UNL1       -0.3501
     20 C          -5.6852    4.7972   25.7198 C.3     1  UNL1        0.1637
     21 C          -4.4593    3.9552   25.5239 C.3     1  UNL1        0.1257
     22 O           0.2835    2.4558   21.4483 O.3     1  UNL1       -0.4222
     23 C           3.4323   -0.6658   20.6793 C.ar    1  UNL1        0.0538
     24 C           1.9846   -0.9904   20.4583 C.ar    1  UNL1        0.0076
     25 C           0.9350    0.0502   20.7146 C.ar    1  UNL1        0.0378
     26 C           1.3331    1.4153   21.1920 C.ar    1  UNL1        0.1487
     27 C           2.7808    1.7399   21.4130 C.ar    1  UNL1        0.0378
     28 C           3.8303    0.6994   21.1567 C.ar    1  UNL1        0.0076
     29 C           5.9603   -3.6673   21.2706 C.3     1  UNL1        0.1152
     30 N           4.9107   -2.6268   21.5270 N.am    1  UNL1       -0.2726
     31 C           4.2900   -2.5068   22.8873 C.3     1  UNL1        0.1152
     32 C           4.4818   -1.7063   20.4230 C.2     1  UNL1        0.2491
     33 O           5.1025   -1.8263   19.0628 O.2     1  UNL1       -0.2699
@<TRIPOS>BOND
     1    29    30    1
     2    30    31    1
     3    30    32   am
     4    32    33    2
     5    32    23    1
     6    23    24   ar
     7    24    25   ar
     8    25    26   ar
     9    26    22    1
    10    22     1    1
    11     1     2   ar
    12     2     3   ar
    13     3     7    1
    14     7     8   ar
    15     8     9   ar
    16     9    10   ar
    17    10    11    1
    18    10    12   ar
    19    12    13   ar
    20     3     4   ar
    21     4     5   ar
    22     5    16    1
    23    16    17    1
    24    17    18    1
    25    18    19    1
    26    19    20    1
    27    20    21    1
    28     5     6   ar
    29    26    27   ar
    30    27    28   ar
    31    28    23   ar
    32     6     1   ar
    33    13     7   ar
    34    21    16    1
    35    11    14    1
    36    11    15    1
