@<TRIPOS>MOLECULE
*****
 32 34 0 0 0
SMALL
GASTEIGER

@<TRIPOS>ATOM
      1 C          -6.7196  -17.0217   23.0580 C.2     1  UNL1        0.2296
      2 O          -5.3227  -16.7431   23.5281 O.2     1  UNL1       -0.2745
      3 N          -7.0663  -18.3671   22.4926 N.am    1  UNL1       -0.2543
      4 C          -8.4633  -18.6457   22.0225 C.ar    1  UNL1        0.0551
      5 C          -8.7038  -19.1003   20.6135 C.ar    1  UNL1        0.0263
      6 C         -10.1008  -19.3789   20.1435 C.ar    1  UNL1        0.0590
      7 CL        -10.3413  -19.8335   18.7344 Cl      1  UNL1       -0.0822
      8 C         -11.2572  -19.2028   21.0825 C.ar    1  UNL1        0.0146
      9 C         -11.0166  -18.7482   22.4915 C.ar    1  UNL1        0.0392
     10 C          -9.6197  -18.4696   22.9615 C.ar    1  UNL1        0.0181
     11 C         -12.1731  -18.5721   23.4305 C.ar    1  UNL1        0.1806
     12 N         -13.5276  -18.0375   23.0706 N.ar    1  UNL1       -0.1083
     13 N         -14.3696  -18.0347   24.3119 N.ar    1  UNL1       -0.0229
     14 N         -13.5356  -18.5675   25.4391 N.ar    1  UNL1       -0.0464
     15 N         -12.1780  -18.8996   24.8943 N.ar    1  UNL1       -0.2388
     16 H         -11.4228  -19.2679   25.4074 H       1  UNL1        0.1923
     17 C          -7.7698  -15.9549   23.1533 C.3     1  UNL1        0.0856
     18 C          -7.9545  -15.1967   24.4343 C.3     1  UNL1        0.0096
     19 C          -8.0748  -15.5190   27.0095 C.3     1  UNL1        0.0000
     20 C          -8.5456  -15.8798   25.6317 C.3     1  UNL1        0.0005
     21 C          -6.0162  -19.4339   22.3973 C.3     1  UNL1        0.1247
     22 C          -4.7755  -19.1950   21.5888 C.ar    1  UNL1       -0.0018
     23 C          -4.8818  -18.8938   20.1232 C.ar    1  UNL1        0.0005
     24 C          -3.6412  -18.6549   19.3147 C.ar    1  UNL1        0.0369
     25 C          -2.2942  -18.7171   19.9719 C.ar    1  UNL1        0.1468
     26 C          -2.1879  -19.0183   21.4374 C.ar    1  UNL1        0.0369
     27 C          -3.4286  -19.2572   22.2459 C.ar    1  UNL1        0.0005
     28 O          -1.0535  -18.4782   19.1633 O.3     1  UNL1       -0.4045
     29 C           0.1510  -17.8553   19.8044 C.3     1  UNL1        0.5753
     30 F           1.3557  -17.2325   20.4454 F       1  UNL1       -0.1328
     31 F           0.8997  -19.1461   19.6517 F       1  UNL1       -0.1328
     32 F          -0.5976  -16.5645   19.9570 F       1  UNL1       -0.1328
@<TRIPOS>BOND
     1    19    20    1
     2    20    18    1
     3    18    17    1
     4    17     1    1
     5     1     2    2
     6     1     3   am
     7     3    21    1
     8    21    22    1
     9    22    23   ar
    10    23    24   ar
    11    24    25   ar
    12    25    28    1
    13    28    29    1
    14    29    30    1
    15    29    31    1
    16    29    32    1
    17    25    26   ar
    18    26    27   ar
    19     3     4    1
    20     4     5   ar
    21     5     6   ar
    22     6     7    1
    23     6     8   ar
    24     8     9   ar
    25     9    11    1
    26    11    12   ar
    27    12    13   ar
    28    13    14   ar
    29    14    15   ar
    30     9    10   ar
    31    27    22   ar
    32    10     4   ar
    33    15    11   ar
    34    15    16    1
@<TRIPOS>MOLECULE
*****
 32 34 0 0 0
SMALL
GASTEIGER

@<TRIPOS>ATOM
      1 C          -6.1594  -16.8982   23.3716 C.2     1  UNL1        0.2296
      2 O          -4.6622  -16.9877   23.3884 O.2     1  UNL1       -0.2745
      3 N          -6.9738  -18.0494   22.8603 N.am    1  UNL1       -0.2543
      4 C          -8.4711  -17.9599   22.8435 C.ar    1  UNL1        0.0551
      5 C          -9.2739  -18.6154   23.9278 C.ar    1  UNL1        0.0263
      6 C         -10.7711  -18.5259   23.9109 C.ar    1  UNL1        0.0590
      7 CL        -11.5739  -19.1814   24.9953 Cl      1  UNL1       -0.0822
      8 C         -11.4655  -17.7808   22.8097 C.ar    1  UNL1        0.0146
      9 C         -10.6627  -17.1254   21.7253 C.ar    1  UNL1        0.0392
     10 C          -9.1655  -17.2149   21.7422 C.ar    1  UNL1        0.0181
     11 C         -11.3572  -16.3803   20.6241 C.ar    1  UNL1        0.1806
     12 N         -12.8409  -16.2439   20.4511 N.ar    1  UNL1       -0.1083
     13 N         -13.0905  -15.4202   19.2226 N.ar    1  UNL1       -0.0229
     14 N         -11.7611  -15.0475   18.6364 N.ar    1  UNL1       -0.0464
     15 N         -10.6898  -15.6409   19.5026 N.ar    1  UNL1       -0.2388
     16 H          -9.7191  -15.5594   19.3600 H       1  UNL1        0.1923
     17 C          -6.8422  -15.6575   23.8660 C.3     1  UNL1        0.0856
     18 C          -6.9243  -15.3827   25.3384 C.3     1  UNL1        0.0096
     19 C          -8.2817  -16.4273   27.2918 C.3     1  UNL1        0.0000
     20 C          -8.2238  -15.5669   26.0644 C.3     1  UNL1        0.0005
     21 C          -6.2910  -19.2901   22.3659 C.3     1  UNL1        0.1247
     22 C          -5.0054  -19.1843   21.6003 C.ar    1  UNL1       -0.0018
     23 C          -3.6999  -19.4621   22.2847 C.ar    1  UNL1        0.0005
     24 C          -2.4144  -19.3563   21.5191 C.ar    1  UNL1        0.0369
     25 C          -2.4343  -18.9726   20.0692 C.ar    1  UNL1        0.1468
     26 C          -3.7398  -18.6948   19.3848 C.ar    1  UNL1        0.0369
     27 C          -5.0253  -18.8006   20.1503 C.ar    1  UNL1        0.0005
     28 O          -1.1487  -18.8668   19.3036 O.3     1  UNL1       -0.4045
     29 C          -0.0864  -17.9068   19.7507 C.3     1  UNL1        0.5753
     30 F           0.9759  -16.9468   20.1978 F       1  UNL1       -0.1328
     31 F          -1.0975  -16.7992   19.7748 F       1  UNL1       -0.1328
     32 F           0.9247  -19.0145   19.7265 F       1  UNL1       -0.1328
@<TRIPOS>BOND
     1    19    20    1
     2    20    18    1
     3    18    17    1
     4    17     1    1
     5     1     2    2
     6     1     3   am
     7     3    21    1
     8    21    22    1
     9    22    23   ar
    10    23    24   ar
    11    24    25   ar
    12    25    28    1
    13    28    29    1
    14    29    30    1
    15    29    31    1
    16    29    32    1
    17    25    26   ar
    18    26    27   ar
    19     3     4    1
    20     4     5   ar
    21     5     6   ar
    22     6     7    1
    23     6     8   ar
    24     8     9   ar
    25     9    11    1
    26    11    12   ar
    27    12    13   ar
    28    13    14   ar
    29    14    15   ar
    30     9    10   ar
    31    27    22   ar
    32    10     4   ar
    33    15    11   ar
    34    15    16    1
@<TRIPOS>MOLECULE
*****
 32 34 0 0 0
SMALL
GASTEIGER

@<TRIPOS>ATOM
      1 C          -6.9330  -17.0742   22.9473 C.2     1  UNL1        0.2296
      2 O          -5.5180  -16.8589   23.3962 O.2     1  UNL1       -0.2745
      3 N          -7.3614  -18.4177   22.4360 N.am    1  UNL1       -0.2543
      4 C          -8.7764  -18.6330   21.9872 C.ar    1  UNL1        0.0551
      5 C          -9.0655  -18.9723   20.5550 C.ar    1  UNL1        0.0263
      6 C         -10.4805  -19.1875   20.1061 C.ar    1  UNL1        0.0590
      7 CL        -10.7697  -19.5268   18.6739 Cl      1  UNL1       -0.0822
      8 C         -11.6064  -19.0635   21.0895 C.ar    1  UNL1        0.0146
      9 C         -11.3173  -18.7242   22.5217 C.ar    1  UNL1        0.0392
     10 C          -9.9023  -18.5089   22.9705 C.ar    1  UNL1        0.0181
     11 C         -12.4431  -18.6001   23.5051 C.ar    1  UNL1        0.1806
     12 N         -12.4014  -19.0048   24.9489 N.ar    1  UNL1       -0.1083
     13 N         -13.7409  -18.7044   25.5535 N.ar    1  UNL1       -0.0229
     14 N         -14.6105  -18.1141   24.4833 N.ar    1  UNL1       -0.0464
     15 N         -13.8085  -18.0496   23.2174 N.ar    1  UNL1       -0.2388
     16 H         -14.1230  -17.7063   22.3500 H       1  UNL1        0.1923
     17 C          -7.9196  -15.9459   23.0097 C.3     1  UNL1        0.0856
     18 C          -8.6962  -15.5602   21.7857 C.3     1  UNL1        0.0096
     19 C          -9.1298  -13.8209   19.9052 C.3     1  UNL1        0.0000
     20 C          -8.2053  -14.4497   20.9051 C.3     1  UNL1        0.0005
     21 C          -6.3749  -19.5459   22.3736 C.3     1  UNL1        0.1247
     22 C          -5.0846  -19.3736   21.6283 C.ar    1  UNL1       -0.0018
     23 C          -3.7776  -19.5938   22.3307 C.ar    1  UNL1        0.0005
     24 C          -2.4874  -19.4215   21.5853 C.ar    1  UNL1        0.0369
     25 C          -2.5041  -19.0290   20.1377 C.ar    1  UNL1        0.1468
     26 C          -3.8110  -18.8087   19.4354 C.ar    1  UNL1        0.0369
     27 C          -5.1013  -18.9810   20.1807 C.ar    1  UNL1        0.0005
     28 O          -1.2137  -18.8566   19.3924 O.3     1  UNL1       -0.4045
     29 C          -0.2343  -17.8049   19.8218 C.3     1  UNL1        0.5753
     30 F           0.7453  -16.7531   20.2512 F       1  UNL1       -0.1328
     31 F           0.8471  -18.8418   19.8951 F       1  UNL1       -0.1328
     32 F          -1.3156  -16.7680   19.7485 F       1  UNL1       -0.1328
@<TRIPOS>BOND
     1    19    20    1
     2    20    18    1
     3    18    17    1
     4    17     1    1
     5     1     2    2
     6     1     3   am
     7     3    21    1
     8    21    22    1
     9    22    23   ar
    10    23    24   ar
    11    24    25   ar
    12    25    28    1
    13    28    29    1
    14    29    30    1
    15    29    31    1
    16    29    32    1
    17    25    26   ar
    18    26    27   ar
    19     3     4    1
    20     4     5   ar
    21     5     6   ar
    22     6     7    1
    23     6     8   ar
    24     8     9   ar
    25     9    11    1
    26    11    12   ar
    27    12    13   ar
    28    13    14   ar
    29    14    15   ar
    30     9    10   ar
    31    27    22   ar
    32    10     4   ar
    33    15    11   ar
    34    15    16    1
@<TRIPOS>MOLECULE
*****
 32 34 0 0 0
SMALL
GASTEIGER

@<TRIPOS>ATOM
      1 C          -5.9817  -18.6918   22.1728 C.2     1  UNL1        0.2296
      2 O          -4.6247  -18.1700   22.5418 O.2     1  UNL1       -0.2745
      3 N          -7.1648  -17.7696   22.1706 N.am    1  UNL1       -0.2543
      4 C          -8.5218  -18.2915   21.8016 C.ar    1  UNL1        0.0551
      5 C          -8.7369  -18.9456   20.4690 C.ar    1  UNL1        0.0263
      6 C         -10.0939  -19.4675   20.1001 C.ar    1  UNL1        0.0590
      7 CL        -10.3091  -20.1217   18.7675 Cl      1  UNL1       -0.0822
      8 C         -11.2358  -19.3351   21.0637 C.ar    1  UNL1        0.0146
      9 C         -11.0207  -18.6810   22.3962 C.ar    1  UNL1        0.0392
     10 C          -9.6637  -18.1591   22.7652 C.ar    1  UNL1        0.0181
     11 C         -12.1626  -18.5486   23.3598 C.ar    1  UNL1        0.1806
     12 N         -13.5239  -18.0032   23.0443 N.ar    1  UNL1       -0.1083
     13 N         -14.3463  -18.0559   24.2976 N.ar    1  UNL1       -0.0229
     14 N         -13.4934  -18.6340   25.3878 N.ar    1  UNL1       -0.0464
     15 N         -12.1438  -18.9385   24.8082 N.ar    1  UNL1       -0.2388
     16 H         -11.3799  -19.3262   25.2932 H       1  UNL1        0.1923
     17 C          -6.1558  -20.1358   21.8060 C.3     1  UNL1        0.0856
     18 C          -5.6456  -20.6419   20.4893 C.3     1  UNL1        0.0096
     19 C          -3.6181  -19.3917   19.4520 C.3     1  UNL1        0.0000
     20 C          -4.1797  -20.5779   20.1783 C.3     1  UNL1        0.0005
     21 C          -6.9908  -16.3256   22.5373 C.3     1  UNL1        0.1247
     22 C          -6.9436  -15.9187   23.9804 C.ar    1  UNL1       -0.0018
     23 C          -5.6404  -15.5142   24.6033 C.ar    1  UNL1        0.0005
     24 C          -5.5932  -15.1074   26.0463 C.ar    1  UNL1        0.0369
     25 C          -6.8492  -15.1049   26.8663 C.ar    1  UNL1        0.1468
     26 C          -8.1524  -15.5094   26.2434 C.ar    1  UNL1        0.0369
     27 C          -8.1996  -15.9163   24.8004 C.ar    1  UNL1        0.0005
     28 O          -6.8020  -14.6980   28.3093 O.3     1  UNL1       -0.4045
     29 C          -7.2463  -13.3244   28.7162 C.3     1  UNL1        0.5753
     30 F          -7.6907  -11.9506   29.1230 F       1  UNL1       -0.1328
     31 F          -8.6789  -13.7470   28.5785 F       1  UNL1       -0.1328
     32 F          -5.8137  -12.9018   28.8538 F       1  UNL1       -0.1328
@<TRIPOS>BOND
     1    19    20    1
     2    20    18    1
     3    18    17    1
     4    17     1    1
     5     1     2    2
     6     1     3   am
     7     3    21    1
     8    21    22    1
     9    22    23   ar
    10    23    24   ar
    11    24    25   ar
    12    25    28    1
    13    28    29    1
    14    29    30    1
    15    29    31    1
    16    29    32    1
    17    25    26   ar
    18    26    27   ar
    19     3     4    1
    20     4     5   ar
    21     5     6   ar
    22     6     7    1
    23     6     8   ar
    24     8     9   ar
    25     9    11    1
    26    11    12   ar
    27    12    13   ar
    28    13    14   ar
    29    14    15   ar
    30     9    10   ar
    31    27    22   ar
    32    10     4   ar
    33    15    11   ar
    34    15    16    1
@<TRIPOS>MOLECULE
*****
 32 34 0 0 0
SMALL
GASTEIGER

@<TRIPOS>ATOM
      1 C           2.0812    2.9953   22.2285 C.2     1  UNL1        0.2296
      2 O           2.9248    2.7634   21.0101 O.2     1  UNL1       -0.2745
      3 N           0.9456    2.0668   22.5423 N.am    1  UNL1       -0.2543
      4 C           0.1020    2.2987   23.7608 C.ar    1  UNL1        0.0551
      5 C          -0.9883    3.3285   23.7332 C.ar    1  UNL1        0.0263
      6 C          -1.8319    3.5604   24.9516 C.ar    1  UNL1        0.0590
      7 CL         -2.9222    4.5903   24.9240 Cl      1  UNL1       -0.0822
      8 C          -1.5852    2.7626   26.1976 C.ar    1  UNL1        0.0146
      9 C          -0.4949    1.7328   26.2252 C.ar    1  UNL1        0.0392
     10 C           0.3487    1.5009   25.0068 C.ar    1  UNL1        0.0181
     11 C          -0.2482    0.9349   27.4712 C.ar    1  UNL1        0.1806
     12 N           1.0931    0.5397   28.0139 N.ar    1  UNL1       -0.1083
     13 N           0.8708   -0.2473   29.2714 N.ar    1  UNL1       -0.0229
     14 N          -0.6079   -0.3385   29.5058 N.ar    1  UNL1       -0.0464
     15 N          -1.2995    0.3922   28.3932 N.ar    1  UNL1       -0.2388
     16 H          -2.2726    0.4971   28.2868 H       1  UNL1        0.1923
     17 C           2.3731    4.1557   23.1331 C.3     1  UNL1        0.0856
     18 C           3.3272    3.9919   24.2789 C.3     1  UNL1        0.0096
     19 C           1.6271    4.9340   26.0028 C.3     1  UNL1        0.0000
     20 C           2.8290    4.0928   25.6901 C.3     1  UNL1        0.0005
     21 C           0.6537    0.9064   21.6378 C.3     1  UNL1        0.1247
     22 C           1.7066   -0.1320   21.3863 C.ar    1  UNL1       -0.0018
     23 C           2.6303   -0.5468   22.4930 C.ar    1  UNL1        0.0005
     24 C           3.6831   -1.5852   22.2415 C.ar    1  UNL1        0.0369
     25 C           3.8123   -2.2088   20.8834 C.ar    1  UNL1        0.1468
     26 C           2.8886   -1.7939   19.7767 C.ar    1  UNL1        0.0369
     27 C           1.8358   -0.7556   20.0282 C.ar    1  UNL1        0.0005
     28 O           4.8652   -3.2472   20.6320 O.3     1  UNL1       -0.4045
     29 C           4.7207   -4.1985   19.4813 C.3     1  UNL1        0.5753
     30 F           4.5762   -5.1498   18.3306 F       1  UNL1       -0.1328
     31 F           3.7340   -5.0052   20.2721 F       1  UNL1       -0.1328
     32 F           5.7075   -3.3917   18.6905 F       1  UNL1       -0.1328
@<TRIPOS>BOND
     1    19    20    1
     2    20    18    1
     3    18    17    1
     4    17     1    1
     5     1     2    2
     6     1     3   am
     7     3    21    1
     8    21    22    1
     9    22    23   ar
    10    23    24   ar
    11    24    25   ar
    12    25    28    1
    13    28    29    1
    14    29    30    1
    15    29    31    1
    16    29    32    1
    17    25    26   ar
    18    26    27   ar
    19     3     4    1
    20     4     5   ar
    21     5     6   ar
    22     6     7    1
    23     6     8   ar
    24     8     9   ar
    25     9    11    1
    26    11    12   ar
    27    12    13   ar
    28    13    14   ar
    29    14    15   ar
    30     9    10   ar
    31    27    22   ar
    32    10     4   ar
    33    15    11   ar
    34    15    16    1
@<TRIPOS>MOLECULE
*****
 32 34 0 0 0
SMALL
GASTEIGER

@<TRIPOS>ATOM
      1 C           6.8216   -4.8120   26.5123 C.2     1  UNL1        0.2296
      2 O           7.2328   -5.7001   25.3756 O.2     1  UNL1       -0.2745
      3 N           6.9249   -3.3218   26.3750 N.am    1  UNL1       -0.2543
      4 C           6.5137   -2.4337   27.5118 C.ar    1  UNL1        0.0551
      5 C           7.5439   -1.9224   28.4747 C.ar    1  UNL1        0.0263
      6 C           7.1326   -1.0343   29.6114 C.ar    1  UNL1        0.0590
      7 CL          8.1629   -0.5230   30.5744 Cl      1  UNL1       -0.0822
      8 C           5.6912   -0.6575   29.7852 C.ar    1  UNL1        0.0146
      9 C           4.6610   -1.1687   28.8223 C.ar    1  UNL1        0.0392
     10 C           5.0722   -2.0568   27.6856 C.ar    1  UNL1        0.0181
     11 C           3.2195   -0.7919   28.9961 C.ar    1  UNL1        0.1806
     12 N           2.5278   -0.5300   30.3010 N.ar    1  UNL1       -0.1083
     13 N           1.0975   -0.1870   30.0069 N.ar    1  UNL1       -0.0229
     14 N           0.9052   -0.2368   28.5201 N.ar    1  UNL1       -0.0464
     15 N           2.2167   -0.6107   27.8954 N.ar    1  UNL1       -0.2388
     16 H           2.3890   -0.7182   26.9321 H       1  UNL1        0.1923
     17 C           6.3072   -5.4140   27.7863 C.3     1  UNL1        0.0856
     18 C           7.2570   -5.7299   28.9035 C.3     1  UNL1        0.0096
     19 C           7.7455   -4.5264   31.1535 C.3     1  UNL1        0.0000
     20 C           6.8763   -5.4218   30.3213 C.3     1  UNL1        0.0005
     21 C           7.4392   -2.7198   25.1011 C.3     1  UNL1        0.1247
     22 C           6.6518   -2.8630   23.8324 C.ar    1  UNL1       -0.0018
     23 C           7.3578   -3.1443   22.5392 C.ar    1  UNL1        0.0005
     24 C           6.5704   -3.2875   21.2706 C.ar    1  UNL1        0.0369
     25 C           5.0770   -3.1493   21.2952 C.ar    1  UNL1        0.1468
     26 C           4.3710   -2.8680   22.5883 C.ar    1  UNL1        0.0369
     27 C           5.1584   -2.7248   23.8570 C.ar    1  UNL1        0.0005
     28 O           4.2895   -3.2925   20.0264 O.3     1  UNL1       -0.4045
     29 C           4.4805   -4.5000   19.1574 C.3     1  UNL1        0.5753
     30 F           4.6715   -5.7077   18.2884 F       1  UNL1       -0.1328
     31 F           3.6665   -5.3182   20.1154 F       1  UNL1       -0.1328
     32 F           5.2946   -3.6818   18.1994 F       1  UNL1       -0.1328
@<TRIPOS>BOND
     1    19    20    1
     2    20    18    1
     3    18    17    1
     4    17     1    1
     5     1     2    2
     6     1     3   am
     7     3    21    1
     8    21    22    1
     9    22    23   ar
    10    23    24   ar
    11    24    25   ar
    12    25    28    1
    13    28    29    1
    14    29    30    1
    15    29    31    1
    16    29    32    1
    17    25    26   ar
    18    26    27   ar
    19     3     4    1
    20     4     5   ar
    21     5     6   ar
    22     6     7    1
    23     6     8   ar
    24     8     9   ar
    25     9    11    1
    26    11    12   ar
    27    12    13   ar
    28    13    14   ar
    29    14    15   ar
    30     9    10   ar
    31    27    22   ar
    32    10     4   ar
    33    15    11   ar
    34    15    16    1
@<TRIPOS>MOLECULE
*****
 32 34 0 0 0
SMALL
GASTEIGER

@<TRIPOS>ATOM
      1 C          -3.8093    3.5101   22.1380 C.2     1  UNL1        0.2296
      2 O          -4.5886    3.7910   23.3884 O.2     1  UNL1       -0.2745
      3 N          -2.3328    3.7719   22.0997 N.am    1  UNL1       -0.2543
      4 C          -1.5534    3.4910   20.8492 C.ar    1  UNL1        0.0551
      5 C          -1.6790    4.4044   19.6661 C.ar    1  UNL1        0.0263
      6 C          -0.8996    4.1234   18.4157 C.ar    1  UNL1        0.0590
      7 CL         -1.0251    5.0369   17.2325 Cl      1  UNL1       -0.0822
      8 C           0.0052    2.9290   18.3484 C.ar    1  UNL1        0.0146
      9 C           0.1308    2.0155   19.5315 C.ar    1  UNL1        0.0392
     10 C          -0.6486    2.2965   20.7819 C.ar    1  UNL1        0.0181
     11 C           1.0356    0.8211   19.4641 C.ar    1  UNL1        0.1806
     12 N           2.3436    0.7458   18.7337 N.ar    1  UNL1       -0.1083
     13 N           2.9077   -0.6296   18.9335 N.ar    1  UNL1       -0.0229
     14 N           1.9484   -1.4044   19.7876 N.ar    1  UNL1       -0.0464
     15 N           0.7914   -0.5079   20.1155 N.ar    1  UNL1       -0.2388
     16 H           0.0091   -0.7493   20.6622 H       1  UNL1        0.1923
     17 C          -4.5064    2.9673   20.9257 C.3     1  UNL1        0.0856
     18 C          -5.3344    3.8765   20.0668 C.3     1  UNL1        0.0096
     19 C          -4.6309    3.7716   17.5680 C.3     1  UNL1        0.0000
     20 C          -5.6362    3.4979   18.6471 C.3     1  UNL1        0.0005
     21 C          -1.6357    4.3147   23.3119 C.3     1  UNL1        0.1247
     22 C          -1.2368    3.3908   24.4243 C.ar    1  UNL1       -0.0018
     23 C          -1.9524    3.4499   25.7413 C.ar    1  UNL1        0.0005
     24 C          -1.5535    2.5260   26.8536 C.ar    1  UNL1        0.0369
     25 C          -0.4391    1.5430   26.6490 C.ar    1  UNL1        0.1468
     26 C           0.2764    1.4839   25.3320 C.ar    1  UNL1        0.0369
     27 C          -0.1224    2.4078   24.2197 C.ar    1  UNL1        0.0005
     28 O          -0.0402    0.6191   27.7614 O.3     1  UNL1       -0.4045
     29 C          -0.9642    0.4007   28.9226 C.3     1  UNL1        0.5753
     30 F          -1.8883    0.1822   30.0839 F       1  UNL1       -0.1328
     31 F          -1.6045   -0.7457   28.1975 F       1  UNL1       -0.1328
     32 F          -0.3239    1.5470   29.6477 F       1  UNL1       -0.1328
@<TRIPOS>BOND
     1    19    20    1
     2    20    18    1
     3    18    17    1
     4    17     1    1
     5     1     2    2
     6     1     3   am
     7     3    21    1
     8    21    22    1
     9    22    23   ar
    10    23    24   ar
    11    24    25   ar
    12    25    28    1
    13    28    29    1
    14    29    30    1
    15    29    31    1
    16    29    32    1
    17    25    26   ar
    18    26    27   ar
    19     3     4    1
    20     4     5   ar
    21     5     6   ar
    22     6     7    1
    23     6     8   ar
    24     8     9   ar
    25     9    11    1
    26    11    12   ar
    27    12    13   ar
    28    13    14   ar
    29    14    15   ar
    30     9    10   ar
    31    27    22   ar
    32    10     4   ar
    33    15    11   ar
    34    15    16    1
@<TRIPOS>MOLECULE
*****
 32 34 0 0 0
SMALL
GASTEIGER

@<TRIPOS>ATOM
      1 C           3.2770    0.7488   18.9655 C.2     1  UNL1        0.2296
      2 O           2.5965    1.9564   18.3923 O.2     1  UNL1       -0.2745
      3 N           2.4843   -0.2617   19.7404 N.am    1  UNL1       -0.2543
      4 C           3.1648   -1.4694   20.3136 C.ar    1  UNL1        0.0551
      5 C           3.3127   -2.7109   19.4849 C.ar    1  UNL1        0.0263
      6 C           3.9933   -3.9185   20.0581 C.ar    1  UNL1        0.0590
      7 CL          4.1412   -5.1601   19.2295 Cl      1  UNL1       -0.0822
      8 C           4.5259   -3.8845   21.4600 C.ar    1  UNL1        0.0146
      9 C           4.3780   -2.6430   22.2886 C.ar    1  UNL1        0.0392
     10 C           3.6975   -1.4354   21.7154 C.ar    1  UNL1        0.0181
     11 C           4.9106   -2.6090   23.6905 C.ar    1  UNL1        0.1806
     12 N           4.6148   -1.5599   24.7209 N.ar    1  UNL1       -0.1083
     13 N           5.3540   -1.9207   25.9753 N.ar    1  UNL1       -0.0229
     14 N           6.1066   -3.1929   25.7201 N.ar    1  UNL1       -0.0464
     15 N           5.8326   -3.6183   24.3080 N.ar    1  UNL1       -0.2388
     16 H           6.1944   -4.4193   23.8644 H       1  UNL1        0.1923
     17 C           4.7503    0.5516   18.7637 C.3     1  UNL1        0.0856
     18 C           5.2469   -0.2468   17.5950 C.3     1  UNL1        0.0096
     19 C           6.8191   -1.6405   19.1232 C.3     1  UNL1        0.0000
     20 C           6.4246   -1.1614   17.7577 C.3     1  UNL1        0.0005
     21 C           1.0111   -0.0646   19.9422 C.3     1  UNL1        0.1247
     22 C           0.5187    0.9173   20.9638 C.ar    1  UNL1       -0.0018
     23 C           0.9806    0.8137   22.3872 C.ar    1  UNL1        0.0005
     24 C           0.4882    1.7955   23.4087 C.ar    1  UNL1        0.0369
     25 C          -0.4659    2.8810   23.0069 C.ar    1  UNL1        0.1468
     26 C          -0.9278    2.9845   21.5836 C.ar    1  UNL1        0.0369
     27 C          -0.4354    2.0027   20.5620 C.ar    1  UNL1        0.0005
     28 O          -0.9583    3.8628   24.0285 O.3     1  UNL1       -0.4045
     29 C          -1.5137    3.3729   25.3329 C.3     1  UNL1        0.5753
     30 F          -2.0693    2.8830   26.6373 F       1  UNL1       -0.1328
     31 F          -2.7936    2.9973   24.6468 F       1  UNL1       -0.1328
     32 F          -0.2339    3.7485   26.0190 F       1  UNL1       -0.1328
@<TRIPOS>BOND
     1    19    20    1
     2    20    18    1
     3    18    17    1
     4    17     1    1
     5     1     2    2
     6     1     3   am
     7     3    21    1
     8    21    22    1
     9    22    23   ar
    10    23    24   ar
    11    24    25   ar
    12    25    28    1
    13    28    29    1
    14    29    30    1
    15    29    31    1
    16    29    32    1
    17    25    26   ar
    18    26    27   ar
    19     3     4    1
    20     4     5   ar
    21     5     6   ar
    22     6     7    1
    23     6     8   ar
    24     8     9   ar
    25     9    11    1
    26    11    12   ar
    27    12    13   ar
    28    13    14   ar
    29    14    15   ar
    30     9    10   ar
    31    27    22   ar
    32    10     4   ar
    33    15    11   ar
    34    15    16    1
@<TRIPOS>MOLECULE
*****
 32 34 0 0 0
SMALL
GASTEIGER

@<TRIPOS>ATOM
      1 C           8.1851   -0.4832   20.1521 C.2     1  UNL1        0.2296
      2 O           9.5252    0.0198   20.6005 O.2     1  UNL1       -0.2745
      3 N           7.3172   -1.2543   21.1020 N.am    1  UNL1       -0.2543
      4 C           5.9770   -1.7572   20.6535 C.ar    1  UNL1        0.0551
      5 C           5.8733   -3.0578   19.9135 C.ar    1  UNL1        0.0263
      6 C           4.5332   -3.5608   19.4652 C.ar    1  UNL1        0.0590
      7 CL          4.4294   -4.8614   18.7251 Cl      1  UNL1       -0.0822
      8 C           3.2968   -2.7631   19.7568 C.ar    1  UNL1        0.0146
      9 C           3.4005   -1.4625   20.4968 C.ar    1  UNL1        0.0392
     10 C           4.7406   -0.9596   20.9451 C.ar    1  UNL1        0.0181
     11 C           2.1641   -0.6648   20.7884 C.ar    1  UNL1        0.1806
     12 N           2.0167    0.3721   21.8622 N.ar    1  UNL1       -0.1083
     13 N           0.6195    0.9138   21.7949 N.ar    1  UNL1       -0.0229
     14 N          -0.0966    0.2117   20.6794 N.ar    1  UNL1       -0.0464
     15 N           0.8581   -0.7639   20.0574 N.ar    1  UNL1       -0.2388
     16 H           0.6619   -1.3640   19.3019 H       1  UNL1        0.1923
     17 C           7.7128   -0.2151   18.7538 C.3     1  UNL1        0.0856
     18 C           6.9403    1.0342   18.4497 C.3     1  UNL1        0.0096
     19 C           5.0307   -0.2188   17.2115 C.3     1  UNL1        0.0000
     20 C           5.5021    0.9441   18.0333 C.3     1  UNL1        0.0005
     21 C           7.7894   -1.5224   22.5002 C.3     1  UNL1        0.1247
     22 C           7.7905   -2.9235   23.0358 C.ar    1  UNL1       -0.0018
     23 C           6.8988   -3.2876   24.1857 C.ar    1  UNL1        0.0005
     24 C           6.8999   -4.6887   24.7212 C.ar    1  UNL1        0.0369
     25 C           7.7927   -5.7257   24.1069 C.ar    1  UNL1        0.1468
     26 C           8.6844   -5.3617   22.9570 C.ar    1  UNL1        0.0369
     27 C           8.6833   -3.9606   22.4214 C.ar    1  UNL1        0.0005
     28 O           7.7937   -7.1269   24.6425 O.3     1  UNL1       -0.4045
     29 C           7.9617   -7.3674   26.1135 C.3     1  UNL1        0.5753
     30 F           8.1298   -7.6079   27.5846 F       1  UNL1       -0.1328
     31 F           9.2450   -6.5910   26.0939 F       1  UNL1       -0.1328
     32 F           6.6785   -8.1438   26.1331 F       1  UNL1       -0.1328
@<TRIPOS>BOND
     1    19    20    1
     2    20    18    1
     3    18    17    1
     4    17     1    1
     5     1     2    2
     6     1     3   am
     7     3    21    1
     8    21    22    1
     9    22    23   ar
    10    23    24   ar
    11    24    25   ar
    12    25    28    1
    13    28    29    1
    14    29    30    1
    15    29    31    1
    16    29    32    1
    17    25    26   ar
    18    26    27   ar
    19     3     4    1
    20     4     5   ar
    21     5     6   ar
    22     6     7    1
    23     6     8   ar
    24     8     9   ar
    25     9    11    1
    26    11    12   ar
    27    12    13   ar
    28    13    14   ar
    29    14    15   ar
    30     9    10   ar
    31    27    22   ar
    32    10     4   ar
    33    15    11   ar
    34    15    16    1
