@<TRIPOS>MOLECULE
*****
 35 38 0 0 0
SMALL
GASTEIGER

@<TRIPOS>ATOM
      1 C           7.8329   -8.0303   26.8636 C.ar    1  UNL1        0.0908
      2 C           8.5781   -7.1522   27.8247 C.ar    1  UNL1        0.1363
      3 N           9.3066   -6.1091   27.0302 N.ar    1  UNL1       -0.1660
      4 N           9.0117   -6.3425   25.5781 N.ar    1  UNL1       -0.2436
      5 C           8.1009   -7.5299   25.4751 C.ar    1  UNL1        0.1117
      6 O           9.0795  -10.5168   27.9877 O.2     1  UNL1       -0.2680
      7 C           7.5943  -10.4461   27.7892 C.2     1  UNL1        0.2706
      8 N           6.9711   -9.2029   27.2271 N.am    1  UNL1       -0.2766
      9 H           5.9963   -9.1566   27.0968 H       1  UNL1        0.1553
     10 C           6.7326  -11.6188   28.1527 C.ar    1  UNL1        0.1764
     11 C           5.2503  -11.7211   27.9468 C.ar    1  UNL1        0.0688
     12 C           4.8033  -13.0605   28.4528 C.ar    1  UNL1        0.1961
     13 O           6.0094  -13.7861   28.9715 O.2     1  UNL1       -0.3517
     14 N           7.2017  -12.8951   28.7861 N.ar    1  UNL1       -0.0722
     15 C           3.3972  -13.5827   28.4420 C.ar    1  UNL1        0.1375
     16 C           2.2418  -12.6262   28.4543 C.ar    1  UNL1        0.1211
     17 N           0.8357  -13.1484   28.4435 N.ar    1  UNL1       -0.2390
     18 C           0.5850  -14.6271   28.4204 C.ar    1  UNL1        0.1195
     19 C           1.7403  -15.5836   28.4082 C.ar    1  UNL1        0.1196
     20 N           3.1465  -15.0614   28.4190 N.ar    1  UNL1       -0.2375
     21 C           9.5355   -5.5310   24.4305 C.3     1  UNL1        0.1538
     22 C           8.5865   -4.9720   23.4122 C.ar    1  UNL1        0.0060
     23 C           8.7442   -5.3295   21.9640 C.ar    1  UNL1       -0.0024
     24 C           7.7952   -4.7704   20.9458 C.ar    1  UNL1        0.0036
     25 C           6.6884   -3.8539   21.3758 C.ar    1  UNL1        0.0714
     26 C           6.5307   -3.4963   22.8240 C.ar    1  UNL1        0.0074
     27 C           7.4797   -4.0554   23.8422 C.ar    1  UNL1        0.0693
     28 C           5.7394   -3.2948   20.3576 C.3     1  UNL1        0.4186
     29 F           4.7903   -2.7357   19.3394 F       1  UNL1       -0.1659
     30 F           4.5928   -3.5353   21.2943 F       1  UNL1       -0.1659
     31 F           6.8859   -3.0543   19.4208 F       1  UNL1       -0.1659
     32 C           7.3220   -3.6979   25.2904 C.3     1  UNL1        0.4183
     33 F           7.1642   -3.3403   26.7386 F       1  UNL1       -0.1659
     34 F           8.3679   -2.6331   25.1415 F       1  UNL1       -0.1659
     35 F           6.2760   -4.7626   25.4393 F       1  UNL1       -0.1659
@<TRIPOS>BOND
     1     6     7    2
     2     7     8   am
     3     8     1    1
     4     1     2   ar
     5     2     3   ar
     6     3     4   ar
     7     4    21    1
     8    21    22    1
     9    22    23   ar
    10    23    24   ar
    11    24    25   ar
    12    25    28    1
    13    28    29    1
    14    28    30    1
    15    28    31    1
    16    25    26   ar
    17    26    27   ar
    18    27    32    1
    19    32    33    1
    20    32    34    1
    21    32    35    1
    22     4     5   ar
    23     7    10    1
    24    10    11   ar
    25    11    12   ar
    26    12    15    1
    27    15    16   ar
    28    16    17   ar
    29    17    18   ar
    30    18    19   ar
    31    19    20   ar
    32    12    13   ar
    33    13    14   ar
    34     5     1   ar
    35    14    10   ar
    36    27    22   ar
    37    20    15   ar
    38     8     9    1
@<TRIPOS>MOLECULE
*****
 35 38 0 0 0
SMALL
GASTEIGER

@<TRIPOS>ATOM
      1 C           6.6809   -4.6807   25.1525 C.ar    1  UNL1        0.0908
      2 C           7.6228   -5.6433   24.4921 C.ar    1  UNL1        0.1363
      3 N           7.6583   -5.3256   23.0266 N.ar    1  UNL1       -0.1660
      4 N           6.7382   -4.1665   22.7812 N.ar    1  UNL1       -0.2436
      5 C           6.1342   -3.7680   24.0951 C.ar    1  UNL1        0.1117
      6 O           8.8122   -4.0391   27.1640 O.2     1  UNL1       -0.2680
      7 C           7.4102   -4.3174   27.6195 C.2     1  UNL1        0.2706
      8 N           6.3447   -4.6382   26.6137 N.am    1  UNL1       -0.2766
      9 H           5.4246   -4.8208   26.9126 H       1  UNL1        0.1553
     10 C           7.0741   -4.2749   29.0807 C.ar    1  UNL1        0.1764
     11 C           6.6116   -3.0694   29.8443 C.ar    1  UNL1        0.0688
     12 C           6.3931   -3.4798   31.2704 C.ar    1  UNL1        0.1961
     13 O           6.7206   -4.9388   31.3883 O.2     1  UNL1       -0.3517
     14 N           7.1415   -5.4302   30.0350 N.ar    1  UNL1       -0.0722
     15 C           5.9286   -2.5877   32.3832 C.ar    1  UNL1        0.1375
     16 C           4.5444   -2.7419   32.9401 C.ar    1  UNL1        0.1211
     17 N           4.0799   -1.8498   34.0529 N.ar    1  UNL1       -0.2390
     18 C           4.9997   -0.8035   34.6089 C.ar    1  UNL1        0.1195
     19 C           6.3839   -0.6493   34.0521 C.ar    1  UNL1        0.1196
     20 N           6.8484   -1.5414   32.9392 N.ar    1  UNL1       -0.2375
     21 C           6.4695   -3.5196   21.4549 C.3     1  UNL1        0.1538
     22 C           5.2451   -2.6735   21.2674 C.ar    1  UNL1        0.0060
     23 C           5.0128   -1.4843   22.1516 C.ar    1  UNL1       -0.0024
     24 C           3.7885   -0.6381   21.9643 C.ar    1  UNL1        0.0036
     25 C           2.7966   -0.9812   20.8927 C.ar    1  UNL1        0.0714
     26 C           3.0289   -2.1704   20.0085 C.ar    1  UNL1        0.0074
     27 C           4.2532   -3.0165   20.1959 C.ar    1  UNL1        0.0693
     28 C           1.5722   -0.1350   20.7053 C.3     1  UNL1        0.4186
     29 F           0.3479    0.7111   20.5179 F       1  UNL1       -0.1659
     30 F           0.8837   -1.2817   20.0264 F       1  UNL1       -0.1659
     31 F           2.2607    1.0117   21.3842 F       1  UNL1       -0.1659
     32 C           4.4855   -4.2058   19.3117 C.3     1  UNL1        0.4183
     33 F           4.7178   -5.3950   18.4275 F       1  UNL1       -0.1659
     34 F           3.6909   -5.0612   20.2535 F       1  UNL1       -0.1659
     35 F           5.2800   -3.3503   18.3699 F       1  UNL1       -0.1659
@<TRIPOS>BOND
     1     6     7    2
     2     7     8   am
     3     8     1    1
     4     1     2   ar
     5     2     3   ar
     6     3     4   ar
     7     4    21    1
     8    21    22    1
     9    22    23   ar
    10    23    24   ar
    11    24    25   ar
    12    25    28    1
    13    28    29    1
    14    28    30    1
    15    28    31    1
    16    25    26   ar
    17    26    27   ar
    18    27    32    1
    19    32    33    1
    20    32    34    1
    21    32    35    1
    22     4     5   ar
    23     7    10    1
    24    10    11   ar
    25    11    12   ar
    26    12    15    1
    27    15    16   ar
    28    16    17   ar
    29    17    18   ar
    30    18    19   ar
    31    19    20   ar
    32    12    13   ar
    33    13    14   ar
    34     5     1   ar
    35    14    10   ar
    36    27    22   ar
    37    20    15   ar
    38     8     9    1
@<TRIPOS>MOLECULE
*****
 35 38 0 0 0
SMALL
GASTEIGER

@<TRIPOS>ATOM
      1 C           1.5609    0.9125   25.1446 C.ar    1  UNL1        0.0908
      2 C           0.4657    1.5431   24.3365 C.ar    1  UNL1        0.1363
      3 N           0.9296    1.6265   22.9125 N.ar    1  UNL1       -0.1660
      4 N           2.3114    1.0474   22.8404 N.ar    1  UNL1       -0.2436
      5 C           2.7016    0.6061   24.2199 C.ar    1  UNL1        0.1117
      6 O           2.1025    3.1231   27.0991 O.2     1  UNL1       -0.2680
      7 C           1.7930    1.7419   27.5958 C.2     1  UNL1        0.2706
      8 N           1.5222    0.6366   26.6185 N.am    1  UNL1       -0.2766
      9 H           1.3191   -0.2699   26.9445 H       1  UNL1        0.1553
     10 C           1.7543    1.4661   29.0697 C.ar    1  UNL1        0.1764
     11 C           2.8710    0.8889   29.8882 C.ar    1  UNL1        0.0688
     12 C           2.3991    0.7852   31.3082 C.ar    1  UNL1        0.1961
     13 O           0.9908    1.2983   31.3674 O.2     1  UNL1       -0.3517
     14 N           0.5923    1.7191   29.9839 N.ar    1  UNL1       -0.0722
     15 C           3.1956    0.2604   32.4659 C.ar    1  UNL1        0.1375
     16 C           3.5410    1.1662   33.6106 C.ar    1  UNL1        0.1211
     17 N           4.3375    0.6415   34.7682 N.ar    1  UNL1       -0.2390
     18 C           4.7887   -0.7890   34.7812 C.ar    1  UNL1        0.1195
     19 C           4.4433   -1.6947   33.6366 C.ar    1  UNL1        0.1196
     20 N           3.6467   -1.1700   32.4789 N.ar    1  UNL1       -0.2375
     21 C           3.1550    0.9302   21.6057 C.3     1  UNL1        0.1538
     22 C           3.4614   -0.4216   21.0323 C.ar    1  UNL1        0.0060
     23 C           4.5023   -1.2902   21.6743 C.ar    1  UNL1       -0.0024
     24 C           4.8088   -2.6420   21.1009 C.ar    1  UNL1        0.0036
     25 C           4.0745   -3.1251   19.8856 C.ar    1  UNL1        0.0714
     26 C           3.0336   -2.2566   19.2435 C.ar    1  UNL1        0.0074
     27 C           2.7271   -0.9048   19.8169 C.ar    1  UNL1        0.0693
     28 C           4.3810   -4.4770   19.3122 C.3     1  UNL1        0.4186
     29 F           4.6874   -5.8287   18.7388 F       1  UNL1       -0.1659
     30 F           2.9372   -4.6476   18.9428 F       1  UNL1       -0.1659
     31 F           5.8247   -4.3063   19.6815 F       1  UNL1       -0.1659
     32 C           1.6862   -0.0363   19.1749 C.3     1  UNL1        0.4183
     33 F           0.6453    0.8323   18.5328 F       1  UNL1       -0.1659
     34 F           0.6481   -0.5946   20.1026 F       1  UNL1       -0.1659
     35 F           2.7243    0.5220   18.2471 F       1  UNL1       -0.1659
@<TRIPOS>BOND
     1     6     7    2
     2     7     8   am
     3     8     1    1
     4     1     2   ar
     5     2     3   ar
     6     3     4   ar
     7     4    21    1
     8    21    22    1
     9    22    23   ar
    10    23    24   ar
    11    24    25   ar
    12    25    28    1
    13    28    29    1
    14    28    30    1
    15    28    31    1
    16    25    26   ar
    17    26    27   ar
    18    27    32    1
    19    32    33    1
    20    32    34    1
    21    32    35    1
    22     4     5   ar
    23     7    10    1
    24    10    11   ar
    25    11    12   ar
    26    12    15    1
    27    15    16   ar
    28    16    17   ar
    29    17    18   ar
    30    18    19   ar
    31    19    20   ar
    32    12    13   ar
    33    13    14   ar
    34     5     1   ar
    35    14    10   ar
    36    27    22   ar
    37    20    15   ar
    38     8     9    1
@<TRIPOS>MOLECULE
*****
 35 38 0 0 0
SMALL
GASTEIGER

@<TRIPOS>ATOM
      1 C           1.3225    1.0327   24.8524 C.ar    1  UNL1        0.0908
      2 C           0.3352    1.5196   23.8334 C.ar    1  UNL1        0.1363
      3 N           1.0084    1.5074   22.4930 N.ar    1  UNL1       -0.1660
      4 N           2.4117    1.0130   22.6836 N.ar    1  UNL1       -0.2436
      5 C           2.6058    0.7196   24.1417 C.ar    1  UNL1        0.1117
      6 O           1.1723    3.4663   26.6004 O.2     1  UNL1       -0.2680
      7 C           0.9956    2.1017   27.1977 C.2     1  UNL1        0.2706
      8 N           1.0707    0.8849   26.3237 N.am    1  UNL1       -0.2766
      9 H           0.9547   -0.0107   26.7157 H       1  UNL1        0.1553
     10 C           0.7437    1.9539   28.6690 C.ar    1  UNL1        0.1764
     11 C           1.3809    2.7649   29.7583 C.ar    1  UNL1        0.0688
     12 C           0.8415    2.2816   31.0719 C.ar    1  UNL1        0.1961
     13 O          -0.1289    1.1719   30.7945 O.2     1  UNL1       -0.3517
     14 N          -0.1893    0.9694   29.3095 N.ar    1  UNL1       -0.0722
     15 C           1.2082    2.8144   32.4252 C.ar    1  UNL1        0.1375
     16 C           0.6949    4.1522   32.8689 C.ar    1  UNL1        0.1211
     17 N           1.0616    4.6850   34.2223 N.ar    1  UNL1       -0.2390
     18 C           1.9416    3.8800   35.1320 C.ar    1  UNL1        0.1195
     19 C           2.4549    2.5423   34.6884 C.ar    1  UNL1        0.1196
     20 N           2.0882    2.0094   33.3349 N.ar    1  UNL1       -0.2375
     21 C           3.4403    0.8420   21.6053 C.3     1  UNL1        0.1538
     22 C           3.7101   -0.5190   21.0352 C.ar    1  UNL1        0.0060
     23 C           4.8476   -1.3416   21.5639 C.ar    1  UNL1       -0.0024
     24 C           5.1174   -2.7026   20.9938 C.ar    1  UNL1        0.0036
     25 C           4.2498   -3.2409   19.8951 C.ar    1  UNL1        0.0714
     26 C           3.1123   -2.4183   19.3664 C.ar    1  UNL1        0.0074
     27 C           2.8425   -1.0574   19.9364 C.ar    1  UNL1        0.0693
     28 C           4.5196   -4.6019   19.3249 C.3     1  UNL1        0.4186
     29 F           4.7893   -5.9628   18.7549 F       1  UNL1       -0.1659
     30 F           3.1112   -4.6666   18.8129 F       1  UNL1       -0.1659
     31 F           5.9279   -4.5373   19.8370 F       1  UNL1       -0.1659
     32 C           1.7050   -0.2348   19.4077 C.3     1  UNL1        0.4183
     33 F           0.5675    0.5878   18.8790 F       1  UNL1       -0.1659
     34 F           0.7695   -0.9140   20.3636 F       1  UNL1       -0.1659
     35 F           2.6404    0.4443   18.4518 F       1  UNL1       -0.1659
@<TRIPOS>BOND
     1     6     7    2
     2     7     8   am
     3     8     1    1
     4     1     2   ar
     5     2     3   ar
     6     3     4   ar
     7     4    21    1
     8    21    22    1
     9    22    23   ar
    10    23    24   ar
    11    24    25   ar
    12    25    28    1
    13    28    29    1
    14    28    30    1
    15    28    31    1
    16    25    26   ar
    17    26    27   ar
    18    27    32    1
    19    32    33    1
    20    32    34    1
    21    32    35    1
    22     4     5   ar
    23     7    10    1
    24    10    11   ar
    25    11    12   ar
    26    12    15    1
    27    15    16   ar
    28    16    17   ar
    29    17    18   ar
    30    18    19   ar
    31    19    20   ar
    32    12    13   ar
    33    13    14   ar
    34     5     1   ar
    35    14    10   ar
    36    27    22   ar
    37    20    15   ar
    38     8     9    1
@<TRIPOS>MOLECULE
*****
 35 38 0 0 0
SMALL
GASTEIGER

@<TRIPOS>ATOM
      1 C           3.8750    0.8809   26.0769 C.ar    1  UNL1        0.0908
      2 C           4.9900    1.4259   25.2343 C.ar    1  UNL1        0.1363
      3 N           4.6268    1.2178   23.7939 N.ar    1  UNL1       -0.1660
      4 N           3.2874    0.5442   23.7463 N.ar    1  UNL1       -0.2436
      5 C           2.8228    0.3359   25.1572 C.ar    1  UNL1        0.1117
      6 O           3.4470   -1.6901   27.5625 O.2     1  UNL1       -0.2680
      7 C           3.6077   -0.4046   28.3188 C.2     1  UNL1        0.2706
      8 N           3.8217    0.8808   27.5759 N.am    1  UNL1       -0.2766
      9 H           3.9272    1.7245   28.0723 H       1  UNL1        0.1553
     10 C           3.5544   -0.4048   29.8178 C.ar    1  UNL1        0.1764
     11 C           4.7087   -0.1489   30.7411 C.ar    1  UNL1        0.0688
     12 C           4.2052   -0.2468   32.1507 C.ar    1  UNL1        0.1961
     13 O           2.7398   -0.5632   32.0986 O.2     1  UNL1       -0.3517
     14 N           2.3377   -0.6609   30.6568 N.ar    1  UNL1       -0.0722
     15 C           5.0234   -0.0610   33.3940 C.ar    1  UNL1        0.1375
     16 C           6.3256    0.6809   33.3310 C.ar    1  UNL1        0.1211
     17 N           7.1438    0.8668   34.5743 N.ar    1  UNL1       -0.2390
     18 C           6.6599    0.3107   35.8807 C.ar    1  UNL1        0.1195
     19 C           5.3578   -0.4311   35.9437 C.ar    1  UNL1        0.1196
     20 N           4.5395   -0.6170   34.7004 N.ar    1  UNL1       -0.2375
     21 C           2.5432    0.1483   22.5055 C.3     1  UNL1        0.1538
     22 C           3.0088   -1.0240   21.6936 C.ar    1  UNL1        0.0060
     23 C           3.9404   -2.0324   22.2981 C.ar    1  UNL1       -0.0024
     24 C           4.4060   -3.2046   21.4862 C.ar    1  UNL1        0.0036
     25 C           3.9400   -3.3684   20.0699 C.ar    1  UNL1        0.0714
     26 C           3.0084   -2.3601   19.4655 C.ar    1  UNL1        0.0074
     27 C           2.5428   -1.1879   20.2773 C.ar    1  UNL1        0.0693
     28 C           4.4055   -4.5407   19.2580 C.3     1  UNL1        0.4186
     29 F           4.8710   -5.7129   18.4461 F       1  UNL1       -0.1659
     30 F           2.9801   -4.9450   19.0246 F       1  UNL1       -0.1659
     31 F           5.8310   -4.1363   19.4915 F       1  UNL1       -0.1659
     32 C           1.6112   -0.1795   19.6729 C.3     1  UNL1        0.4183
     33 F           0.6796    0.8289   19.0684 F       1  UNL1       -0.1659
     34 F           2.7824    0.5492   19.0835 F       1  UNL1       -0.1659
     35 F           0.4400   -0.9082   20.2622 F       1  UNL1       -0.1659
@<TRIPOS>BOND
     1     6     7    2
     2     7     8   am
     3     8     1    1
     4     1     2   ar
     5     2     3   ar
     6     3     4   ar
     7     4    21    1
     8    21    22    1
     9    22    23   ar
    10    23    24   ar
    11    24    25   ar
    12    25    28    1
    13    28    29    1
    14    28    30    1
    15    28    31    1
    16    25    26   ar
    17    26    27   ar
    18    27    32    1
    19    32    33    1
    20    32    34    1
    21    32    35    1
    22     4     5   ar
    23     7    10    1
    24    10    11   ar
    25    11    12   ar
    26    12    15    1
    27    15    16   ar
    28    16    17   ar
    29    17    18   ar
    30    18    19   ar
    31    19    20   ar
    32    12    13   ar
    33    13    14   ar
    34     5     1   ar
    35    14    10   ar
    36    27    22   ar
    37    20    15   ar
    38     8     9    1
@<TRIPOS>MOLECULE
*****
 35 38 0 0 0
SMALL
GASTEIGER

@<TRIPOS>ATOM
      1 C           0.4041    1.2906   20.1754 C.ar    1  UNL1        0.0908
      2 C           1.5596    1.9263   19.4607 C.ar    1  UNL1        0.1363
      3 N           2.5891    0.8650   19.2084 N.ar    1  UNL1       -0.1660
      4 N           2.0699   -0.4267   19.7670 N.ar    1  UNL1       -0.2436
      5 C           0.7195   -0.1636   20.3646 C.ar    1  UNL1        0.1117
      6 O           0.4403    3.0091   22.6342 O.2     1  UNL1       -0.2680
      7 C          -0.8291    2.8461   21.8517 C.2     1  UNL1        0.2706
      8 N          -0.8472    1.9868   20.6223 N.am    1  UNL1       -0.2766
      9 H          -1.6802    1.8799   20.1087 H       1  UNL1        0.1553
     10 C          -2.0803    3.5423   22.2986 C.ar    1  UNL1        0.1764
     11 C          -2.4853    3.8017   23.7195 C.ar    1  UNL1        0.0688
     12 C          -3.8013    4.5212   23.7023 C.ar    1  UNL1        0.1961
     13 O          -4.2097    4.7064   22.2709 O.2     1  UNL1       -0.3517
     14 N          -3.1460    4.1015   21.4034 N.ar    1  UNL1       -0.0722
     15 C          -4.5735    4.9756   24.9053 C.ar    1  UNL1        0.1375
     16 C          -4.1089    4.5989   26.2809 C.ar    1  UNL1        0.1211
     17 N          -4.8810    5.0533   27.4840 N.ar    1  UNL1       -0.2390
     18 C          -6.1177    5.8844   27.3114 C.ar    1  UNL1        0.1195
     19 C          -6.5823    6.2611   25.9359 C.ar    1  UNL1        0.1196
     20 N          -5.8102    5.8067   24.7328 N.ar    1  UNL1       -0.2375
     21 C           2.7769   -1.7491   19.7338 C.3     1  UNL1        0.1538
     22 C           3.5814   -2.1994   20.9171 C.ar    1  UNL1        0.0060
     23 C           3.5206   -1.4286   22.2025 C.ar    1  UNL1       -0.0024
     24 C           4.3250   -1.8788   23.3858 C.ar    1  UNL1        0.0036
     25 C           5.1902   -3.0998   23.2837 C.ar    1  UNL1        0.0714
     26 C           5.2510   -3.8706   21.9983 C.ar    1  UNL1        0.0074
     27 C           4.4466   -3.4204   20.8150 C.ar    1  UNL1        0.0693
     28 C           5.9947   -3.5501   24.4670 C.3     1  UNL1        0.4186
     29 F           6.7992   -4.0004   25.6502 F       1  UNL1       -0.1659
     30 F           6.6035   -4.6417   23.6376 F       1  UNL1       -0.1659
     31 F           5.3859   -2.4586   25.2963 F       1  UNL1       -0.1659
     32 C           4.5074   -4.1912   19.5296 C.3     1  UNL1        0.4183
     33 F           4.5682   -4.9620   18.2443 F       1  UNL1       -0.1659
     34 F           5.6405   -3.3255   19.0642 F       1  UNL1       -0.1659
     35 F           3.3743   -5.0568   19.9951 F       1  UNL1       -0.1659
@<TRIPOS>BOND
     1     6     7    2
     2     7     8   am
     3     8     1    1
     4     1     2   ar
     5     2     3   ar
     6     3     4   ar
     7     4    21    1
     8    21    22    1
     9    22    23   ar
    10    23    24   ar
    11    24    25   ar
    12    25    28    1
    13    28    29    1
    14    28    30    1
    15    28    31    1
    16    25    26   ar
    17    26    27   ar
    18    27    32    1
    19    32    33    1
    20    32    34    1
    21    32    35    1
    22     4     5   ar
    23     7    10    1
    24    10    11   ar
    25    11    12   ar
    26    12    15    1
    27    15    16   ar
    28    16    17   ar
    29    17    18   ar
    30    18    19   ar
    31    19    20   ar
    32    12    13   ar
    33    13    14   ar
    34     5     1   ar
    35    14    10   ar
    36    27    22   ar
    37    20    15   ar
    38     8     9    1
@<TRIPOS>MOLECULE
*****
 35 38 0 0 0
SMALL
GASTEIGER

@<TRIPOS>ATOM
      1 C           2.5553    1.9357   24.2061 C.ar    1  UNL1        0.0908
      2 C           1.8327    3.0093   23.4475 C.ar    1  UNL1        0.1363
      3 N           2.2769    2.9446   22.0163 N.ar    1  UNL1       -0.1660
      4 N           3.2741    1.8311   21.8903 N.ar    1  UNL1       -0.2436
      5 C           3.4461    1.2076   23.2436 C.ar    1  UNL1        0.1117
      6 O          -0.1035    1.0983   25.3151 O.2     1  UNL1       -0.2680
      7 C           1.0829    1.2232   26.2246 C.2     1  UNL1        0.2706
      8 N           2.4122    1.6419   25.6701 N.am    1  UNL1       -0.2766
      9 H           3.1908    1.7238   26.2670 H       1  UNL1        0.1553
     10 C           0.9397    0.9293   27.6885 C.ar    1  UNL1        0.1764
     11 C           1.7834    1.5012   28.7892 C.ar    1  UNL1        0.0688
     12 C           1.2929    0.9374   30.0897 C.ar    1  UNL1        0.1961
     13 O           0.1461    0.0172   29.7930 O.2     1  UNL1       -0.3517
     14 N          -0.0722    0.0122   28.3090 N.ar    1  UNL1       -0.0722
     15 C           1.8512    1.2406   31.4485 C.ar    1  UNL1        0.1375
     16 C           1.2533    2.3388   32.2771 C.ar    1  UNL1        0.1211
     17 N           1.8115    2.6420   33.6359 N.ar    1  UNL1       -0.2390
     18 C           2.9678    1.8471   34.1661 C.ar    1  UNL1        0.1195
     19 C           3.5657    0.7489   33.3377 C.ar    1  UNL1        0.1196
     20 N           3.0074    0.4457   31.9788 N.ar    1  UNL1       -0.2375
     21 C           3.9759    1.4143   20.6319 C.3     1  UNL1        0.1538
     22 C           4.0964   -0.0406   20.2869 C.ar    1  UNL1        0.0060
     23 C           5.2846   -0.8267   20.7561 C.ar    1  UNL1       -0.0024
     24 C           5.4051   -2.2815   20.4111 C.ar    1  UNL1        0.0036
     25 C           4.3373   -2.9501   19.5970 C.ar    1  UNL1        0.0714
     26 C           3.1491   -2.1640   19.1279 C.ar    1  UNL1        0.0074
     27 C           3.0286   -0.7092   19.4728 C.ar    1  UNL1        0.0693
     28 C           4.4578   -4.4050   19.2521 C.3     1  UNL1        0.4186
     29 F           4.5782   -5.8598   18.9071 F       1  UNL1       -0.1659
     30 F           3.0271   -4.4166   18.8016 F       1  UNL1       -0.1659
     31 F           5.8884   -4.3934   19.7025 F       1  UNL1       -0.1659
     32 C           1.8404    0.0769   19.0037 C.3     1  UNL1        0.4183
     33 F           0.6522    0.8631   18.5345 F       1  UNL1       -0.1659
     34 F           2.6016    0.4983   17.7818 F       1  UNL1       -0.1659
     35 F           1.0792   -0.3444   20.2256 F       1  UNL1       -0.1659
@<TRIPOS>BOND
     1     6     7    2
     2     7     8   am
     3     8     1    1
     4     1     2   ar
     5     2     3   ar
     6     3     4   ar
     7     4    21    1
     8    21    22    1
     9    22    23   ar
    10    23    24   ar
    11    24    25   ar
    12    25    28    1
    13    28    29    1
    14    28    30    1
    15    28    31    1
    16    25    26   ar
    17    26    27   ar
    18    27    32    1
    19    32    33    1
    20    32    34    1
    21    32    35    1
    22     4     5   ar
    23     7    10    1
    24    10    11   ar
    25    11    12   ar
    26    12    15    1
    27    15    16   ar
    28    16    17   ar
    29    17    18   ar
    30    18    19   ar
    31    19    20   ar
    32    12    13   ar
    33    13    14   ar
    34     5     1   ar
    35    14    10   ar
    36    27    22   ar
    37    20    15   ar
    38     8     9    1
@<TRIPOS>MOLECULE
*****
 35 38 0 0 0
SMALL
GASTEIGER

@<TRIPOS>ATOM
      1 C           2.9410    1.4032   25.7388 C.ar    1  UNL1        0.0908
      2 C           4.1335    2.0772   25.1273 C.ar    1  UNL1        0.1363
      3 N           4.0517    1.9035   23.6396 N.ar    1  UNL1       -0.1660
      4 N           2.8088    1.1222   23.3317 N.ar    1  UNL1       -0.2436
      5 C           2.1223    0.8131   24.6291 C.ar    1  UNL1        0.1117
      6 O           4.5342   -0.3966   27.5339 O.2     1  UNL1       -0.2680
      7 C           3.4196    0.4321   28.1006 C.2     1  UNL1        0.2706
      8 N           2.6231    1.3320   27.2030 N.am    1  UNL1       -0.2766
      9 H           1.8915    1.8759   27.5749 H       1  UNL1        0.1553
     10 C           3.1018    0.3609   29.5648 C.ar    1  UNL1        0.1764
     11 C           3.1743    1.4991   30.5391 C.ar    1  UNL1        0.0688
     12 C           2.7729    0.9806   31.8882 C.ar    1  UNL1        0.1961
     13 O           2.4524   -0.4780   31.7477 O.2     1  UNL1       -0.3517
     14 N           2.6556   -0.8610   30.3118 N.ar    1  UNL1       -0.0722
     15 C           2.7042    1.7804   33.1553 C.ar    1  UNL1        0.1375
     16 C           3.5301    1.3789   34.3414 C.ar    1  UNL1        0.1211
     17 N           3.4614    2.1786   35.6085 N.ar    1  UNL1       -0.2390
     18 C           2.5667    3.3799   35.6896 C.ar    1  UNL1        0.1195
     19 C           1.7409    3.7814   34.5037 C.ar    1  UNL1        0.1196
     20 N           1.8096    2.9817   33.2364 N.ar    1  UNL1       -0.2375
     21 C           2.3354    0.7206   21.9662 C.3     1  UNL1        0.1538
     22 C           2.8397   -0.5457   21.3399 C.ar    1  UNL1        0.0060
     23 C           3.7220   -1.4708   22.1246 C.ar    1  UNL1       -0.0024
     24 C           4.2263   -2.7371   21.4984 C.ar    1  UNL1        0.0036
     25 C           3.8482   -3.0783   20.0875 C.ar    1  UNL1        0.0714
     26 C           2.9659   -2.1532   19.3029 C.ar    1  UNL1        0.0074
     27 C           2.4617   -0.8869   19.9291 C.ar    1  UNL1        0.0693
     28 C           4.3525   -4.3446   19.4612 C.3     1  UNL1        0.4186
     29 F           4.8568   -5.6109   18.8350 F       1  UNL1       -0.1659
     30 F           5.7451   -4.0108   19.9076 F       1  UNL1       -0.1659
     31 F           2.9600   -4.6784   19.0148 F       1  UNL1       -0.1659
     32 C           1.5793    0.0382   19.1444 C.3     1  UNL1        0.4183
     33 F           0.6970    0.9633   18.3597 F       1  UNL1       -0.1659
     34 F           2.7689    0.5082   18.3609 F       1  UNL1       -0.1659
     35 F           0.3897   -0.4318   19.9279 F       1  UNL1       -0.1659
@<TRIPOS>BOND
     1     6     7    2
     2     7     8   am
     3     8     1    1
     4     1     2   ar
     5     2     3   ar
     6     3     4   ar
     7     4    21    1
     8    21    22    1
     9    22    23   ar
    10    23    24   ar
    11    24    25   ar
    12    25    28    1
    13    28    29    1
    14    28    30    1
    15    28    31    1
    16    25    26   ar
    17    26    27   ar
    18    27    32    1
    19    32    33    1
    20    32    34    1
    21    32    35    1
    22     4     5   ar
    23     7    10    1
    24    10    11   ar
    25    11    12   ar
    26    12    15    1
    27    15    16   ar
    28    16    17   ar
    29    17    18   ar
    30    18    19   ar
    31    19    20   ar
    32    12    13   ar
    33    13    14   ar
    34     5     1   ar
    35    14    10   ar
    36    27    22   ar
    37    20    15   ar
    38     8     9    1
@<TRIPOS>MOLECULE
*****
 35 38 0 0 0
SMALL
GASTEIGER

@<TRIPOS>ATOM
      1 C           2.1264    0.1783   28.0931 C.ar    1  UNL1        0.0908
      2 C           1.1925   -0.3182   29.1568 C.ar    1  UNL1        0.1363
      3 N           2.0010   -0.6011   30.3881 N.ar    1  UNL1       -0.1660
      4 N           3.4345   -0.2795   30.0855 N.ar    1  UNL1       -0.2436
      5 C           3.5120    0.2022   28.6671 C.ar    1  UNL1        0.1117
      6 O          -0.0244    2.2248   27.6618 O.2     1  UNL1       -0.2680
      7 C           0.6667    1.6035   26.4843 C.2     1  UNL1        0.2706
      8 N           1.7421    0.5803   26.7000 N.am    1  UNL1       -0.2766
      9 H           2.1957    0.1726   25.9272 H       1  UNL1        0.1553
     10 C           0.2824    2.0056   25.0913 C.ar    1  UNL1        0.1764
     11 C           0.8162    1.4092   23.8226 C.ar    1  UNL1        0.0688
     12 C           0.1605    2.1096   22.6695 C.ar    1  UNL1        0.1961
     13 O          -0.7785    3.1388   23.2255 O.2     1  UNL1       -0.3517
     14 N          -0.7031    3.0745   24.7222 N.ar    1  UNL1       -0.0722
     15 C           0.4015    1.8299   21.2157 C.ar    1  UNL1        0.1375
     16 C           0.5272    0.4146   20.7350 C.ar    1  UNL1        0.1211
     17 N           0.7682    0.1349   19.2811 N.ar    1  UNL1       -0.2390
     18 C           0.8836    1.2705   18.3080 C.ar    1  UNL1        0.1195
     19 C           0.7579    2.6857   18.7886 C.ar    1  UNL1        0.1196
     20 N           0.5169    2.9655   20.2425 N.ar    1  UNL1       -0.2375
     21 C           4.5880   -0.4157   31.0346 C.3     1  UNL1        0.1538
     22 C           5.4034   -1.6748   31.0484 C.ar    1  UNL1        0.0060
     23 C           6.0079   -2.1908   29.7763 C.ar    1  UNL1       -0.0024
     24 C           6.8232   -3.4497   29.7901 C.ar    1  UNL1        0.0036
     25 C           7.0339   -4.1927   31.0759 C.ar    1  UNL1        0.0714
     26 C           6.4294   -3.6767   32.3481 C.ar    1  UNL1        0.0074
     27 C           5.6141   -2.4177   32.3343 C.ar    1  UNL1        0.0693
     28 C           7.8492   -5.4518   31.0897 C.3     1  UNL1        0.4186
     29 F           8.6645   -6.7108   31.1036 F       1  UNL1       -0.1659
     30 F           6.7457   -6.1583   31.8197 F       1  UNL1       -0.1659
     31 F           8.9528   -4.7452   30.3598 F       1  UNL1       -0.1659
     32 C           5.0095   -1.9018   33.6064 C.3     1  UNL1        0.4183
     33 F           4.4050   -1.3858   34.8785 F       1  UNL1       -0.1659
     34 F           3.8330   -2.8128   33.4168 F       1  UNL1       -0.1659
     35 F           6.1860   -0.9907   33.7960 F       1  UNL1       -0.1659
@<TRIPOS>BOND
     1     6     7    2
     2     7     8   am
     3     8     1    1
     4     1     2   ar
     5     2     3   ar
     6     3     4   ar
     7     4    21    1
     8    21    22    1
     9    22    23   ar
    10    23    24   ar
    11    24    25   ar
    12    25    28    1
    13    28    29    1
    14    28    30    1
    15    28    31    1
    16    25    26   ar
    17    26    27   ar
    18    27    32    1
    19    32    33    1
    20    32    34    1
    21    32    35    1
    22     4     5   ar
    23     7    10    1
    24    10    11   ar
    25    11    12   ar
    26    12    15    1
    27    15    16   ar
    28    16    17   ar
    29    17    18   ar
    30    18    19   ar
    31    19    20   ar
    32    12    13   ar
    33    13    14   ar
    34     5     1   ar
    35    14    10   ar
    36    27    22   ar
    37    20    15   ar
    38     8     9    1
