@<TRIPOS>MOLECULE
*****
 24 27 0 0 0
SMALL
GASTEIGER

@<TRIPOS>ATOM
      1 C          -7.9112  -17.3407   23.3227 C.3     1  UNL1        0.2082
      2 S          -8.0962  -18.5462   22.4495 S.3     1  UNL1       -0.0753
      3 C          -6.9117  -19.1733   21.7758 C.ar    1  UNL1        0.0443
      4 C          -7.0966  -20.3788   20.9026 C.ar    1  UNL1        0.0077
      5 C          -5.9121  -21.0057   20.2289 C.ar    1  UNL1        0.0006
      6 C          -4.5427  -20.4272   20.4285 C.ar    1  UNL1        0.0015
      7 C          -4.3577  -19.2217   21.3016 C.ar    1  UNL1        0.0182
      8 C          -5.5422  -18.5947   21.9753 C.ar    1  UNL1        0.0768
      9 N          -5.3572  -17.3891   22.8485 N.ar    1  UNL1       -0.2242
     10 C          -6.5417  -16.7622   23.5222 C.ar    1  UNL1        0.2069
     11 N          -6.0542  -15.5888   24.3194 N.ar    1  UNL1       -0.0545
     12 O          -4.5684  -15.4906   24.1384 O.2     1  UNL1       -0.2950
     13 C          -4.1376  -16.6033   23.2294 C.ar    1  UNL1        0.4472
     14 O          -2.7338  -16.8813   22.7800 O.2     1  UNL1       -0.2203
     15 C          -9.3954  -17.5226   23.4406 C.ar    1  UNL1        0.0189
     16 C          -9.9499  -18.6988   24.1886 C.ar    1  UNL1       -0.0002
     17 C         -11.4342  -18.8805   24.3065 C.ar    1  UNL1        0.0065
     18 C         -12.3640  -17.8862   23.6766 C.ar    1  UNL1        0.0345
     19 BR        -13.8483  -18.0680   23.7945 Br      1  UNL1       -0.0490
     20 C         -11.8095  -16.7101   22.9287 C.ar    1  UNL1        0.0065
     21 C         -10.3253  -16.5283   22.8108 C.ar    1  UNL1       -0.0002
     22 O          -8.2417  -16.1984   24.2369 O.3     1  UNL1       -0.3379
     23 C          -8.4749  -15.3131   26.6683 C.3     1  UNL1        0.0347
     24 C          -8.4966  -16.4525   25.6930 C.3     1  UNL1        0.1440
@<TRIPOS>BOND
     1    23    24    1
     2    24    22    1
     3    22     1    1
     4     1    15    1
     5    15    16   ar
     6    16    17   ar
     7    17    18   ar
     8    18    19    1
     9    18    20   ar
    10    20    21   ar
    11     1     2    1
    12     2     3    1
    13     3     4   ar
    14     4     5   ar
    15     5     6   ar
    16     6     7   ar
    17     7     8   ar
    18     8     9    1
    19     9    10   ar
    20    10    11   ar
    21    11    12   ar
    22    12    13   ar
    23    13    14    2
    24    10     1    1
    25    21    15   ar
    26     8     3   ar
    27    13     9   ar
@<TRIPOS>MOLECULE
*****
 24 27 0 0 0
SMALL
GASTEIGER

@<TRIPOS>ATOM
      1 C          -8.6974  -18.0948   22.4784 C.3     1  UNL1        0.2082
      2 S          -7.2288  -18.2238   22.7552 S.3     1  UNL1       -0.0753
      3 C          -6.3508  -18.9848   21.8065 C.ar    1  UNL1        0.0443
      4 C          -4.8822  -19.1138   22.0833 C.ar    1  UNL1        0.0077
      5 C          -4.0043  -19.8747   21.1345 C.ar    1  UNL1        0.0006
      6 C          -4.5949  -20.5067   19.9091 C.ar    1  UNL1        0.0015
      7 C          -6.0635  -20.3777   19.6323 C.ar    1  UNL1        0.0182
      8 C          -6.9414  -19.6167   20.5810 C.ar    1  UNL1        0.0768
      9 N          -8.4101  -19.4877   20.3042 N.ar    1  UNL1       -0.2242
     10 C          -9.2880  -18.7268   21.2530 C.ar    1  UNL1        0.2069
     11 N         -10.6900  -18.7678   20.7213 N.ar    1  UNL1       -0.0545
     12 O         -10.6785  -19.5541   19.4439 O.2     1  UNL1       -0.2950
     13 C          -9.2694  -19.9990   19.1862 C.ar    1  UNL1        0.4472
     14 O          -8.8017  -20.8125   18.0159 O.2     1  UNL1       -0.2203
     15 C          -8.6058  -17.3252   23.7627 C.ar    1  UNL1        0.0189
     16 C          -9.2666  -17.8525   25.0018 C.ar    1  UNL1       -0.0002
     17 C          -9.1749  -17.0829   26.2861 C.ar    1  UNL1        0.0065
     18 C          -8.4225  -15.7861   26.3313 C.ar    1  UNL1        0.0345
     19 BR         -8.3308  -15.0165   27.6156 Br      1  UNL1       -0.0490
     20 C          -7.7617  -15.2588   25.0922 C.ar    1  UNL1        0.0065
     21 C          -7.8534  -16.0284   23.8079 C.ar    1  UNL1       -0.0002
     22 O         -10.1342  -17.6985   22.6477 O.3     1  UNL1       -0.3379
     23 C         -12.0044  -15.9039   22.4688 C.3     1  UNL1        0.0347
     24 C         -10.5979  -16.3464   22.1931 C.3     1  UNL1        0.1440
@<TRIPOS>BOND
     1    23    24    1
     2    24    22    1
     3    22     1    1
     4     1    15    1
     5    15    16   ar
     6    16    17   ar
     7    17    18   ar
     8    18    19    1
     9    18    20   ar
    10    20    21   ar
    11     1     2    1
    12     2     3    1
    13     3     4   ar
    14     4     5   ar
    15     5     6   ar
    16     6     7   ar
    17     7     8   ar
    18     8     9    1
    19     9    10   ar
    20    10    11   ar
    21    11    12   ar
    22    12    13   ar
    23    13    14    2
    24    10     1    1
    25    21    15   ar
    26     8     3   ar
    27    13     9   ar
@<TRIPOS>MOLECULE
*****
 24 27 0 0 0
SMALL
GASTEIGER

@<TRIPOS>ATOM
      1 C          -8.8174  -17.9239   23.0368 C.3     1  UNL1        0.2082
      2 S          -8.8752  -17.0166   24.2298 S.3     1  UNL1       -0.0753
      3 C          -7.6232  -16.3654   24.7382 C.ar    1  UNL1        0.0443
      4 C          -7.6810  -15.4581   25.9313 C.ar    1  UNL1        0.0077
      5 C          -6.4290  -14.8070   26.4396 C.ar    1  UNL1        0.0006
      6 C          -5.1192  -15.0631   25.7549 C.ar    1  UNL1        0.0015
      7 C          -5.0614  -15.9704   24.5619 C.ar    1  UNL1        0.0182
      8 C          -6.3134  -16.6216   24.0535 C.ar    1  UNL1        0.0768
      9 N          -6.2556  -17.5290   22.8604 N.ar    1  UNL1       -0.2242
     10 C          -7.5076  -18.1801   22.3521 C.ar    1  UNL1        0.2069
     11 N          -7.1436  -19.0202   21.1639 N.ar    1  UNL1       -0.0545
     12 O          -5.6666  -18.8882   20.9380 O.2     1  UNL1       -0.2950
     13 C          -5.1178  -17.9666   21.9865 C.ar    1  UNL1        0.4472
     14 O          -3.6831  -17.5549   22.1350 O.2     1  UNL1       -0.2203
     15 C         -10.2840  -17.9909   23.3442 C.ar    1  UNL1        0.0189
     16 C         -11.2144  -16.9520   22.7918 C.ar    1  UNL1       -0.0002
     17 C         -12.6811  -17.0190   23.0993 C.ar    1  UNL1        0.0065
     18 C         -13.2173  -18.1249   23.9591 C.ar    1  UNL1        0.0345
     19 BR        -14.6840  -18.1920   24.2665 Br      1  UNL1       -0.0490
     20 C         -12.2870  -19.1638   24.5114 C.ar    1  UNL1        0.0065
     21 C         -10.8204  -19.0968   24.2040 C.ar    1  UNL1       -0.0002
     22 O          -9.2690  -18.8545   21.9505 O.3     1  UNL1       -0.3379
     23 C         -10.5391  -19.2255   19.7145 C.3     1  UNL1        0.0347
     24 C          -9.8783  -18.3031   20.6956 C.3     1  UNL1        0.1440
@<TRIPOS>BOND
     1    23    24    1
     2    24    22    1
     3    22     1    1
     4     1    15    1
     5    15    16   ar
     6    16    17   ar
     7    17    18   ar
     8    18    19    1
     9    18    20   ar
    10    20    21   ar
    11     1     2    1
    12     2     3    1
    13     3     4   ar
    14     4     5   ar
    15     5     6   ar
    16     6     7   ar
    17     7     8   ar
    18     8     9    1
    19     9    10   ar
    20    10    11   ar
    21    11    12   ar
    22    12    13   ar
    23    13    14    2
    24    10     1    1
    25    21    15   ar
    26     8     3   ar
    27    13     9   ar
@<TRIPOS>MOLECULE
*****
 24 27 0 0 0
SMALL
GASTEIGER

@<TRIPOS>ATOM
      1 C         -14.8345   -5.4385   18.5601 C.3     1  UNL1        0.2082
      2 S         -13.8055   -6.5297   18.5721 S.3     1  UNL1       -0.0753
      3 C         -12.3523   -6.1887   18.7200 C.ar    1  UNL1        0.0443
      4 C         -11.3233   -7.2800   18.7320 C.ar    1  UNL1        0.0077
      5 C          -9.8701   -6.9389   18.8798 C.ar    1  UNL1        0.0006
      6 C          -9.4459   -5.5065   19.0156 C.ar    1  UNL1        0.0015
      7 C         -10.4749   -4.4152   19.0035 C.ar    1  UNL1        0.0182
      8 C         -11.9281   -4.7563   18.8557 C.ar    1  UNL1        0.0768
      9 N         -12.9572   -3.6650   18.8436 N.ar    1  UNL1       -0.2242
     10 C         -14.4104   -4.0061   18.6958 C.ar    1  UNL1        0.2069
     11 N         -15.1916   -2.7258   18.7181 N.ar    1  UNL1       -0.0545
     12 O         -14.2212   -1.5934   18.8796 O.2     1  UNL1       -0.2950
     13 C         -12.8402   -2.1739   18.9572 C.ar    1  UNL1        0.4472
     14 O         -11.5660   -1.3993   19.1199 O.2     1  UNL1       -0.2203
     15 C         -15.7233   -6.6363   18.4010 C.ar    1  UNL1        0.0189
     16 C         -16.5301   -6.8105   17.1484 C.ar    1  UNL1       -0.0002
     17 C         -17.4189   -8.0084   16.9893 C.ar    1  UNL1        0.0065
     18 C         -17.5008   -9.0320   18.0827 C.ar    1  UNL1        0.0345
     19 BR        -18.3895  -10.2299   17.9235 Br      1  UNL1       -0.0490
     20 C         -16.6939   -8.8578   19.3351 C.ar    1  UNL1        0.0065
     21 C         -15.8052   -7.6599   19.4942 C.ar    1  UNL1       -0.0002
     22 O         -16.1722   -4.7631   18.4928 O.3     1  UNL1       -0.3379
     23 C         -18.5025   -4.4379   19.5946 C.3     1  UNL1        0.0347
     24 C         -17.0252   -4.6641   19.7226 C.3     1  UNL1        0.1440
@<TRIPOS>BOND
     1    23    24    1
     2    24    22    1
     3    22     1    1
     4     1    15    1
     5    15    16   ar
     6    16    17   ar
     7    17    18   ar
     8    18    19    1
     9    18    20   ar
    10    20    21   ar
    11     1     2    1
    12     2     3    1
    13     3     4   ar
    14     4     5   ar
    15     5     6   ar
    16     6     7   ar
    17     7     8   ar
    18     8     9    1
    19     9    10   ar
    20    10    11   ar
    21    11    12   ar
    22    12    13   ar
    23    13    14    2
    24    10     1    1
    25    21    15   ar
    26     8     3   ar
    27    13     9   ar
@<TRIPOS>MOLECULE
*****
 24 27 0 0 0
SMALL
GASTEIGER

@<TRIPOS>ATOM
      1 C          -7.6336  -19.0748   21.4108 C.3     1  UNL1        0.2082
      2 S          -7.5642  -17.9371   22.3858 S.3     1  UNL1       -0.0753
      3 C          -6.2369  -17.4884   22.9215 C.ar    1  UNL1        0.0443
      4 C          -6.1674  -16.3506   23.8965 C.ar    1  UNL1        0.0077
      5 C          -4.8401  -15.9019   24.4321 C.ar    1  UNL1        0.0006
      6 C          -3.5823  -16.5909   23.9927 C.ar    1  UNL1        0.0015
      7 C          -3.6517  -17.7287   23.0177 C.ar    1  UNL1        0.0182
      8 C          -4.9790  -18.1774   22.4821 C.ar    1  UNL1        0.0768
      9 N          -5.0485  -19.3152   21.5070 N.ar    1  UNL1       -0.2242
     10 C          -6.3758  -19.7639   20.9714 C.ar    1  UNL1        0.2069
     11 N          -6.1334  -20.9056   20.0293 N.ar    1  UNL1       -0.0545
     12 O          -4.6563  -21.1625   19.9826 O.2     1  UNL1       -0.2950
     13 C          -3.9858  -20.1795   20.8959 C.ar    1  UNL1        0.4472
     14 O          -2.5115  -20.0787   21.1530 O.2     1  UNL1       -0.2203
     15 C          -9.0914  -18.7406   21.5254 C.ar    1  UNL1        0.0189
     16 C         -10.0651  -19.7817   21.9926 C.ar    1  UNL1       -0.0002
     17 C         -11.5229  -19.4475   22.1072 C.ar    1  UNL1        0.0065
     18 C         -12.0070  -18.0723   21.7547 C.ar    1  UNL1        0.0345
     19 BR        -13.4649  -17.7380   21.8693 Br      1  UNL1       -0.0490
     20 C         -11.0334  -17.0312   21.2875 C.ar    1  UNL1        0.0065
     21 C          -9.5756  -17.3654   21.1729 C.ar    1  UNL1       -0.0002
     22 O          -8.2094  -20.0965   20.4756 O.3     1  UNL1       -0.3379
     23 C          -9.1841  -20.7181   18.1488 C.3     1  UNL1        0.0347
     24 C          -8.5392  -19.7181   19.0621 C.3     1  UNL1        0.1440
@<TRIPOS>BOND
     1    23    24    1
     2    24    22    1
     3    22     1    1
     4     1    15    1
     5    15    16   ar
     6    16    17   ar
     7    17    18   ar
     8    18    19    1
     9    18    20   ar
    10    20    21   ar
    11     1     2    1
    12     2     3    1
    13     3     4   ar
    14     4     5   ar
    15     5     6   ar
    16     6     7   ar
    17     7     8   ar
    18     8     9    1
    19     9    10   ar
    20    10    11   ar
    21    11    12   ar
    22    12    13   ar
    23    13    14    2
    24    10     1    1
    25    21    15   ar
    26     8     3   ar
    27    13     9   ar
@<TRIPOS>MOLECULE
*****
 24 27 0 0 0
SMALL
GASTEIGER

@<TRIPOS>ATOM
      1 C         -14.7351   -7.0181   18.5624 C.3     1  UNL1        0.2082
      2 S         -15.7150   -5.9329   18.8971 S.3     1  UNL1       -0.0753
      3 C         -17.1544   -6.2730   19.1472 C.ar    1  UNL1        0.0443
      4 C         -18.1343   -5.1878   19.4819 C.ar    1  UNL1        0.0077
      5 C         -19.5736   -5.5280   19.7320 C.ar    1  UNL1        0.0006
      6 C         -20.0330   -6.9534   19.6474 C.ar    1  UNL1        0.0015
      7 C         -19.0531   -8.0386   19.3127 C.ar    1  UNL1        0.0182
      8 C         -17.6138   -7.6984   19.0626 C.ar    1  UNL1        0.0768
      9 N         -16.6338   -8.7837   18.7280 N.ar    1  UNL1       -0.2242
     10 C         -15.1945   -8.4435   18.4779 C.ar    1  UNL1        0.2069
     11 N         -14.4639   -9.7170   18.1704 N.ar    1  UNL1       -0.0545
     12 O         -15.4517  -10.8442   18.2305 O.2     1  UNL1       -0.2950
     13 C         -16.7928  -10.2673   18.5751 C.ar    1  UNL1        0.4472
     14 O         -18.0689  -11.0388   18.7381 O.2     1  UNL1       -0.2203
     15 C         -13.8257   -5.8258   18.5264 C.ar    1  UNL1        0.0189
     16 C         -12.5858   -5.8025   19.3704 C.ar    1  UNL1       -0.0002
     17 C         -11.6763   -4.6101   19.3344 C.ar    1  UNL1        0.0065
     18 C         -12.0068   -3.4411   18.4545 C.ar    1  UNL1        0.0345
     19 BR        -11.0973   -2.2488   18.4184 Br      1  UNL1       -0.0490
     20 C         -13.2466   -3.4645   17.6105 C.ar    1  UNL1        0.0065
     21 C         -14.1560   -4.6568   17.6465 C.ar    1  UNL1       -0.0002
     22 O         -13.4393   -7.6893   18.2153 O.3     1  UNL1       -0.3379
     23 C         -11.5505   -7.8395   16.4377 C.3     1  UNL1        0.0347
     24 C         -13.0097   -7.7949   16.7820 C.3     1  UNL1        0.1440
@<TRIPOS>BOND
     1    23    24    1
     2    24    22    1
     3    22     1    1
     4     1    15    1
     5    15    16   ar
     6    16    17   ar
     7    17    18   ar
     8    18    19    1
     9    18    20   ar
    10    20    21   ar
    11     1     2    1
    12     2     3    1
    13     3     4   ar
    14     4     5   ar
    15     5     6   ar
    16     6     7   ar
    17     7     8   ar
    18     8     9    1
    19     9    10   ar
    20    10    11   ar
    21    11    12   ar
    22    12    13   ar
    23    13    14    2
    24    10     1    1
    25    21    15   ar
    26     8     3   ar
    27    13     9   ar
@<TRIPOS>MOLECULE
*****
 24 27 0 0 0
SMALL
GASTEIGER

@<TRIPOS>ATOM
      1 C          -6.4327  -18.4320   21.8940 C.3     1  UNL1        0.2082
      2 S          -5.8309  -17.4309   22.8351 S.3     1  UNL1       -0.0753
      3 C          -6.6973  -16.7303   23.8393 C.ar    1  UNL1        0.0443
      4 C          -6.0956  -15.7292   24.7804 C.ar    1  UNL1        0.0077
      5 C          -6.9620  -15.0286   25.7846 C.ar    1  UNL1        0.0006
      6 C          -8.4303  -15.3291   25.8477 C.ar    1  UNL1        0.0015
      7 C          -9.0320  -16.3301   24.9066 C.ar    1  UNL1        0.0182
      8 C          -8.1656  -17.0307   23.9024 C.ar    1  UNL1        0.0768
      9 N          -8.7674  -18.0318   22.9612 N.ar    1  UNL1       -0.2242
     10 C          -7.9009  -18.7324   21.9571 C.ar    1  UNL1        0.2069
     11 N          -8.7698  -19.6636   21.1646 N.ar    1  UNL1       -0.0545
     12 O         -10.1732  -19.5385   21.6791 O.2     1  UNL1       -0.2950
     13 C         -10.1717  -18.5300   22.7894 C.ar    1  UNL1        0.4472
     14 O         -11.3651  -18.0958   23.5878 O.2     1  UNL1       -0.2203
     15 C          -5.0007  -18.4856   21.4506 C.ar    1  UNL1        0.0189
     16 C          -4.6662  -18.4459   19.9889 C.ar    1  UNL1       -0.0002
     17 C          -3.2341  -18.4996   19.5455 C.ar    1  UNL1        0.0065
     18 C          -2.1368  -18.5929   20.5638 C.ar    1  UNL1        0.0345
     19 BR         -0.7048  -18.6466   20.1205 Br      1  UNL1       -0.0490
     20 C          -2.4713  -18.6326   22.0255 C.ar    1  UNL1        0.0065
     21 C          -3.9033  -18.5790   22.4689 C.ar    1  UNL1       -0.0002
     22 O          -6.5371  -19.4517   20.7989 O.3     1  UNL1       -0.3379
     23 C          -5.9674  -21.8210   19.8980 C.3     1  UNL1        0.0347
     24 C          -6.1017  -20.8655   21.0465 C.3     1  UNL1        0.1440
@<TRIPOS>BOND
     1    23    24    1
     2    24    22    1
     3    22     1    1
     4     1    15    1
     5    15    16   ar
     6    16    17   ar
     7    17    18   ar
     8    18    19    1
     9    18    20   ar
    10    20    21   ar
    11     1     2    1
    12     2     3    1
    13     3     4   ar
    14     4     5   ar
    15     5     6   ar
    16     6     7   ar
    17     7     8   ar
    18     8     9    1
    19     9    10   ar
    20    10    11   ar
    21    11    12   ar
    22    12    13   ar
    23    13    14    2
    24    10     1    1
    25    21    15   ar
    26     8     3   ar
    27    13     9   ar
@<TRIPOS>MOLECULE
*****
 24 27 0 0 0
SMALL
GASTEIGER

@<TRIPOS>ATOM
      1 C         -13.1626   -4.9365   17.8324 C.3     1  UNL1        0.2082
      2 S         -14.4478   -4.3180   18.2966 S.3     1  UNL1       -0.0753
      3 C         -14.5483   -2.8301   18.4594 C.ar    1  UNL1        0.0443
      4 C         -15.8335   -2.2116   18.9236 C.ar    1  UNL1        0.0077
      5 C         -15.9339   -0.7238   19.0863 C.ar    1  UNL1        0.0006
      6 C         -14.7492    0.1453   18.7848 C.ar    1  UNL1        0.0015
      7 C         -13.4640   -0.4733   18.3205 C.ar    1  UNL1        0.0182
      8 C         -13.3635   -1.9610   18.1578 C.ar    1  UNL1        0.0768
      9 N         -12.0783   -2.5797   17.6936 N.ar    1  UNL1       -0.2242
     10 C         -11.9778   -4.0674   17.5309 C.ar    1  UNL1        0.2069
     11 N         -10.5905   -4.3896   17.0602 N.ar    1  UNL1       -0.0545
     12 O          -9.8336   -3.1009   16.9319 O.2     1  UNL1       -0.2950
     13 C         -10.7531   -1.9823   17.3234 C.ar    1  UNL1        0.4472
     14 O         -10.4080   -0.5227   17.3416 O.2     1  UNL1       -0.2203
     15 C         -14.0023   -6.1692   17.9920 C.ar    1  UNL1        0.0189
     16 C         -14.1299   -7.1418   16.8571 C.ar    1  UNL1       -0.0002
     17 C         -14.9697   -8.3745   17.0167 C.ar    1  UNL1        0.0065
     18 C         -15.6817   -8.6345   18.3110 C.ar    1  UNL1        0.0345
     19 BR        -16.5214   -9.8672   18.4706 Br      1  UNL1       -0.0490
     20 C         -15.5540   -7.6619   19.4458 C.ar    1  UNL1        0.0065
     21 C         -14.7143   -6.4293   19.2863 C.ar    1  UNL1       -0.0002
     22 O         -12.1690   -5.9832   17.4236 O.3     1  UNL1       -0.3379
     23 C         -10.2921   -7.6592   18.0707 C.3     1  UNL1        0.0347
     24 C         -11.4245   -6.7598   18.4690 C.3     1  UNL1        0.1440
@<TRIPOS>BOND
     1    23    24    1
     2    24    22    1
     3    22     1    1
     4     1    15    1
     5    15    16   ar
     6    16    17   ar
     7    17    18   ar
     8    18    19    1
     9    18    20   ar
    10    20    21   ar
    11     1     2    1
    12     2     3    1
    13     3     4   ar
    14     4     5   ar
    15     5     6   ar
    16     6     7   ar
    17     7     8   ar
    18     8     9    1
    19     9    10   ar
    20    10    11   ar
    21    11    12   ar
    22    12    13   ar
    23    13    14    2
    24    10     1    1
    25    21    15   ar
    26     8     3   ar
    27    13     9   ar
@<TRIPOS>MOLECULE
*****
 24 27 0 0 0
SMALL
GASTEIGER

@<TRIPOS>ATOM
      1 C          -8.0284  -17.2855   22.7042 C.3     1  UNL1        0.2082
      2 S          -9.3277  -16.9857   23.3912 S.3     1  UNL1       -0.0753
      3 C         -10.6202  -17.4473   22.7858 C.ar    1  UNL1        0.0443
      4 C         -11.9194  -17.1475   23.4728 C.ar    1  UNL1        0.0077
      5 C         -13.2119  -17.6091   22.8675 C.ar    1  UNL1        0.0006
      6 C         -13.2050  -18.3705   21.5751 C.ar    1  UNL1        0.0015
      7 C         -11.9058  -18.6703   20.8881 C.ar    1  UNL1        0.0182
      8 C         -10.6134  -18.2087   21.4935 C.ar    1  UNL1        0.0768
      9 N          -9.3140  -18.5085   20.8065 N.ar    1  UNL1       -0.2242
     10 C          -8.0216  -18.0469   21.4118 C.ar    1  UNL1        0.2069
     11 N          -6.9050  -18.4870   20.5121 N.ar    1  UNL1       -0.0545
     12 O          -7.5074  -19.2206   19.3506 O.2     1  UNL1       -0.2950
     13 C          -8.9963  -19.2339   19.5326 C.ar    1  UNL1        0.4472
     14 O          -9.9925  -19.8622   18.6037 O.2     1  UNL1       -0.2203
     15 C          -7.5231  -16.5380   23.9025 C.ar    1  UNL1        0.0189
     16 C          -8.2988  -16.5663   25.1861 C.ar    1  UNL1       -0.0002
     17 C          -7.7934  -15.8188   26.3844 C.ar    1  UNL1        0.0065
     18 C          -6.5124  -15.0431   26.2991 C.ar    1  UNL1        0.0345
     19 BR         -6.0070  -14.2956   27.4974 Br      1  UNL1       -0.0490
     20 C          -5.7368  -15.0148   25.0155 C.ar    1  UNL1        0.0065
     21 C          -6.2421  -15.7623   23.8173 C.ar    1  UNL1       -0.0002
     22 O          -6.5536  -17.3257   22.4333 O.3     1  UNL1       -0.3379
     23 C          -4.2715  -18.5152   22.7898 C.3     1  UNL1        0.0347
     24 C          -5.7695  -18.5686   22.7338 C.3     1  UNL1        0.1440
@<TRIPOS>BOND
     1    23    24    1
     2    24    22    1
     3    22     1    1
     4     1    15    1
     5    15    16   ar
     6    16    17   ar
     7    17    18   ar
     8    18    19    1
     9    18    20   ar
    10    20    21   ar
    11     1     2    1
    12     2     3    1
    13     3     4   ar
    14     4     5   ar
    15     5     6   ar
    16     6     7   ar
    17     7     8   ar
    18     8     9    1
    19     9    10   ar
    20    10    11   ar
    21    11    12   ar
    22    12    13   ar
    23    13    14    2
    24    10     1    1
    25    21    15   ar
    26     8     3   ar
    27    13     9   ar
