@<TRIPOS>MOLECULE
*****
 27 30 0 0 0
SMALL
GASTEIGER

@<TRIPOS>ATOM
      1 C         -10.0410  -18.6437   22.3223 C.3     1  UNL1        0.1123
      2 N          -6.2591  -19.3415   21.7980 N.am    1  UNL1       -0.2414
      3 C          -6.7012  -20.6169   22.4520 C.3     1  UNL1        0.1212
      4 C          -8.1717  -20.5108   22.7280 C.3     1  UNL1        0.1169
      5 N          -8.6385  -19.1697   22.2446 N.am    1  UNL1       -0.2606
      6 C          -7.4564  -18.4471   21.6698 C.2     1  UNL1        0.3111
      7 O          -7.4694  -17.0716   21.0718 O.2     1  UNL1       -0.2520
      8 C          -0.6808  -18.0451   20.0087 C.3     1  UNL1        0.0310
      9 C          -2.0754  -18.3692   20.4559 C.ar    1  UNL1       -0.0218
     10 C          -2.4570  -18.2083   21.8976 C.ar    1  UNL1       -0.0030
     11 C          -3.8515  -18.5324   22.3450 C.ar    1  UNL1        0.0146
     12 C          -4.8645  -19.0174   21.3506 C.ar    1  UNL1        0.0553
     13 C          -4.4828  -19.1783   19.9089 C.ar    1  UNL1        0.0146
     14 C          -3.0883  -18.8542   19.4616 C.ar    1  UNL1       -0.0030
     15 C         -10.3313  -17.3932   23.0983 C.3     1  UNL1        0.0939
     16 N          -9.7499  -17.2089   24.4687 N.3     1  UNL1       -0.2701
     17 C          -9.7609  -18.3458   25.4471 C.3     1  UNL1        0.0897
     18 C          -9.1575  -15.8877   24.8606 C.3     1  UNL1        0.0721
     19 C          -7.6747  -15.7557   25.0450 C.3     1  UNL1        0.0147
     20 C          -6.6385  -15.8695   23.9664 C.3     1  UNL1        0.0013
     21 C          -5.2913  -15.6709   24.5953 C.3     1  UNL1        0.0000
     22 C          -5.4948  -15.4344   26.0625 C.3     1  UNL1        0.0000
     23 C          -6.5310  -15.3206   27.1410 C.3     1  UNL1        0.0000
     24 C          -7.8784  -15.5192   26.5122 C.3     1  UNL1        0.0013
     25 C          -6.9679  -15.4868   26.3404 C.3     1  UNL1        0.0013
     26 C          -6.9109  -15.2310   27.8173 C.3     1  UNL1        0.0000
     27 C          -8.1759  -15.4175   27.2270 C.3     1  UNL1        0.0000
@<TRIPOS>BOND
     1     8     9    1
     2     9    10   ar
     3    10    11   ar
     4    11    12   ar
     5    12     2    1
     6     2     3    1
     7     3     4    1
     8     4     5    1
     9     5     1    1
    10     1    15    1
    11    15    16    1
    12    16    17    1
    13    16    18    1
    14    19    18    1
    15    19    20    1
    16    20    21    1
    17    22    21    1
    18    22    23    1
    19    23    24    1
    20    22    25    1
    21    25    26    1
    22    25    27    1
    23     5     6   am
    24     6     7    2
    25    12    13   ar
    26    13    14   ar
    27    14     9   ar
    28     6     2   am
    29    24    19    1
    30    25    19    1
@<TRIPOS>MOLECULE
*****
 27 30 0 0 0
SMALL
GASTEIGER

@<TRIPOS>ATOM
      1 C         -10.0461  -17.7903   23.8751 C.3     1  UNL1        0.1123
      2 N          -6.7336  -19.0299   22.2764 N.am    1  UNL1       -0.2414
      3 C          -7.4258  -20.3312   22.5549 C.3     1  UNL1        0.1212
      4 C          -8.7509  -20.0252   23.1877 C.3     1  UNL1        0.1169
      5 N          -8.8777  -18.5348   23.3002 N.am    1  UNL1       -0.2606
      6 C          -7.6310  -17.9197   22.7370 C.2     1  UNL1        0.3111
      7 O          -7.3338  -16.4521   22.6498 O.2     1  UNL1       -0.2520
      8 C          -1.3252  -18.3798   19.7612 C.3     1  UNL1        0.0310
      9 C          -2.6773  -18.5423   20.3900 C.ar    1  UNL1       -0.0218
     10 C          -2.8715  -18.2258   21.8433 C.ar    1  UNL1       -0.0030
     11 C          -4.2236  -18.3883   22.4721 C.ar    1  UNL1        0.0146
     12 C          -5.3814  -18.8674   21.6476 C.ar    1  UNL1        0.0553
     13 C          -5.1872  -19.1839   20.1943 C.ar    1  UNL1        0.0146
     14 C          -3.8352  -19.0213   19.5654 C.ar    1  UNL1       -0.0030
     15 C         -11.1694  -18.5432   24.5244 C.3     1  UNL1        0.0939
     16 N         -12.5859  -18.2889   24.1017 N.3     1  UNL1       -0.2701
     17 C         -13.7091  -18.5114   25.0706 C.3     1  UNL1        0.0897
     18 C         -12.8791  -17.8120   22.7100 C.3     1  UNL1        0.0721
     19 C         -12.0376  -18.2854   21.5621 C.3     1  UNL1        0.0147
     20 C         -11.5233  -19.6802   21.3622 C.3     1  UNL1        0.0013
     21 C         -10.7305  -19.7038   20.0891 C.3     1  UNL1        0.0000
     22 C         -10.7549  -18.3237   19.5021 C.3     1  UNL1        0.0000
     23 C         -11.2692  -16.9288   19.7019 C.3     1  UNL1        0.0000
     24 C         -12.0620  -16.9051   20.9752 C.3     1  UNL1        0.0013
     25 C         -11.5627  -17.4470   20.4125 C.3     1  UNL1        0.0013
     26 C         -11.4407  -16.1700   19.6351 C.3     1  UNL1        0.0000
     27 C         -12.1850  -16.1477   20.8305 C.3     1  UNL1        0.0000
@<TRIPOS>BOND
     1     8     9    1
     2     9    10   ar
     3    10    11   ar
     4    11    12   ar
     5    12     2    1
     6     2     3    1
     7     3     4    1
     8     4     5    1
     9     5     1    1
    10     1    15    1
    11    15    16    1
    12    16    17    1
    13    16    18    1
    14    19    18    1
    15    19    20    1
    16    20    21    1
    17    22    21    1
    18    22    23    1
    19    23    24    1
    20    22    25    1
    21    25    26    1
    22    25    27    1
    23     5     6   am
    24     6     7    2
    25    12    13   ar
    26    13    14   ar
    27    14     9   ar
    28     6     2   am
    29    24    19    1
    30    25    19    1
@<TRIPOS>MOLECULE
*****
 27 30 0 0 0
SMALL
GASTEIGER

@<TRIPOS>ATOM
      1 C          -8.7603  -19.3038   22.6195 C.3     1  UNL1        0.1123
      2 N          -5.4611  -19.0062   20.5967 N.am    1  UNL1       -0.2414
      3 C          -6.4198  -19.4358   19.5261 C.3     1  UNL1        0.1212
      4 C          -7.7723  -19.5996   20.1535 C.3     1  UNL1        0.1169
      5 N          -7.6496  -19.2711   21.6119 N.am    1  UNL1       -0.2606
      6 C          -6.2212  -18.9044   21.8859 C.2     1  UNL1        0.3111
      7 O          -5.6527  -18.5058   23.2155 O.2     1  UNL1       -0.2520
      8 C           0.3872  -17.8905   19.8532 C.3     1  UNL1        0.0310
      9 C          -1.0749  -18.1694   20.0391 C.ar    1  UNL1       -0.0218
     10 C          -1.5889  -18.6184   21.3748 C.ar    1  UNL1       -0.0030
     11 C          -3.0509  -18.8974   21.5607 C.ar    1  UNL1        0.0146
     12 C          -3.9990  -18.7272   20.4109 C.ar    1  UNL1        0.0553
     13 C          -3.4850  -18.2782   19.0751 C.ar    1  UNL1        0.0146
     14 C          -2.0230  -17.9992   18.8892 C.ar    1  UNL1       -0.0030
     15 C          -9.0369  -18.0996   23.4702 C.3     1  UNL1        0.0939
     16 N          -8.8718  -16.7229   22.8979 N.3     1  UNL1       -0.2701
     17 C          -9.7382  -16.2758   21.7579 C.3     1  UNL1        0.0897
     18 C          -7.8403  -15.7936   23.4655 C.3     1  UNL1        0.0721
     19 C          -7.7136  -15.6311   24.9513 C.3     1  UNL1        0.0147
     20 C          -8.8402  -15.6649   25.9411 C.3     1  UNL1        0.0013
     21 C          -8.2610  -15.4609   27.3096 C.3     1  UNL1        0.0000
     22 C          -6.7765  -15.3011   27.1657 C.3     1  UNL1        0.0000
     23 C          -5.6499  -15.2673   26.1758 C.3     1  UNL1        0.0000
     24 C          -6.2291  -15.4712   24.8072 C.3     1  UNL1        0.0013
     25 C          -6.4382  -15.4062   25.7081 C.3     1  UNL1        0.0013
     26 C          -4.9543  -15.2206   25.8242 C.3     1  UNL1        0.0000
     27 C          -5.4981  -15.4121   24.5393 C.3     1  UNL1        0.0000
@<TRIPOS>BOND
     1     8     9    1
     2     9    10   ar
     3    10    11   ar
     4    11    12   ar
     5    12     2    1
     6     2     3    1
     7     3     4    1
     8     4     5    1
     9     5     1    1
    10     1    15    1
    11    15    16    1
    12    16    17    1
    13    16    18    1
    14    19    18    1
    15    19    20    1
    16    20    21    1
    17    22    21    1
    18    22    23    1
    19    23    24    1
    20    22    25    1
    21    25    26    1
    22    25    27    1
    23     5     6   am
    24     6     7    2
    25    12    13   ar
    26    13    14   ar
    27    14     9   ar
    28     6     2   am
    29    24    19    1
    30    25    19    1
@<TRIPOS>MOLECULE
*****
 27 30 0 0 0
SMALL
GASTEIGER

@<TRIPOS>ATOM
      1 C          -8.8480  -17.6570   23.6769 C.3     1  UNL1        0.1123
      2 N          -5.6124  -18.7989   21.8627 N.am    1  UNL1       -0.2414
      3 C          -6.4796  -20.0119   21.6995 C.3     1  UNL1        0.1212
      4 C          -7.7973  -19.7317   22.3593 C.3     1  UNL1        0.1169
      5 N          -7.7443  -18.3456   22.9302 N.am    1  UNL1       -0.2606
      6 C          -6.3941  -17.7691   22.6233 C.2     1  UNL1        0.3111
      7 O          -5.9103  -16.4028   23.0092 O.2     1  UNL1       -0.2520
      8 C          -0.0017  -18.1758   19.8299 C.3     1  UNL1        0.0310
      9 C          -1.4044  -18.3316   20.3381 C.ar    1  UNL1       -0.0218
     10 C          -1.7066  -18.0995   21.7889 C.ar    1  UNL1       -0.0030
     11 C          -3.1092  -18.2553   22.2971 C.ar    1  UNL1        0.0146
     12 C          -4.2096  -18.6431   21.3545 C.ar    1  UNL1        0.0553
     13 C          -3.9074  -18.8753   19.9037 C.ar    1  UNL1        0.0146
     14 C          -2.5048  -18.7195   19.3955 C.ar    1  UNL1       -0.0030
     15 C          -9.6927  -18.4287   24.6470 C.3     1  UNL1        0.0939
     16 N         -10.3280  -19.7206   24.2259 N.3     1  UNL1       -0.2701
     17 C          -9.9786  -20.9947   24.9364 C.3     1  UNL1        0.0897
     18 C         -11.3126  -19.7384   23.0945 C.3     1  UNL1        0.0721
     19 C         -11.7826  -18.4491   22.4888 C.3     1  UNL1        0.0147
     20 C         -12.5264  -17.3593   23.2024 C.3     1  UNL1        0.0013
     21 C         -12.7947  -16.2599   22.2178 C.3     1  UNL1        0.0000
     22 C         -12.2168  -16.6703   20.8958 C.3     1  UNL1        0.0000
     23 C         -11.4730  -17.7601   20.1823 C.3     1  UNL1        0.0000
     24 C         -11.2046  -18.8595   21.1669 C.3     1  UNL1        0.0013
     25 C         -11.5912  -18.0233   21.0633 C.3     1  UNL1        0.0013
     26 C         -11.1036  -18.2035   19.6563 C.3     1  UNL1        0.0000
     27 C         -10.8517  -19.2358   20.5807 C.3     1  UNL1        0.0000
@<TRIPOS>BOND
     1     8     9    1
     2     9    10   ar
     3    10    11   ar
     4    11    12   ar
     5    12     2    1
     6     2     3    1
     7     3     4    1
     8     4     5    1
     9     5     1    1
    10     1    15    1
    11    15    16    1
    12    16    17    1
    13    16    18    1
    14    19    18    1
    15    19    20    1
    16    20    21    1
    17    22    21    1
    18    22    23    1
    19    23    24    1
    20    22    25    1
    21    25    26    1
    22    25    27    1
    23     5     6   am
    24     6     7    2
    25    12    13   ar
    26    13    14   ar
    27    14     9   ar
    28     6     2   am
    29    24    19    1
    30    25    19    1
@<TRIPOS>MOLECULE
*****
 27 30 0 0 0
SMALL
GASTEIGER

@<TRIPOS>ATOM
      1 C          -9.0550  -15.5124   24.6419 C.3     1  UNL1        0.1123
      2 N          -5.3466  -16.3855   23.9002 N.am    1  UNL1       -0.2414
      3 C          -5.2692  -15.9975   25.3470 C.3     1  UNL1        0.1212
      4 C          -6.6490  -15.6232   25.8010 C.3     1  UNL1        0.1169
      5 N          -7.5791  -15.7799   24.6347 N.am    1  UNL1       -0.2606
      6 C          -6.7742  -16.2510   23.4600 C.2     1  UNL1        0.3111
      7 O          -7.3039  -16.5374   22.0862 O.2     1  UNL1       -0.2520
      8 C          -0.7523  -18.1634   20.4750 C.3     1  UNL1        0.0310
      9 C          -1.9009  -17.7190   21.3313 C.ar    1  UNL1       -0.0218
     10 C          -2.0844  -16.2633   21.6435 C.ar    1  UNL1       -0.0030
     11 C          -3.2329  -15.8188   22.4997 C.ar    1  UNL1        0.0146
     12 C          -4.1980  -16.8300   23.0438 C.ar    1  UNL1        0.0553
     13 C          -4.0146  -18.2856   22.7317 C.ar    1  UNL1        0.0146
     14 C          -2.8660  -18.7302   21.8754 C.ar    1  UNL1       -0.0030
     15 C          -9.9864  -16.4247   23.8999 C.3     1  UNL1        0.0939
     16 N          -9.9959  -17.8940   24.2020 N.3     1  UNL1       -0.2701
     17 C          -9.6789  -18.3771   25.5862 C.3     1  UNL1        0.0897
     18 C         -10.3224  -18.8800   23.1198 C.3     1  UNL1        0.0721
     19 C          -9.2896  -19.2341   22.0912 C.3     1  UNL1        0.0147
     20 C          -7.8685  -19.6266   22.3676 C.3     1  UNL1        0.0013
     21 C          -7.1972  -19.8930   21.0529 C.3     1  UNL1        0.0000
     22 C          -8.2034  -19.6651   19.9640 C.3     1  UNL1        0.0000
     23 C          -9.6245  -19.2726   19.6877 C.3     1  UNL1        0.0000
     24 C         -10.2959  -19.0062   21.0024 C.3     1  UNL1        0.0013
     25 C          -9.4966  -19.2579   20.6058 C.3     1  UNL1        0.0013
     26 C         -10.3082  -19.0950   19.3549 C.3     1  UNL1        0.0000
     27 C         -10.9386  -18.8449   20.5892 C.3     1  UNL1        0.0000
@<TRIPOS>BOND
     1     8     9    1
     2     9    10   ar
     3    10    11   ar
     4    11    12   ar
     5    12     2    1
     6     2     3    1
     7     3     4    1
     8     4     5    1
     9     5     1    1
    10     1    15    1
    11    15    16    1
    12    16    17    1
    13    16    18    1
    14    19    18    1
    15    19    20    1
    16    20    21    1
    17    22    21    1
    18    22    23    1
    19    23    24    1
    20    22    25    1
    21    25    26    1
    22    25    27    1
    23     5     6   am
    24     6     7    2
    25    12    13   ar
    26    13    14   ar
    27    14     9   ar
    28     6     2   am
    29    24    19    1
    30    25    19    1
@<TRIPOS>MOLECULE
*****
 27 30 0 0 0
SMALL
GASTEIGER

@<TRIPOS>ATOM
      1 C          -8.7524  -19.5752   19.7283 C.3     1  UNL1        0.1123
      2 N          -9.4033  -18.1931   23.2963 N.am    1  UNL1       -0.2414
      3 C         -10.4937  -19.2164   23.1786 C.3     1  UNL1        0.1212
      4 C         -10.3825  -19.8587   21.8276 C.3     1  UNL1        0.1169
      5 N          -9.2235  -19.2323   21.1105 N.am    1  UNL1       -0.2606
      6 C          -8.6183  -18.2029   22.0182 C.2     1  UNL1        0.3111
      7 O          -7.4358  -17.3356   21.7031 O.2     1  UNL1       -0.2520
      8 C          -8.3644  -14.6775   28.0462 C.3     1  UNL1        0.0310
      9 C          -8.6241  -15.5563   26.8587 C.ar    1  UNL1       -0.0218
     10 C          -8.8826  -17.0212   27.0521 C.ar    1  UNL1       -0.0030
     11 C          -9.1424  -17.9001   25.8647 C.ar    1  UNL1        0.0146
     12 C          -9.1436  -17.3141   24.4839 C.ar    1  UNL1        0.0553
     13 C          -8.8850  -15.8493   24.2905 C.ar    1  UNL1        0.0146
     14 C          -8.6253  -14.9703   25.4779 C.ar    1  UNL1       -0.0030
     15 C          -7.2884  -19.5367   19.4037 C.3     1  UNL1        0.0939
     16 N          -6.3235  -20.3738   20.1900 N.3     1  UNL1       -0.2701
     17 C          -6.2424  -21.8519   19.9476 C.3     1  UNL1        0.0897
     18 C          -5.4398  -19.7328   21.2187 C.3     1  UNL1        0.0721
     19 C          -4.1005  -19.1866   20.8215 C.3     1  UNL1        0.0147
     20 C          -3.4709  -19.2963   19.4644 C.3     1  UNL1        0.0013
     21 C          -2.1369  -18.6123   19.5158 C.3     1  UNL1        0.0000
     22 C          -1.9421  -18.0800   20.9046 C.3     1  UNL1        0.0000
     23 C          -2.5717  -17.9703   22.2616 C.3     1  UNL1        0.0000
     24 C          -3.9057  -18.6543   22.2103 C.3     1  UNL1        0.0013
     25 C          -3.1557  -18.4349   21.7115 C.3     1  UNL1        0.0013
     26 C          -2.7313  -17.8159   23.0103 C.3     1  UNL1        0.0000
     27 C          -3.9838  -18.4581   22.9621 C.3     1  UNL1        0.0000
@<TRIPOS>BOND
     1     8     9    1
     2     9    10   ar
     3    10    11   ar
     4    11    12   ar
     5    12     2    1
     6     2     3    1
     7     3     4    1
     8     4     5    1
     9     5     1    1
    10     1    15    1
    11    15    16    1
    12    16    17    1
    13    16    18    1
    14    19    18    1
    15    19    20    1
    16    20    21    1
    17    22    21    1
    18    22    23    1
    19    23    24    1
    20    22    25    1
    21    25    26    1
    22    25    27    1
    23     5     6   am
    24     6     7    2
    25    12    13   ar
    26    13    14   ar
    27    14     9   ar
    28     6     2   am
    29    24    19    1
    30    25    19    1
@<TRIPOS>MOLECULE
*****
 27 30 0 0 0
SMALL
GASTEIGER

@<TRIPOS>ATOM
      1 C          -7.8163  -14.9001   25.5415 C.3     1  UNL1        0.1123
      2 N          -4.6258  -16.6019   24.1311 N.am    1  UNL1       -0.2414
      3 C          -4.4357  -16.8059   25.6050 C.3     1  UNL1        0.1212
      4 C          -5.6077  -16.1932   26.3127 C.3     1  UNL1        0.1169
      5 N          -6.5222  -15.6106   25.2762 N.am    1  UNL1       -0.2606
      6 C          -5.9154  -15.8632   23.9280 C.2     1  UNL1        0.3111
      7 O          -6.4961  -15.4496   22.6082 O.2     1  UNL1       -0.2520
      8 C          -0.8848  -18.4215   19.8075 C.3     1  UNL1        0.0310
      9 C          -1.8200  -17.9666   20.8884 C.ar    1  UNL1       -0.0218
     10 C          -2.6831  -18.9643   21.6022 C.ar    1  UNL1       -0.0030
     11 C          -3.6184  -18.5095   22.6831 C.ar    1  UNL1        0.0146
     12 C          -3.6905  -17.0568   23.0502 C.ar    1  UNL1        0.0553
     13 C          -2.8274  -16.0591   22.3363 C.ar    1  UNL1        0.0146
     14 C          -1.8921  -16.5140   21.2554 C.ar    1  UNL1       -0.0030
     15 C          -9.1097  -15.4964   25.0704 C.3     1  UNL1        0.0939
     16 N          -9.1991  -16.9670   24.7887 N.3     1  UNL1       -0.2701
     17 C          -9.3172  -17.9419   25.9226 C.3     1  UNL1        0.0897
     18 C          -9.1703  -17.4626   23.3733 C.3     1  UNL1        0.0721
     19 C         -10.4279  -17.4705   22.5557 C.3     1  UNL1        0.0147
     20 C         -11.3544  -16.3085   22.3521 C.3     1  UNL1        0.0013
     21 C         -12.4789  -16.7617   21.4687 C.3     1  UNL1        0.0000
     22 C         -12.2472  -18.2036   21.1263 C.3     1  UNL1        0.0000
     23 C         -11.3207  -19.3655   21.3299 C.3     1  UNL1        0.0000
     24 C         -10.1962  -18.9124   22.2133 C.3     1  UNL1        0.0013
     25 C         -10.9796  -18.6416   21.7981 C.3     1  UNL1        0.0013
     26 C         -10.9698  -20.0630   21.3189 C.3     1  UNL1        0.0000
     27 C          -9.9141  -19.6376   22.1484 C.3     1  UNL1        0.0000
@<TRIPOS>BOND
     1     8     9    1
     2     9    10   ar
     3    10    11   ar
     4    11    12   ar
     5    12     2    1
     6     2     3    1
     7     3     4    1
     8     4     5    1
     9     5     1    1
    10     1    15    1
    11    15    16    1
    12    16    17    1
    13    16    18    1
    14    19    18    1
    15    19    20    1
    16    20    21    1
    17    22    21    1
    18    22    23    1
    19    23    24    1
    20    22    25    1
    21    25    26    1
    22    25    27    1
    23     5     6   am
    24     6     7    2
    25    12    13   ar
    26    13    14   ar
    27    14     9   ar
    28     6     2   am
    29    24    19    1
    30    25    19    1
@<TRIPOS>MOLECULE
*****
 27 30 0 0 0
SMALL
GASTEIGER

@<TRIPOS>ATOM
      1 C          -7.0399  -15.1757   23.7342 C.3     1  UNL1        0.1123
      2 N          -7.0650  -18.4156   21.5971 N.am    1  UNL1       -0.2414
      3 C          -5.8995  -18.6761   22.5048 C.3     1  UNL1        0.1212
      4 C          -5.7483  -17.4941   23.4158 C.3     1  UNL1        0.1169
      5 N          -6.8202  -16.5031   23.0712 N.am    1  UNL1       -0.2606
      6 C          -7.6340  -17.0726   21.9472 C.2     1  UNL1        0.3111
      7 O          -8.8103  -16.4147   21.2889 O.2     1  UNL1       -0.2520
      8 C          -9.0944  -22.0990   17.3176 C.3     1  UNL1        0.0310
      9 C          -8.5870  -21.1782   18.3875 C.ar    1  UNL1       -0.0218
     10 C          -9.4677  -20.0847   18.9155 C.ar    1  UNL1       -0.0030
     11 C          -8.9604  -19.1639   19.9854 C.ar    1  UNL1        0.0146
     12 C          -7.5724  -19.3365   20.5272 C.ar    1  UNL1        0.0553
     13 C          -6.6917  -20.4299   19.9991 C.ar    1  UNL1        0.0146
     14 C          -7.1990  -21.3508   18.9293 C.ar    1  UNL1       -0.0030
     15 C          -7.7860  -15.1004   25.0333 C.3     1  UNL1        0.0939
     16 N          -8.7557  -16.1827   25.4052 N.3     1  UNL1       -0.2701
     17 C          -8.5273  -17.0021   26.6407 C.3     1  UNL1        0.0897
     18 C          -9.9536  -16.4456   24.5416 C.3     1  UNL1        0.0721
     19 C         -10.2014  -17.8231   24.0019 C.3     1  UNL1        0.0147
     20 C          -9.4288  -19.0599   24.3535 C.3     1  UNL1        0.0013
     21 C         -10.0152  -20.2067   23.5848 C.3     1  UNL1        0.0000
     22 C         -11.1501  -19.6787   22.7582 C.3     1  UNL1        0.0000
     23 C         -11.9226  -18.4420   22.4067 C.3     1  UNL1        0.0000
     24 C         -11.3363  -17.2950   23.1754 C.3     1  UNL1        0.0013
     25 C         -11.2652  -18.2056   23.0160 C.3     1  UNL1        0.0013
     26 C         -12.4258  -17.9247   22.1083 C.3     1  UNL1        0.0000
     27 C         -11.8753  -16.8479   22.8300 C.3     1  UNL1        0.0000
@<TRIPOS>BOND
     1     8     9    1
     2     9    10   ar
     3    10    11   ar
     4    11    12   ar
     5    12     2    1
     6     2     3    1
     7     3     4    1
     8     4     5    1
     9     5     1    1
    10     1    15    1
    11    15    16    1
    12    16    17    1
    13    16    18    1
    14    19    18    1
    15    19    20    1
    16    20    21    1
    17    22    21    1
    18    22    23    1
    19    23    24    1
    20    22    25    1
    21    25    26    1
    22    25    27    1
    23     5     6   am
    24     6     7    2
    25    12    13   ar
    26    13    14   ar
    27    14     9   ar
    28     6     2   am
    29    24    19    1
    30    25    19    1
@<TRIPOS>MOLECULE
*****
 27 30 0 0 0
SMALL
GASTEIGER

@<TRIPOS>ATOM
      1 C          -7.3879  -14.7308   24.8343 C.3     1  UNL1        0.1123
      2 N          -5.0767  -17.4300   23.2729 N.am    1  UNL1       -0.2414
      3 C          -4.3120  -17.0764   24.5140 C.3     1  UNL1        0.1212
      4 C          -5.0847  -16.0222   25.2499 C.3     1  UNL1        0.1169
      5 N          -6.3269  -15.7244   24.4637 N.am    1  UNL1       -0.2606
      6 C          -6.3220  -16.5944   23.2419 C.2     1  UNL1        0.3111
      7 O          -7.3770  -16.6236   22.1761 O.2     1  UNL1       -0.2520
      8 C          -3.4412  -21.4764   19.1557 C.3     1  UNL1        0.0310
      9 C          -3.8500  -20.4648   20.1850 C.ar    1  UNL1       -0.0218
     10 C          -5.2873  -20.3561   20.6002 C.ar    1  UNL1       -0.0030
     11 C          -5.6962  -19.3446   21.6295 C.ar    1  UNL1        0.0146
     12 C          -4.6678  -18.4416   22.2436 C.ar    1  UNL1        0.0553
     13 C          -3.2305  -18.5503   21.8283 C.ar    1  UNL1        0.0146
     14 C          -2.8216  -19.5619   20.7991 C.ar    1  UNL1       -0.0030
     15 C          -8.6207  -15.1849   25.5583 C.3     1  UNL1        0.0939
     16 N          -9.3346  -16.4281   25.1170 N.3     1  UNL1       -0.2701
     17 C          -9.2413  -17.6787   25.9402 C.3     1  UNL1        0.0897
     18 C         -10.1418  -16.4208   23.8528 C.3     1  UNL1        0.0721
     19 C         -10.4231  -17.7075   23.1351 C.3     1  UNL1        0.0147
     20 C          -9.5770  -18.9453   23.1798 C.3     1  UNL1        0.0013
     21 C         -10.2309  -19.9851   22.3190 C.3     1  UNL1        0.0000
     22 C         -11.4813  -19.3901   21.7423 C.3     1  UNL1        0.0000
     23 C         -12.3274  -18.1524   21.6975 C.3     1  UNL1        0.0000
     24 C         -11.6734  -17.1124   22.5584 C.3     1  UNL1        0.0013
     25 C         -11.6000  -17.9824   22.2466 C.3     1  UNL1        0.0013
     26 C         -12.8802  -17.6198   21.5540 C.3     1  UNL1        0.0000
     27 C         -12.2662  -16.6434   22.3622 C.3     1  UNL1        0.0000
@<TRIPOS>BOND
     1     8     9    1
     2     9    10   ar
     3    10    11   ar
     4    11    12   ar
     5    12     2    1
     6     2     3    1
     7     3     4    1
     8     4     5    1
     9     5     1    1
    10     1    15    1
    11    15    16    1
    12    16    17    1
    13    16    18    1
    14    19    18    1
    15    19    20    1
    16    20    21    1
    17    22    21    1
    18    22    23    1
    19    23    24    1
    20    22    25    1
    21    25    26    1
    22    25    27    1
    23     5     6   am
    24     6     7    2
    25    12    13   ar
    26    13    14   ar
    27    14     9   ar
    28     6     2   am
    29    24    19    1
    30    25    19    1
