@<TRIPOS>MOLECULE
*****
 28 31 0 0 0
SMALL
GASTEIGER

@<TRIPOS>ATOM
      1 C          -6.1088  -18.8204   21.4328 C.2     1  UNL1       -0.0246
      2 C          -7.5694  -18.7627   21.0964 C.2     1  UNL1       -0.0421
      3 C          -8.2055  -17.7225   21.9702 C.3     1  UNL1        0.0480
      4 C          -7.1380  -17.1373   22.8465 C.ar    1  UNL1       -0.0184
      5 C          -7.1786  -16.0743   23.9040 C.ar    1  UNL1       -0.0040
      6 C          -5.9232  -15.6898   24.6294 C.ar    1  UNL1       -0.0003
      7 C          -4.6273  -16.3683   24.2973 C.ar    1  UNL1       -0.0000
      8 C          -4.5868  -17.4313   23.2398 C.ar    1  UNL1       -0.0006
      9 C          -5.8421  -17.8158   22.5144 C.ar    1  UNL1       -0.0079
     10 C          -5.4225  -21.1665   20.5524 C.3     1  UNL1        0.0111
     11 C          -5.0930  -19.7239   20.7989 C.3     1  UNL1        0.0634
     12 C          -3.7479  -19.1851   20.4114 C.ar    1  UNL1        0.0818
     13 C          -2.5115  -19.6954   21.0904 C.ar    1  UNL1        0.1139
     14 N          -1.1664  -19.1565   20.7028 N.ar    1  UNL1       -0.2394
     15 C          -1.0576  -18.1073   19.6364 C.ar    1  UNL1        0.1195
     16 C          -2.2939  -17.5970   18.9574 C.ar    1  UNL1        0.1191
     17 N          -3.6391  -18.1359   19.3449 N.ar    1  UNL1       -0.2446
     18 C          -8.2708  -19.5985   20.0671 C.3     1  UNL1        0.0394
     19 C          -9.4670  -19.0521   19.3456 C.3     1  UNL1        0.0769
     20 N         -10.7145  -18.7173   20.1082 N.3     1  UNL1       -0.2648
     21 C         -11.3648  -17.3771   19.9313 C.3     1  UNL1        0.0900
     22 C         -11.3118  -19.7225   21.0477 C.3     1  UNL1        0.1371
     23 C         -11.0673  -19.6079   22.5232 C.ar    1  UNL1        0.1368
     24 N         -10.0192  -20.3450   23.3031 N.ar    1  UNL1       -0.2279
     25 C         -10.1321  -19.9287   24.7398 C.ar    1  UNL1        0.1189
     26 C         -11.2500  -18.9344   24.8478 C.ar    1  UNL1        0.0978
     27 N         -11.8280  -18.7362   23.4779 N.ar    1  UNL1       -0.3106
     28 C         -12.9667  -17.8260   23.1247 C.3     1  UNL1        0.1317
@<TRIPOS>BOND
     1    11    10    1
     2    11     1    1
     3     1     2    2
     4     2    18    1
     5    18    19    1
     6    19    20    1
     7    20    21    1
     8    20    22    1
     9    22    23    1
    10    23    24   ar
    11    24    25   ar
    12    25    26   ar
    13    26    27   ar
    14    27    28    1
    15     2     3    1
    16     3     4    1
    17     4     5   ar
    18     5     6   ar
    19     6     7   ar
    20     7     8   ar
    21     8     9   ar
    22    11    12    1
    23    12    13   ar
    24    13    14   ar
    25    14    15   ar
    26    15    16   ar
    27    16    17   ar
    28     9     1    1
    29    17    12   ar
    30    27    23   ar
    31     9     4   ar
@<TRIPOS>MOLECULE
*****
 28 31 0 0 0
SMALL
GASTEIGER

@<TRIPOS>ATOM
      1 C          -8.6160  -17.0588   22.5350 C.2     1  UNL1       -0.0246
      2 C          -7.9944  -18.3569   22.1123 C.2     1  UNL1       -0.0421
      3 C          -9.0993  -19.2987   21.7351 C.3     1  UNL1        0.0480
      4 C         -10.4037  -18.5827   21.9246 C.ar    1  UNL1       -0.0184
      5 C         -11.8248  -19.0124   21.7109 C.ar    1  UNL1       -0.0040
      6 C         -12.9472  -18.0578   21.9915 C.ar    1  UNL1       -0.0003
      7 C         -12.6485  -16.6734   22.4859 C.ar    1  UNL1       -0.0000
      8 C         -11.2274  -16.2437   22.6996 C.ar    1  UNL1       -0.0006
      9 C         -10.1050  -17.1984   22.4190 C.ar    1  UNL1       -0.0079
     10 C          -7.5325  -14.7563   22.0107 C.3     1  UNL1        0.0111
     11 C          -7.8781  -15.8359   22.9932 C.3     1  UNL1        0.0634
     12 C          -7.4859  -15.6924   24.4338 C.ar    1  UNL1        0.0818
     13 C          -6.0400  -15.5505   24.8069 C.ar    1  UNL1        0.1139
     14 N          -5.6478  -15.4069   26.2476 N.ar    1  UNL1       -0.2394
     15 C          -6.7014  -15.4053   27.3152 C.ar    1  UNL1        0.1195
     16 C          -8.1473  -15.5472   26.9421 C.ar    1  UNL1        0.1191
     17 N          -8.5395  -15.6907   25.5015 N.ar    1  UNL1       -0.2446
     18 C          -6.5259  -18.6600   22.0737 C.3     1  UNL1        0.0394
     19 C          -5.8463  -18.9114   20.7604 C.3     1  UNL1        0.0769
     20 N          -5.1595  -20.2213   20.5099 N.3     1  UNL1       -0.2648
     21 C          -5.9670  -21.4380   20.1669 C.3     1  UNL1        0.0900
     22 C          -3.6653  -20.3144   20.6025 C.3     1  UNL1        0.1371
     23 C          -2.8193  -19.1103   20.3119 C.ar    1  UNL1        0.1368
     24 N          -2.2046  -18.7632   18.9884 N.ar    1  UNL1       -0.2279
     25 C          -1.4449  -17.4802   19.1523 C.ar    1  UNL1        0.1189
     26 C          -1.5901  -17.0344   20.5771 C.ar    1  UNL1        0.0978
     27 N          -2.4395  -18.0418   21.2938 N.ar    1  UNL1       -0.3106
     28 C          -2.8390  -17.9898   22.7387 C.3     1  UNL1        0.1317
@<TRIPOS>BOND
     1    11    10    1
     2    11     1    1
     3     1     2    2
     4     2    18    1
     5    18    19    1
     6    19    20    1
     7    20    21    1
     8    20    22    1
     9    22    23    1
    10    23    24   ar
    11    24    25   ar
    12    25    26   ar
    13    26    27   ar
    14    27    28    1
    15     2     3    1
    16     3     4    1
    17     4     5   ar
    18     5     6   ar
    19     6     7   ar
    20     7     8   ar
    21     8     9   ar
    22    11    12    1
    23    12    13   ar
    24    13    14   ar
    25    14    15   ar
    26    15    16   ar
    27    16    17   ar
    28     9     1    1
    29    17    12   ar
    30    27    23   ar
    31     9     4   ar
@<TRIPOS>MOLECULE
*****
 28 31 0 0 0
SMALL
GASTEIGER

@<TRIPOS>ATOM
      1 C          -8.5095  -17.0787   23.8138 C.2     1  UNL1       -0.0246
      2 C          -7.3176  -17.2747   22.9245 C.2     1  UNL1       -0.0421
      3 C          -6.1295  -16.6548   23.5986 C.3     1  UNL1        0.0480
      4 C          -6.5873  -16.0758   24.9045 C.ar    1  UNL1       -0.0184
      5 C          -5.8547  -15.3438   25.9896 C.ar    1  UNL1       -0.0040
      6 C          -6.5931  -14.8739   27.2077 C.ar    1  UNL1       -0.0003
      7 C          -8.0640  -15.1358   27.3407 C.ar    1  UNL1       -0.0000
      8 C          -8.7966  -15.8678   26.2556 C.ar    1  UNL1       -0.0006
      9 C          -8.0582  -16.3377   25.0374 C.ar    1  UNL1       -0.0079
     10 C         -10.5856  -18.4985   24.4653 C.3     1  UNL1        0.0111
     11 C          -9.9075  -17.5422   23.5293 C.3     1  UNL1        0.0634
     12 C         -10.6273  -17.0496   22.3091 C.ar    1  UNL1        0.0818
     13 C         -11.9615  -17.6279   21.9408 C.ar    1  UNL1        0.1139
     14 N         -12.6813  -17.1353   20.7205 N.ar    1  UNL1       -0.2394
     15 C         -12.0671  -16.0643   19.8685 C.ar    1  UNL1        0.1195
     16 C         -10.7330  -15.4860   20.2369 C.ar    1  UNL1        0.1191
     17 N         -10.0131  -15.9787   21.4571 N.ar    1  UNL1       -0.2446
     18 C          -7.3142  -17.9686   21.5947 C.3     1  UNL1        0.0394
     19 C          -7.2118  -19.4636   21.5292 C.3     1  UNL1        0.0769
     20 N          -5.9076  -20.1110   21.1686 N.3     1  UNL1       -0.2648
     21 C          -5.8840  -21.2730   20.2202 C.3     1  UNL1        0.0900
     22 C          -4.6271  -19.5965   21.7564 C.3     1  UNL1        0.1371
     23 C          -3.6486  -18.8579   20.8921 C.ar    1  UNL1        0.1368
     24 N          -3.4444  -19.0605   19.4199 N.ar    1  UNL1       -0.2279
     25 C          -2.3721  -18.1149   18.9661 C.ar    1  UNL1        0.1189
     26 C          -1.9135  -17.3278   20.1579 C.ar    1  UNL1        0.0978
     27 N          -2.7024  -17.7871   21.3481 N.ar    1  UNL1       -0.3106
     28 C          -2.5686  -17.2668   22.7486 C.3     1  UNL1        0.1317
@<TRIPOS>BOND
     1    11    10    1
     2    11     1    1
     3     1     2    2
     4     2    18    1
     5    18    19    1
     6    19    20    1
     7    20    21    1
     8    20    22    1
     9    22    23    1
    10    23    24   ar
    11    24    25   ar
    12    25    26   ar
    13    26    27   ar
    14    27    28    1
    15     2     3    1
    16     3     4    1
    17     4     5   ar
    18     5     6   ar
    19     6     7   ar
    20     7     8   ar
    21     8     9   ar
    22    11    12    1
    23    12    13   ar
    24    13    14   ar
    25    14    15   ar
    26    15    16   ar
    27    16    17   ar
    28     9     1    1
    29    17    12   ar
    30    27    23   ar
    31     9     4   ar
@<TRIPOS>MOLECULE
*****
 28 31 0 0 0
SMALL
GASTEIGER

@<TRIPOS>ATOM
      1 C          -4.1248  -18.2291   22.2983 C.2     1  UNL1       -0.0246
      2 C          -5.0549  -19.2559   21.7233 C.2     1  UNL1       -0.0421
      3 C          -4.5613  -19.6125   20.3525 C.3     1  UNL1        0.0480
      4 C          -3.3261  -18.8062   20.0803 C.ar    1  UNL1       -0.0184
      5 C          -2.4122  -18.7401   18.8927 C.ar    1  UNL1       -0.0040
      6 C          -1.2284  -17.8190   18.9077 C.ar    1  UNL1       -0.0003
      7 C          -0.9587  -16.9639   20.1103 C.ar    1  UNL1       -0.0000
      8 C          -1.8726  -17.0300   21.2978 C.ar    1  UNL1       -0.0006
      9 C          -3.0563  -17.9512   21.2828 C.ar    1  UNL1       -0.0079
     10 C          -3.2794  -17.9614   24.7404 C.3     1  UNL1        0.0111
     11 C          -4.2424  -17.5920   23.6512 C.3     1  UNL1        0.0634
     12 C          -5.3229  -16.5856   23.9149 C.ar    1  UNL1        0.0818
     13 C          -5.3572  -15.8465   25.2197 C.ar    1  UNL1        0.1139
     14 N          -6.4377  -14.8401   25.4834 N.ar    1  UNL1       -0.2394
     15 C          -7.4840  -14.5728   24.4424 C.ar    1  UNL1        0.1195
     16 C          -7.4498  -15.3119   23.1375 C.ar    1  UNL1        0.1191
     17 N          -6.3692  -16.3183   22.8738 N.ar    1  UNL1       -0.2446
     18 C          -6.2660  -19.8259   22.4003 C.3     1  UNL1        0.0394
     19 C          -7.6375  -19.3995   21.9676 C.3     1  UNL1        0.0769
     20 N          -8.7457  -19.3042   22.9740 N.3     1  UNL1       -0.2648
     21 C          -9.1841  -20.5266   23.7248 C.3     1  UNL1        0.0900
     22 C          -9.4155  -17.9867   23.2295 C.3     1  UNL1        0.1371
     23 C         -10.3969  -17.4390   22.2360 C.ar    1  UNL1        0.1368
     24 N         -10.0561  -16.7200   20.9645 N.ar    1  UNL1       -0.2279
     25 C         -11.3400  -16.3509   20.2823 C.ar    1  UNL1        0.1189
     26 C         -12.4743  -16.8418   21.1322 C.ar    1  UNL1        0.0978
     27 N         -11.8914  -17.5142   22.3397 N.ar    1  UNL1       -0.3106
     28 C         -12.6669  -18.1503   23.4551 C.3     1  UNL1        0.1317
@<TRIPOS>BOND
     1    11    10    1
     2    11     1    1
     3     1     2    2
     4     2    18    1
     5    18    19    1
     6    19    20    1
     7    20    21    1
     8    20    22    1
     9    22    23    1
    10    23    24   ar
    11    24    25   ar
    12    25    26   ar
    13    26    27   ar
    14    27    28    1
    15     2     3    1
    16     3     4    1
    17     4     5   ar
    18     5     6   ar
    19     6     7   ar
    20     7     8   ar
    21     8     9   ar
    22    11    12    1
    23    12    13   ar
    24    13    14   ar
    25    14    15   ar
    26    15    16   ar
    27    16    17   ar
    28     9     1    1
    29    17    12   ar
    30    27    23   ar
    31     9     4   ar
@<TRIPOS>MOLECULE
*****
 28 31 0 0 0
SMALL
GASTEIGER

@<TRIPOS>ATOM
      1 C         -14.2416   -6.4691   18.2691 C.2     1  UNL1       -0.0246
      2 C         -14.3754   -5.3923   19.3047 C.2     1  UNL1       -0.0421
      3 C         -13.0017   -5.0577   19.8056 C.3     1  UNL1        0.0480
      4 C         -12.0189   -5.9278   19.0795 C.ar    1  UNL1       -0.0184
      5 C         -10.5252   -6.0384   19.1604 C.ar    1  UNL1       -0.0040
      6 C          -9.7978   -7.0214   18.2917 C.ar    1  UNL1       -0.0003
      7 C         -10.5642   -7.8937   17.3421 C.ar    1  UNL1       -0.0000
      8 C         -12.0579   -7.7830   17.2612 C.ar    1  UNL1       -0.0006
      9 C         -12.7852   -6.8001   18.1299 C.ar    1  UNL1       -0.0079
     10 C         -15.9192   -6.4296   16.2855 C.3     1  UNL1        0.0111
     11 C         -15.3667   -7.1036   17.5065 C.3     1  UNL1        0.0634
     12 C         -15.9394   -8.4120   17.9646 C.ar    1  UNL1        0.0818
     13 C         -15.1184   -9.6639   17.8714 C.ar    1  UNL1        0.1139
     14 N         -15.6911  -10.9723   18.3296 N.ar    1  UNL1       -0.2394
     15 C         -17.0849  -11.0289   18.8811 C.ar    1  UNL1        0.1195
     16 C         -17.9060   -9.7770   18.9744 C.ar    1  UNL1        0.1191
     17 N         -17.3332   -8.4686   18.5162 N.ar    1  UNL1       -0.2446
     18 C         -15.6577   -4.7609   19.7596 C.3     1  UNL1        0.0394
     19 C         -16.2815   -3.6629   18.9501 C.3     1  UNL1        0.0769
     20 N         -15.5527   -2.3661   18.7576 N.3     1  UNL1       -0.2648
     21 C         -15.4341   -1.3963   19.8959 C.3     1  UNL1        0.0900
     22 C         -14.9424   -2.0390   17.4270 C.3     1  UNL1        0.1371
     23 C         -13.6151   -2.6250   17.0463 C.ar    1  UNL1        0.1368
     24 N         -13.3896   -3.7255   16.0524 N.ar    1  UNL1       -0.2279
     25 C         -11.9154   -3.9940   15.9845 C.ar    1  UNL1        0.1189
     26 C         -11.2297   -3.0593   16.9364 C.ar    1  UNL1        0.0978
     27 N         -12.2802   -2.2132   17.5926 N.ar    1  UNL1       -0.3106
     28 C         -12.0382   -1.1432   18.6157 C.3     1  UNL1        0.1317
@<TRIPOS>BOND
     1    11    10    1
     2    11     1    1
     3     1     2    2
     4     2    18    1
     5    18    19    1
     6    19    20    1
     7    20    21    1
     8    20    22    1
     9    22    23    1
    10    23    24   ar
    11    24    25   ar
    12    25    26   ar
    13    26    27   ar
    14    27    28    1
    15     2     3    1
    16     3     4    1
    17     4     5   ar
    18     5     6   ar
    19     6     7   ar
    20     7     8   ar
    21     8     9   ar
    22    11    12    1
    23    12    13   ar
    24    13    14   ar
    25    14    15   ar
    26    15    16   ar
    27    16    17   ar
    28     9     1    1
    29    17    12   ar
    30    27    23   ar
    31     9     4   ar
@<TRIPOS>MOLECULE
*****
 28 31 0 0 0
SMALL
GASTEIGER

@<TRIPOS>ATOM
      1 C          -5.3596  -17.3259   22.9496 C.2     1  UNL1       -0.0246
      2 C          -6.4889  -18.2477   22.5960 C.2     1  UNL1       -0.0421
      3 C          -5.9109  -19.4403   21.8934 C.3     1  UNL1        0.0480
      4 C          -4.4245  -19.2556   21.8128 C.ar    1  UNL1       -0.0184
      5 C          -3.3373  -20.1085   21.2293 C.ar    1  UNL1       -0.0040
      6 C          -1.9094  -19.6546   21.2986 C.ar    1  UNL1       -0.0003
      7 C          -1.5686  -18.3478   21.9513 C.ar    1  UNL1       -0.0000
      8 C          -2.6558  -17.4949   22.5348 C.ar    1  UNL1       -0.0006
      9 C          -4.0838  -17.9488   22.4655 C.ar    1  UNL1       -0.0079
     10 C          -4.7259  -14.8157   23.1678 C.3     1  UNL1        0.0111
     11 C          -5.4842  -16.0119   23.6622 C.3     1  UNL1        0.0634
     12 C          -6.3671  -15.8938   24.8690 C.ar    1  UNL1        0.0818
     13 C          -5.7811  -16.0290   26.2432 C.ar    1  UNL1        0.1139
     14 N          -6.6640  -15.9109   27.4500 N.ar    1  UNL1       -0.2394
     15 C          -8.1330  -15.6578   27.2828 C.ar    1  UNL1        0.1195
     16 C          -8.7191  -15.5226   25.9086 C.ar    1  UNL1        0.1191
     17 N          -7.8361  -15.6406   24.7018 N.ar    1  UNL1       -0.2446
     18 C          -7.9410  -18.0174   22.8929 C.3     1  UNL1        0.0394
     19 C          -8.8617  -19.1858   23.0857 C.3     1  UNL1        0.0769
     20 N         -10.1719  -18.9997   23.7918 N.3     1  UNL1       -0.2648
     21 C         -10.2057  -18.8572   25.2847 C.3     1  UNL1        0.0900
     22 C         -11.4483  -18.9561   23.0052 C.3     1  UNL1        0.1371
     23 C         -11.5830  -18.0139   21.8458 C.ar    1  UNL1        0.1368
     24 N         -12.1809  -16.6390   21.8919 N.ar    1  UNL1       -0.2279
     25 C         -12.1109  -16.0565   20.5114 C.ar    1  UNL1        0.1189
     26 C         -11.4697  -17.0715   19.6121 C.ar    1  UNL1        0.0978
     27 N         -11.1435  -18.2812   20.4368 N.ar    1  UNL1       -0.3106
     28 C         -10.4921  -19.5376   19.9397 C.3     1  UNL1        0.1317
@<TRIPOS>BOND
     1    11    10    1
     2    11     1    1
     3     1     2    2
     4     2    18    1
     5    18    19    1
     6    19    20    1
     7    20    21    1
     8    20    22    1
     9    22    23    1
    10    23    24   ar
    11    24    25   ar
    12    25    26   ar
    13    26    27   ar
    14    27    28    1
    15     2     3    1
    16     3     4    1
    17     4     5   ar
    18     5     6   ar
    19     6     7   ar
    20     7     8   ar
    21     8     9   ar
    22    11    12    1
    23    12    13   ar
    24    13    14   ar
    25    14    15   ar
    26    15    16   ar
    27    16    17   ar
    28     9     1    1
    29    17    12   ar
    30    27    23   ar
    31     9     4   ar
@<TRIPOS>MOLECULE
*****
 28 31 0 0 0
SMALL
GASTEIGER

@<TRIPOS>ATOM
      1 C           4.0648   -2.2053   19.2739 C.2     1  UNL1       -0.0246
      2 C           5.0503   -1.6921   18.2663 C.2     1  UNL1       -0.0421
      3 C           4.5317   -0.3897   17.7325 C.3     1  UNL1        0.0480
      4 C           3.2257   -0.0980   18.4102 C.ar    1  UNL1       -0.0184
      5 C           2.2621    1.0444   18.2830 C.ar    1  UNL1       -0.0040
      6 C           1.0098    1.0647   19.1084 C.ar    1  UNL1       -0.0003
      7 C           0.7212   -0.0575   20.0610 C.ar    1  UNL1       -0.0000
      8 C           1.6849   -1.1999   20.1883 C.ar    1  UNL1       -0.0006
      9 C           2.9371   -1.2201   19.3629 C.ar    1  UNL1       -0.0079
     10 C           3.6035   -4.7511   19.5117 C.3     1  UNL1        0.0111
     11 C           4.1856   -3.4799   20.0554 C.3     1  UNL1        0.0634
     12 C           4.8885   -3.4836   21.3804 C.ar    1  UNL1        0.0818
     13 C           4.2953   -2.7491   22.5461 C.ar    1  UNL1        0.1139
     14 N           4.9983   -2.7528   23.8712 N.ar    1  UNL1       -0.2394
     15 C           6.2943   -3.4909   24.0307 C.ar    1  UNL1        0.1195
     16 C           6.8875   -4.2253   22.8650 C.ar    1  UNL1        0.1191
     17 N           6.1846   -4.2217   21.5399 N.ar    1  UNL1       -0.2446
     18 C           6.3297   -2.3633   17.8632 C.3     1  UNL1        0.0394
     19 C           7.5417   -2.2561   18.7404 C.3     1  UNL1        0.0769
     20 N           7.8307   -0.9761   19.4671 N.3     1  UNL1       -0.2648
     21 C           7.4078   -0.8135   20.8971 C.3     1  UNL1        0.0900
     22 C           8.5426    0.1413   18.7638 C.3     1  UNL1        0.1371
     23 C           7.7697    1.1049   17.9129 C.ar    1  UNL1        0.1368
     24 N           7.5655    1.0044   16.4303 N.ar    1  UNL1       -0.2279
     25 C           6.7349    2.1756   15.9962 C.ar    1  UNL1        0.1189
     26 C           6.4258    3.0000   17.2106 C.ar    1  UNL1        0.0978
     27 N           7.0653    2.3383   18.3952 N.ar    1  UNL1       -0.3106
     28 C           7.0101    2.8246   19.8131 C.3     1  UNL1        0.1317
@<TRIPOS>BOND
     1    11    10    1
     2    11     1    1
     3     1     2    2
     4     2    18    1
     5    18    19    1
     6    19    20    1
     7    20    21    1
     8    20    22    1
     9    22    23    1
    10    23    24   ar
    11    24    25   ar
    12    25    26   ar
    13    26    27   ar
    14    27    28    1
    15     2     3    1
    16     3     4    1
    17     4     5   ar
    18     5     6   ar
    19     6     7   ar
    20     7     8   ar
    21     8     9   ar
    22    11    12    1
    23    12    13   ar
    24    13    14   ar
    25    14    15   ar
    26    15    16   ar
    27    16    17   ar
    28     9     1    1
    29    17    12   ar
    30    27    23   ar
    31     9     4   ar
@<TRIPOS>MOLECULE
*****
 28 31 0 0 0
SMALL
GASTEIGER

@<TRIPOS>ATOM
      1 C          -5.6242  -18.1281   22.4113 C.2     1  UNL1       -0.0246
      2 C          -6.3906  -19.2130   21.7145 C.2     1  UNL1       -0.0421
      3 C          -5.4044  -20.1025   21.0171 C.3     1  UNL1        0.0480
      4 C          -4.0286  -19.5672   21.2828 C.ar    1  UNL1       -0.0184
      5 C          -2.6697  -20.0333   20.8515 C.ar    1  UNL1       -0.0040
      6 C          -1.4466  -19.2792   21.2819 C.ar    1  UNL1       -0.0003
      7 C          -1.5824  -18.0589   22.1436 C.ar    1  UNL1       -0.0000
      8 C          -2.9413  -17.5928   22.5749 C.ar    1  UNL1       -0.0006
      9 C          -4.1644  -18.3469   22.1445 C.ar    1  UNL1       -0.0079
     10 C          -5.3789  -16.3257   24.2665 C.3     1  UNL1        0.0111
     11 C          -6.2140  -17.0189   23.2309 C.3     1  UNL1        0.0634
     12 C          -7.6388  -16.6028   23.0152 C.ar    1  UNL1        0.0818
     13 C          -8.6444  -16.7719   24.1154 C.ar    1  UNL1        0.1139
     14 N         -10.0692  -16.3557   23.8996 N.ar    1  UNL1       -0.2394
     15 C         -10.4887  -15.7706   22.5837 C.ar    1  UNL1        0.1195
     16 C          -9.4832  -15.6015   21.4835 C.ar    1  UNL1        0.1191
     17 N          -8.0583  -16.0176   21.6993 N.ar    1  UNL1       -0.2446
     18 C          -7.8813  -19.3793   21.7150 C.3     1  UNL1        0.0394
     19 C          -8.6545  -19.2179   20.4398 C.3     1  UNL1        0.0769
     20 N         -10.1516  -19.1322   20.4761 N.3     1  UNL1       -0.2648
     21 C         -10.8716  -18.1937   19.5536 C.3     1  UNL1        0.0900
     22 C         -10.9286  -19.9848   21.4348 C.3     1  UNL1        0.1371
     23 C         -11.6443  -19.3518   22.5912 C.ar    1  UNL1        0.1368
     24 N         -12.8620  -18.4804   22.5042 N.ar    1  UNL1       -0.2279
     25 C         -13.2382  -18.0691   23.8968 C.ar    1  UNL1        0.1189
     26 C         -12.2529  -18.6864   24.8445 C.ar    1  UNL1        0.0978
     27 N         -11.2678  -19.4791   24.0376 N.ar    1  UNL1       -0.3106
     28 C         -10.1096  -20.2618   24.5816 C.3     1  UNL1        0.1317
@<TRIPOS>BOND
     1    11    10    1
     2    11     1    1
     3     1     2    2
     4     2    18    1
     5    18    19    1
     6    19    20    1
     7    20    21    1
     8    20    22    1
     9    22    23    1
    10    23    24   ar
    11    24    25   ar
    12    25    26   ar
    13    26    27   ar
    14    27    28    1
    15     2     3    1
    16     3     4    1
    17     4     5   ar
    18     5     6   ar
    19     6     7   ar
    20     7     8   ar
    21     8     9   ar
    22    11    12    1
    23    12    13   ar
    24    13    14   ar
    25    14    15   ar
    26    15    16   ar
    27    16    17   ar
    28     9     1    1
    29    17    12   ar
    30    27    23   ar
    31     9     4   ar
@<TRIPOS>MOLECULE
*****
 28 31 0 0 0
SMALL
GASTEIGER

@<TRIPOS>ATOM
      1 C          -5.3379  -17.2687   22.8622 C.2     1  UNL1       -0.0246
      2 C          -6.4661  -18.1126   22.3474 C.2     1  UNL1       -0.0421
      3 C          -5.8749  -19.3092   21.6629 C.3     1  UNL1        0.0480
      4 C          -4.3813  -19.2049   21.7546 C.ar    1  UNL1       -0.0184
      5 C          -3.2807  -20.0953   21.2590 C.ar    1  UNL1       -0.0040
      6 C          -1.8481  -19.7245   21.5045 C.ar    1  UNL1       -0.0003
      7 C          -1.5162  -18.4634   22.2457 C.ar    1  UNL1       -0.0000
      8 C          -2.6169  -17.5730   22.7414 C.ar    1  UNL1       -0.0006
      9 C          -4.0494  -17.9437   22.4958 C.ar    1  UNL1       -0.0079
     10 C          -4.7253  -14.7605   23.1526 C.3     1  UNL1        0.0111
     11 C          -5.4742  -15.9765   23.6117 C.3     1  UNL1        0.0634
     12 C          -6.3592  -15.9003   24.8203 C.ar    1  UNL1        0.0818
     13 C          -5.7600  -15.9645   26.1940 C.ar    1  UNL1        0.1139
     14 N          -6.6452  -15.8882   27.4026 N.ar    1  UNL1       -0.2394
     15 C          -8.1294  -15.7477   27.2376 C.ar    1  UNL1        0.1195
     16 C          -8.7286  -15.6835   25.8640 C.ar    1  UNL1        0.1191
     17 N          -7.8435  -15.7598   24.6554 N.ar    1  UNL1       -0.2446
     18 C          -7.9287  -17.8125   22.4918 C.3     1  UNL1        0.0394
     19 C          -8.9036  -18.3258   21.4740 C.3     1  UNL1        0.0769
     20 N         -10.2260  -17.6420   21.2906 N.3     1  UNL1       -0.2648
     21 C         -10.9442  -17.7379   19.9771 C.3     1  UNL1        0.0900
     22 C         -10.8303  -16.8623   22.4206 C.3     1  UNL1        0.1371
     23 C         -11.9013  -17.4802   23.2698 C.ar    1  UNL1        0.1368
     24 N         -13.3770  -17.2478   23.1352 N.ar    1  UNL1       -0.2279
     25 C         -14.0723  -18.0630   24.1850 C.ar    1  UNL1        0.1189
     26 C         -13.0263  -18.7993   24.9684 C.ar    1  UNL1        0.0978
     27 N         -11.6845  -18.4391   24.4028 N.ar    1  UNL1       -0.3106
     28 C         -10.3588  -18.9484   24.8855 C.3     1  UNL1        0.1317
@<TRIPOS>BOND
     1    11    10    1
     2    11     1    1
     3     1     2    2
     4     2    18    1
     5    18    19    1
     6    19    20    1
     7    20    21    1
     8    20    22    1
     9    22    23    1
    10    23    24   ar
    11    24    25   ar
    12    25    26   ar
    13    26    27   ar
    14    27    28    1
    15     2     3    1
    16     3     4    1
    17     4     5   ar
    18     5     6   ar
    19     6     7   ar
    20     7     8   ar
    21     8     9   ar
    22    11    12    1
    23    12    13   ar
    24    13    14   ar
    25    14    15   ar
    26    15    16   ar
    27    16    17   ar
    28     9     1    1
    29    17    12   ar
    30    27    23   ar
    31     9     4   ar
