@<TRIPOS>MOLECULE
*****
 24 27 0 0 0
SMALL
GASTEIGER

@<TRIPOS>ATOM
      1 N          -8.4765  -17.0777   22.0192 N.ar    1  UNL1       -0.3100
      2 C          -7.9339  -18.3894   21.5341 C.ar    1  UNL1        0.1317
      3 N          -9.0963  -19.2743   21.1938 N.ar    1  UNL1       -0.2300
      4 C         -10.3571  -18.5097   21.4685 C.ar    1  UNL1        0.0984
      5 C         -11.8046  -18.8741   21.3201 C.ar    1  UNL1        0.0206
      6 C         -12.8689  -17.8810   21.6817 C.ar    1  UNL1        0.0016
      7 C         -12.4858  -16.5234   22.1918 C.ar    1  UNL1        0.0016
      8 C         -11.0384  -16.1590   22.3403 C.ar    1  UNL1        0.0188
      9 C          -9.9741  -17.1521   21.9786 C.ar    1  UNL1        0.0789
     10 C          -6.4837  -18.7523   21.4110 C.3     1  UNL1        0.1199
     11 C          -5.5893  -18.6858   22.6133 C.3     1  UNL1        0.0871
     12 N          -4.1390  -19.0487   22.4902 N.3     1  UNL1       -0.2957
     13 C          -3.5833  -19.4782   21.1648 C.3     1  UNL1        0.0804
     14 C          -4.4777  -19.5448   19.9626 C.3     1  UNL1        0.0750
     15 S          -5.9280  -19.1818   20.0857 S.3     1  UNL1       -0.1306
     16 H          -3.9709  -19.8149   23.1422 H       1  UNL1        0.1233
     17 C          -7.6640  -15.8987   22.4663 C.3     1  UNL1        0.1339
     18 F          -6.5078  -15.0899   28.2980 F       1  UNL1       -0.2042
     19 C          -6.7968  -15.2921   26.8400 C.ar    1  UNL1        0.1401
     20 C          -8.2042  -15.5342   26.3810 C.ar    1  UNL1        0.0294
     21 C          -8.4933  -15.7364   24.9231 C.ar    1  UNL1       -0.0001
     22 C          -7.3749  -15.6965   23.9241 C.ar    1  UNL1        0.0006
     23 C          -5.9676  -15.4544   24.3832 C.ar    1  UNL1       -0.0001
     24 C          -5.6786  -15.2522   25.8411 C.ar    1  UNL1        0.0294
@<TRIPOS>BOND
     1    18    19    1
     2    19    20   ar
     3    20    21   ar
     4    21    22   ar
     5    22    17    1
     6    17     1    1
     7     1     2   ar
     8    10     2    1
     9    10    11    1
    10    11    12    1
    11    12    13    1
    12    13    14    1
    13    14    15    1
    14     2     3   ar
    15     3     4   ar
    16     4     5   ar
    17     5     6   ar
    18     6     7   ar
    19     7     8   ar
    20     8     9   ar
    21    22    23   ar
    22    23    24   ar
    23    24    19   ar
    24     9     1   ar
    25    15    10    1
    26     9     4   ar
    27    12    16    1
@<TRIPOS>MOLECULE
*****
 24 27 0 0 0
SMALL
GASTEIGER

@<TRIPOS>ATOM
      1 N          -8.0030  -18.0391   22.3992 N.ar    1  UNL1       -0.3100
      2 C          -8.2226  -16.7163   23.0716 C.ar    1  UNL1        0.1317
      3 N          -9.4320  -16.0782   22.4551 N.ar    1  UNL1       -0.2300
      4 C          -9.9599  -17.0065   21.4018 C.ar    1  UNL1        0.0984
      5 C         -11.1307  -16.9048   20.4696 C.ar    1  UNL1        0.0206
      6 C         -11.4182  -18.0151   19.5030 C.ar    1  UNL1        0.0016
      7 C         -10.5350  -19.2270   19.4684 C.ar    1  UNL1        0.0016
      8 C          -9.3643  -19.3287   20.4005 C.ar    1  UNL1        0.0188
      9 C          -9.0767  -18.2184   21.3672 C.ar    1  UNL1        0.0789
     10 C          -7.3806  -16.1340   24.1679 C.3     1  UNL1        0.1199
     11 C          -6.0193  -15.5858   23.8574 C.3     1  UNL1        0.0871
     12 N          -5.1773  -15.0035   24.9537 N.3     1  UNL1       -0.2957
     13 C          -5.6966  -14.9693   26.3605 C.3     1  UNL1        0.0804
     14 C          -7.0578  -15.5174   26.6710 C.3     1  UNL1        0.0750
     15 S          -7.8998  -16.0998   25.5747 S.3     1  UNL1       -0.1306
     16 H          -4.9770  -14.0386   24.6903 H       1  UNL1        0.1233
     17 C          -6.9028  -19.0117   22.7051 C.3     1  UNL1        0.1339
     18 F          -1.7481  -18.7709   19.6440 F       1  UNL1       -0.2042
     19 C          -3.0368  -18.8311   20.4093 C.ar    1  UNL1        0.1401
     20 C          -4.3182  -19.1474   19.6965 C.ar    1  UNL1        0.0294
     21 C          -5.6069  -19.2075   20.4618 C.ar    1  UNL1       -0.0001
     22 C          -5.6142  -18.9515   21.9399 C.ar    1  UNL1        0.0006
     23 C          -4.3327  -18.6353   22.6525 C.ar    1  UNL1       -0.0001
     24 C          -3.0441  -18.5751   21.8872 C.ar    1  UNL1        0.0294
@<TRIPOS>BOND
     1    18    19    1
     2    19    20   ar
     3    20    21   ar
     4    21    22   ar
     5    22    17    1
     6    17     1    1
     7     1     2   ar
     8    10     2    1
     9    10    11    1
    10    11    12    1
    11    12    13    1
    12    13    14    1
    13    14    15    1
    14     2     3   ar
    15     3     4   ar
    16     4     5   ar
    17     5     6   ar
    18     6     7   ar
    19     7     8   ar
    20     8     9   ar
    21    22    23   ar
    22    23    24   ar
    23    24    19   ar
    24     9     1   ar
    25    15    10    1
    26     9     4   ar
    27    12    16    1
@<TRIPOS>MOLECULE
*****
 24 27 0 0 0
SMALL
GASTEIGER

@<TRIPOS>ATOM
      1 N          -7.7498  -17.8093   21.7392 N.ar    1  UNL1       -0.3100
      2 C          -8.9451  -18.6809   21.4907 C.ar    1  UNL1        0.1317
      3 N          -8.4568  -19.9989   20.9669 N.ar    1  UNL1       -0.2300
      4 C          -6.9597  -19.9419   20.8917 C.ar    1  UNL1        0.0984
      5 C          -5.9380  -20.9474   20.4502 C.ar    1  UNL1        0.0206
      6 C          -4.4793  -20.5997   20.4861 C.ar    1  UNL1        0.0016
      7 C          -4.0424  -19.2464   20.9633 C.ar    1  UNL1        0.0016
      8 C          -5.0642  -18.2409   21.4048 C.ar    1  UNL1        0.0188
      9 C          -6.5228  -18.5887   21.3690 C.ar    1  UNL1        0.0789
     10 C         -10.3772  -18.3011   21.7249 C.3     1  UNL1        0.1199
     11 C         -11.1730  -17.6618   20.6259 C.3     1  UNL1        0.0871
     12 N         -12.6051  -17.2820   20.8601 N.3     1  UNL1       -0.2957
     13 C         -13.2414  -17.5415   22.1933 C.3     1  UNL1        0.0804
     14 C         -12.4457  -18.1808   23.2924 C.3     1  UNL1        0.0750
     15 S         -11.0135  -18.5606   23.0582 S.3     1  UNL1       -0.1306
     16 H         -13.1599  -17.7834   20.1664 H       1  UNL1        0.1233
     17 C          -7.7768  -16.4049   22.2655 C.3     1  UNL1        0.1339
     18 F          -6.4778  -15.3335   28.0243 F       1  UNL1       -0.2042
     19 C          -6.8026  -15.6014   26.5846 C.ar    1  UNL1        0.1401
     20 C          -5.7234  -15.5248   25.5456 C.ar    1  UNL1        0.0294
     21 C          -6.0482  -15.7927   24.1059 C.ar    1  UNL1       -0.0001
     22 C          -7.4521  -16.1371   23.7051 C.ar    1  UNL1        0.0006
     23 C          -8.5312  -16.2137   24.7443 C.ar    1  UNL1       -0.0001
     24 C          -8.2064  -15.9458   26.1840 C.ar    1  UNL1        0.0294
@<TRIPOS>BOND
     1    18    19    1
     2    19    20   ar
     3    20    21   ar
     4    21    22   ar
     5    22    17    1
     6    17     1    1
     7     1     2   ar
     8    10     2    1
     9    10    11    1
    10    11    12    1
    11    12    13    1
    12    13    14    1
    13    14    15    1
    14     2     3   ar
    15     3     4   ar
    16     4     5   ar
    17     5     6   ar
    18     6     7   ar
    19     7     8   ar
    20     8     9   ar
    21    22    23   ar
    22    23    24   ar
    23    24    19   ar
    24     9     1   ar
    25    15    10    1
    26     9     4   ar
    27    12    16    1
@<TRIPOS>MOLECULE
*****
 24 27 0 0 0
SMALL
GASTEIGER

@<TRIPOS>ATOM
      1 N          -6.3207  -17.8314   22.4750 N.ar    1  UNL1       -0.3100
      2 C          -6.9463  -19.1350   22.0760 C.ar    1  UNL1        0.1317
      3 N          -5.8430  -20.1025   21.7650 N.ar    1  UNL1       -0.2300
      4 C          -4.5356  -19.3969   21.9718 C.ar    1  UNL1        0.0984
      5 C          -3.1144  -19.8511   21.8172 C.ar    1  UNL1        0.0206
      6 C          -1.9885  -18.9017   22.1014 C.ar    1  UNL1        0.0016
      7 C          -2.2838  -17.4980   22.5403 C.ar    1  UNL1        0.0016
      8 C          -3.7049  -17.0438   22.6949 C.ar    1  UNL1        0.0188
      9 C          -4.8308  -17.9932   22.4106 C.ar    1  UNL1        0.0789
     10 C          -8.4169  -19.4210   22.0011 C.3     1  UNL1        0.1199
     11 C          -9.1357  -19.3149   20.6889 C.3     1  UNL1        0.0871
     12 N         -10.6063  -19.6008   20.6140 N.3     1  UNL1       -0.2957
     13 C         -11.3580  -19.9928   21.8514 C.3     1  UNL1        0.0804
     14 C         -10.6392  -20.0989   23.1636 C.3     1  UNL1        0.0750
     15 S          -9.1686  -19.8129   23.2385 S.3     1  UNL1       -0.1306
     16 H         -10.7247  -20.3610   19.9443 H       1  UNL1        0.1233
     17 C          -7.0559  -16.5848   22.8693 C.3     1  UNL1        0.1339
     18 F          -6.7295  -14.5661   28.5100 F       1  UNL1       -0.2042
     19 C          -6.8111  -15.0708   27.0998 C.ar    1  UNL1        0.1401
     20 C          -5.5967  -15.0376   26.2199 C.ar    1  UNL1        0.0294
     21 C          -5.6784  -15.5423   24.8097 C.ar    1  UNL1       -0.0001
     22 C          -6.9743  -16.0802   24.2794 C.ar    1  UNL1        0.0006
     23 C          -8.1887  -16.1133   25.1594 C.ar    1  UNL1       -0.0001
     24 C          -8.1070  -15.6087   26.5695 C.ar    1  UNL1        0.0294
@<TRIPOS>BOND
     1    18    19    1
     2    19    20   ar
     3    20    21   ar
     4    21    22   ar
     5    22    17    1
     6    17     1    1
     7     1     2   ar
     8    10     2    1
     9    10    11    1
    10    11    12    1
    11    12    13    1
    12    13    14    1
    13    14    15    1
    14     2     3   ar
    15     3     4   ar
    16     4     5   ar
    17     5     6   ar
    18     6     7   ar
    19     7     8   ar
    20     8     9   ar
    21    22    23   ar
    22    23    24   ar
    23    24    19   ar
    24     9     1   ar
    25    15    10    1
    26     9     4   ar
    27    12    16    1
@<TRIPOS>MOLECULE
*****
 24 27 0 0 0
SMALL
GASTEIGER

@<TRIPOS>ATOM
      1 N          -6.4224  -16.6869   23.6535 N.ar    1  UNL1       -0.3100
      2 C          -4.9495  -16.7703   23.9243 C.ar    1  UNL1        0.1317
      3 N          -4.7006  -16.2345   25.3030 N.ar    1  UNL1       -0.2300
      4 C          -6.0197  -15.8200   25.8844 C.ar    1  UNL1        0.0984
      5 C          -6.3894  -15.2241   27.2104 C.ar    1  UNL1        0.0206
      6 C          -7.8233  -14.9078   27.5169 C.ar    1  UNL1        0.0016
      7 C          -8.8874  -15.1874   26.4974 C.ar    1  UNL1        0.0016
      8 C          -8.5178  -15.7833   25.1714 C.ar    1  UNL1        0.0188
      9 C          -7.0839  -16.0996   24.8649 C.ar    1  UNL1        0.0789
     10 C          -3.9082  -17.2970   22.9817 C.3     1  UNL1        0.1199
     11 C          -2.8578  -16.3767   22.4343 C.3     1  UNL1        0.0871
     12 N          -1.8166  -16.9033   21.4917 N.3     1  UNL1       -0.2957
     13 C          -1.8256  -18.3503   21.0967 C.3     1  UNL1        0.0804
     14 C          -2.8759  -19.2706   21.6442 C.3     1  UNL1        0.0750
     15 S          -3.9172  -18.7440   22.5867 S.3     1  UNL1       -0.1306
     16 H          -0.9102  -16.7215   21.9228 H       1  UNL1        0.1233
     17 C          -7.1128  -17.1156   22.3927 C.3     1  UNL1        0.1339
     18 F         -13.0357  -18.0740   22.3922 F       1  UNL1       -0.2042
     19 C         -11.5550  -17.8344   22.3923 C.ar    1  UNL1        0.1401
     20 C         -10.6266  -18.8773   22.9405 C.ar    1  UNL1        0.0294
     21 C          -9.1458  -18.6376   22.9406 C.ar    1  UNL1       -0.0001
     22 C          -8.5935  -17.3551   22.3926 C.ar    1  UNL1        0.0006
     23 C          -9.5220  -16.3123   21.8444 C.ar    1  UNL1       -0.0001
     24 C         -11.0027  -16.5520   21.8443 C.ar    1  UNL1        0.0294
@<TRIPOS>BOND
     1    18    19    1
     2    19    20   ar
     3    20    21   ar
     4    21    22   ar
     5    22    17    1
     6    17     1    1
     7     1     2   ar
     8    10     2    1
     9    10    11    1
    10    11    12    1
    11    12    13    1
    12    13    14    1
    13    14    15    1
    14     2     3   ar
    15     3     4   ar
    16     4     5   ar
    17     5     6   ar
    18     6     7   ar
    19     7     8   ar
    20     8     9   ar
    21    22    23   ar
    22    23    24   ar
    23    24    19   ar
    24     9     1   ar
    25    15    10    1
    26     9     4   ar
    27    12    16    1
@<TRIPOS>MOLECULE
*****
 24 27 0 0 0
SMALL
GASTEIGER

@<TRIPOS>ATOM
      1 N          -8.1417  -16.3776   23.4312 N.ar    1  UNL1       -0.3100
      2 C          -9.5416  -16.5240   23.9497 C.ar    1  UNL1        0.1317
      3 N          -9.5303  -16.1965   25.4135 N.ar    1  UNL1       -0.2300
      4 C          -8.1234  -15.8478   25.7997 C.ar    1  UNL1        0.0984
      5 C          -7.5129  -15.4429   27.1086 C.ar    1  UNL1        0.0206
      6 C          -6.0442  -15.1498   27.1923 C.ar    1  UNL1        0.0016
      7 C          -5.1860  -15.2617   25.9672 C.ar    1  UNL1        0.0016
      8 C          -5.7965  -15.6667   24.6583 C.ar    1  UNL1        0.0188
      9 C          -7.2652  -15.9597   24.5745 C.ar    1  UNL1        0.0789
     10 C         -10.7420  -16.9270   23.1457 C.3     1  UNL1        0.1199
     11 C         -11.6368  -18.0274   23.6340 C.3     1  UNL1        0.0871
     12 N         -12.8373  -18.4304   22.8299 N.3     1  UNL1       -0.2957
     13 C         -13.1429  -17.7330   21.5376 C.3     1  UNL1        0.0804
     14 C         -12.2481  -16.6327   21.0493 C.3     1  UNL1        0.0750
     15 S         -11.0477  -16.2297   21.8533 S.3     1  UNL1       -0.1306
     16 H         -13.6509  -18.3043   23.4321 H       1  UNL1        0.1233
     17 C          -7.6965  -16.6086   22.0176 C.3     1  UNL1        0.1339
     18 F          -5.8084  -22.0438   20.3168 F       1  UNL1       -0.2042
     19 C          -6.2804  -20.6850   20.7419 C.ar    1  UNL1        0.1401
     20 C          -5.5548  -19.9442   21.8259 C.ar    1  UNL1        0.0294
     21 C          -6.0269  -18.5854   22.2510 C.ar    1  UNL1       -0.0001
     22 C          -7.2245  -17.9673   21.5924 C.ar    1  UNL1        0.0006
     23 C          -7.9500  -18.7081   20.5085 C.ar    1  UNL1       -0.0001
     24 C          -7.4780  -20.0670   20.0833 C.ar    1  UNL1        0.0294
@<TRIPOS>BOND
     1    18    19    1
     2    19    20   ar
     3    20    21   ar
     4    21    22   ar
     5    22    17    1
     6    17     1    1
     7     1     2   ar
     8    10     2    1
     9    10    11    1
    10    11    12    1
    11    12    13    1
    12    13    14    1
    13    14    15    1
    14     2     3   ar
    15     3     4   ar
    16     4     5   ar
    17     5     6   ar
    18     6     7   ar
    19     7     8   ar
    20     8     9   ar
    21    22    23   ar
    22    23    24   ar
    23    24    19   ar
    24     9     1   ar
    25    15    10    1
    26     9     4   ar
    27    12    16    1
@<TRIPOS>MOLECULE
*****
 24 27 0 0 0
SMALL
GASTEIGER

@<TRIPOS>ATOM
      1 N         -13.3527   -5.4045   18.1618 N.ar    1  UNL1       -0.3100
      2 C         -13.2011   -4.0721   18.8340 C.ar    1  UNL1        0.1317
      3 N         -11.7845   -3.9528   19.3123 N.ar    1  UNL1       -0.2300
      4 C         -11.0604   -5.2114   18.9357 C.ar    1  UNL1        0.0984
      5 C          -9.6439   -5.6563   19.1484 C.ar    1  UNL1        0.0206
      6 C          -9.1965   -6.9985   18.6501 C.ar    1  UNL1        0.0016
      7 C         -10.1657   -7.8957   17.9391 C.ar    1  UNL1        0.0016
      8 C         -11.5823   -7.4508   17.7264 C.ar    1  UNL1        0.0188
      9 C         -12.0297   -6.1086   18.2247 C.ar    1  UNL1        0.0789
     10 C         -14.2773   -3.0403   18.9989 C.3     1  UNL1        0.1199
     11 C         -15.4861   -3.3442   19.8334 C.3     1  UNL1        0.0871
     12 N         -16.5623   -2.3123   19.9983 N.3     1  UNL1       -0.2957
     13 C         -16.4297   -0.9767   19.3287 C.3     1  UNL1        0.0804
     14 C         -15.2209   -0.6728   18.4942 C.3     1  UNL1        0.0750
     15 S         -14.1447   -1.7047   18.3293 S.3     1  UNL1       -0.1306
     16 H         -16.6474   -2.1330   20.9988 H       1  UNL1        0.1233
     17 C         -14.6070   -5.9390   17.5365 C.3     1  UNL1        0.1339
     18 F         -17.1887  -10.8843   19.7452 F       1  UNL1       -0.2042
     19 C         -16.5433   -9.6480   19.1931 C.ar    1  UNL1        0.1401
     20 C         -15.6607   -9.7390   17.9836 C.ar    1  UNL1        0.0294
     21 C         -15.0153   -8.5026   17.4314 C.ar    1  UNL1       -0.0001
     22 C         -15.2524   -7.1753   18.0887 C.ar    1  UNL1        0.0006
     23 C         -16.1350   -7.0843   19.2982 C.ar    1  UNL1       -0.0001
     24 C         -16.7804   -8.3207   19.8503 C.ar    1  UNL1        0.0294
@<TRIPOS>BOND
     1    18    19    1
     2    19    20   ar
     3    20    21   ar
     4    21    22   ar
     5    22    17    1
     6    17     1    1
     7     1     2   ar
     8    10     2    1
     9    10    11    1
    10    11    12    1
    11    12    13    1
    12    13    14    1
    13    14    15    1
    14     2     3   ar
    15     3     4   ar
    16     4     5   ar
    17     5     6   ar
    18     6     7   ar
    19     7     8   ar
    20     8     9   ar
    21    22    23   ar
    22    23    24   ar
    23    24    19   ar
    24     9     1   ar
    25    15    10    1
    26     9     4   ar
    27    12    16    1
@<TRIPOS>MOLECULE
*****
 24 27 0 0 0
SMALL
GASTEIGER

@<TRIPOS>ATOM
      1 N          -6.7352  -17.5013   22.9989 N.ar    1  UNL1       -0.3100
      2 C          -5.2914  -17.8588   22.8053 C.ar    1  UNL1        0.1317
      3 N          -4.4992  -17.1915   23.8903 N.ar    1  UNL1       -0.2300
      4 C          -5.4535  -16.4216   24.7544 C.ar    1  UNL1        0.0984
      5 C          -5.2426  -15.5710   25.9717 C.ar    1  UNL1        0.0206
      6 C          -6.4136  -14.9118   26.6381 C.ar    1  UNL1        0.0016
      7 C          -7.7956  -15.1033   26.0871 C.ar    1  UNL1        0.0016
      8 C          -8.0065  -15.9539   24.8698 C.ar    1  UNL1        0.0188
      9 C          -6.8354  -16.6131   24.2035 C.ar    1  UNL1        0.0789
     10 C          -4.7370  -18.7305   21.7177 C.3     1  UNL1        0.1199
     11 C          -5.5131  -19.9235   21.2439 C.3     1  UNL1        0.0871
     12 N          -4.9587  -20.7952   20.1564 N.3     1  UNL1       -0.2957
     13 C          -3.6283  -20.4739   19.5426 C.3     1  UNL1        0.0804
     14 C          -2.8523  -19.2810   20.0164 C.3     1  UNL1        0.0750
     15 S          -3.4066  -18.4093   21.1040 S.3     1  UNL1       -0.1306
     16 H          -5.6414  -20.7905   19.3985 H       1  UNL1        0.1233
     17 C          -7.8783  -17.9527   22.1388 C.3     1  UNL1        0.1339
     18 F         -13.3820  -18.4423   24.4774 F       1  UNL1       -0.2042
     19 C         -12.0060  -18.3199   23.8928 C.ar    1  UNL1        0.1401
     20 C         -11.7110  -17.2461   22.8879 C.ar    1  UNL1        0.0294
     21 C         -10.3350  -17.1237   22.3032 C.ar    1  UNL1       -0.0001
     22 C          -9.2541  -18.0751   22.7235 C.ar    1  UNL1        0.0006
     23 C          -9.5493  -19.1489   23.7284 C.ar    1  UNL1       -0.0001
     24 C         -10.9252  -19.2713   24.3130 C.ar    1  UNL1        0.0294
@<TRIPOS>BOND
     1    18    19    1
     2    19    20   ar
     3    20    21   ar
     4    21    22   ar
     5    22    17    1
     6    17     1    1
     7     1     2   ar
     8    10     2    1
     9    10    11    1
    10    11    12    1
    11    12    13    1
    12    13    14    1
    13    14    15    1
    14     2     3   ar
    15     3     4   ar
    16     4     5   ar
    17     5     6   ar
    18     6     7   ar
    19     7     8   ar
    20     8     9   ar
    21    22    23   ar
    22    23    24   ar
    23    24    19   ar
    24     9     1   ar
    25    15    10    1
    26     9     4   ar
    27    12    16    1
@<TRIPOS>MOLECULE
*****
 24 27 0 0 0
SMALL
GASTEIGER

@<TRIPOS>ATOM
      1 N         -14.8521   -4.7342   19.5994 N.ar    1  UNL1       -0.3100
      2 C         -15.8530   -5.6411   18.9471 C.ar    1  UNL1        0.1317
      3 N         -17.0394   -4.8132   18.5507 N.ar    1  UNL1       -0.2300
      4 C         -16.7716   -3.3946   18.9581 C.ar    1  UNL1        0.0984
      5 C         -17.5841   -2.1411   18.8226 C.ar    1  UNL1        0.0206
      6 C         -17.0448   -0.8387   19.3352 C.ar    1  UNL1        0.0016
      7 C         -15.6929   -0.7898   19.9833 C.ar    1  UNL1        0.0016
      8 C         -14.8804   -2.0434   20.1189 C.ar    1  UNL1        0.0188
      9 C         -15.4198   -3.3458   19.6062 C.ar    1  UNL1        0.0789
     10 C         -15.6953   -7.1168   18.7294 C.3     1  UNL1        0.1199
     11 C         -16.3412   -8.0874   19.6731 C.3     1  UNL1        0.0871
     12 N         -16.1835   -9.5631   19.4554 N.3     1  UNL1       -0.2957
     13 C         -15.3799  -10.0682   18.2939 C.3     1  UNL1        0.0804
     14 C         -14.7340   -9.0976   17.3502 C.3     1  UNL1        0.0750
     15 S         -14.8917   -7.6219   17.5679 S.3     1  UNL1       -0.1306
     16 H         -17.1227   -9.9477   19.3530 H       1  UNL1        0.1233
     17 C         -13.5176   -5.1437   20.1486 C.3     1  UNL1        0.1339
     18 F          -8.5837   -4.5692   16.7832 F       1  UNL1       -0.2042
     19 C          -9.8172   -4.7128   17.6245 C.ar    1  UNL1        0.1401
     20 C         -10.3437   -6.0775   17.9568 C.ar    1  UNL1        0.0294
     21 C         -11.5772   -6.2211   18.7982 C.ar    1  UNL1       -0.0001
     22 C         -12.2842   -5.0001   19.3073 C.ar    1  UNL1        0.0006
     23 C         -11.7577   -3.6354   18.9750 C.ar    1  UNL1       -0.0001
     24 C         -10.5242   -3.4918   18.1336 C.ar    1  UNL1        0.0294
@<TRIPOS>BOND
     1    18    19    1
     2    19    20   ar
     3    20    21   ar
     4    21    22   ar
     5    22    17    1
     6    17     1    1
     7     1     2   ar
     8    10     2    1
     9    10    11    1
    10    11    12    1
    11    12    13    1
    12    13    14    1
    13    14    15    1
    14     2     3   ar
    15     3     4   ar
    16     4     5   ar
    17     5     6   ar
    18     6     7   ar
    19     7     8   ar
    20     8     9   ar
    21    22    23   ar
    22    23    24   ar
    23    24    19   ar
    24     9     1   ar
    25    15    10    1
    26     9     4   ar
    27    12    16    1
