@<TRIPOS>MOLECULE
*****
 32 34 0 0 0
SMALL
GASTEIGER

@<TRIPOS>ATOM
      1 C         -10.2880  -16.4773   23.5463 C.ar    1  UNL1        0.0283
      2 C          -9.6310  -17.8222   23.4500 C.ar    1  UNL1        0.0365
      3 C         -10.3447  -18.9595   22.7814 C.ar    1  UNL1        0.1390
      4 C         -11.7155  -18.7519   22.2090 C.ar    1  UNL1        0.0392
      5 C         -12.3726  -17.4069   22.3052 C.ar    1  UNL1        0.0325
      6 C         -11.6588  -16.2696   22.9739 C.ar    1  UNL1        0.1379
      7 F         -12.3160  -14.9246   23.0701 F       1  UNL1       -0.2044
      8 C          -9.5743  -15.3400   24.2150 C.3     1  UNL1        0.1261
      9 C          -7.2136  -15.2561   23.1332 C.2     1  UNL1        0.4055
     10 O          -7.8399  -15.1150   21.7775 O.2     1  UNL1       -0.2262
     11 N          -8.0808  -15.3686   24.3519 N.am    1  UNL1       -0.2365
     12 C          -5.0243  -16.5641   23.6296 C.3     1  UNL1        0.2573
     13 O          -5.7202  -15.2847   23.2701 O.3     1  UNL1       -0.4304
     14 C          -7.4546  -15.5096   25.7076 C.3     1  UNL1        0.1388
     15 C          -8.3092  -15.8245   26.8995 C.2     1  UNL1        0.0706
     16 O          -8.8001  -17.2244   27.1216 O.co2   1  UNL1       -0.5474
     17 O          -8.6729  -14.7395   27.8692 O.co2   1  UNL1       -0.5474
     18 O          -9.6876  -20.3045   22.6852 O.3     1  UNL1       -0.4689
     19 C          -8.2120  -20.4368   22.9198 C.3     1  UNL1        0.2537
     20 C          -7.2410  -19.9179   21.9010 C.ar    1  UNL1        0.1359
     21 N          -5.7757  -19.6832   22.1191 N.ar    1  UNL1       -0.2093
     22 C          -5.1939  -19.1629   20.8381 C.ar    1  UNL1        0.2290
     23 O          -6.2998  -19.0760   19.8284 O.2     1  UNL1       -0.4391
     24 C          -7.5650  -19.5427   20.4853 C.ar    1  UNL1        0.1421
     25 C          -8.9167  -19.6204   19.8398 C.3     1  UNL1        0.0740
     26 C          -3.7584  -18.7941   20.6074 C.ar    1  UNL1        0.0536
     27 C          -3.2924  -18.4178   19.2322 C.ar    1  UNL1        0.0055
     28 C          -1.8568  -18.0491   19.0014 C.ar    1  UNL1        0.0115
     29 C          -0.8872  -18.0566   20.1460 C.ar    1  UNL1        0.0577
     30 CL          0.5483  -17.6879   19.9152 Cl      1  UNL1       -0.0822
     31 C          -1.3533  -18.4329   21.5212 C.ar    1  UNL1        0.0115
     32 C          -2.7888  -18.8017   21.7519 C.ar    1  UNL1        0.0055
@<TRIPOS>UNITY_ATOM_ATTR
16 1
charge -1
@<TRIPOS>BOND
     1    12    13    1
     2    13     9    1
     3     9    10    2
     4     9    11   am
     5    11    14    1
     6    14    15    1
     7    15    16   ar
     8    15    17   ar
     9    11     8    1
    10     8     1    1
    11     1     2   ar
    12     2     3   ar
    13     3    18    1
    14    18    19    1
    15    19    20    1
    16    20    21   ar
    17    21    22   ar
    18    22    26    1
    19    26    27   ar
    20    27    28   ar
    21    28    29   ar
    22    29    30    1
    23    29    31   ar
    24    31    32   ar
    25    22    23   ar
    26    23    24   ar
    27    24    25    1
    28     3     4   ar
    29     4     5   ar
    30     5     6   ar
    31     6     7    1
    32     6     1   ar
    33    24    20   ar
    34    32    26   ar
@<TRIPOS>MOLECULE
*****
 32 34 0 0 0
SMALL
GASTEIGER

@<TRIPOS>ATOM
      1 C         -10.7260  -18.1496   23.4471 C.ar    1  UNL1        0.0283
      2 C         -10.1784  -16.7791   23.7153 C.ar    1  UNL1        0.0365
      3 C          -9.4368  -16.5039   24.9898 C.ar    1  UNL1        0.1390
      4 C          -9.2428  -17.5992   25.9961 C.ar    1  UNL1        0.0392
      5 C          -9.7904  -18.9696   25.7279 C.ar    1  UNL1        0.0325
      6 C         -10.5320  -19.2448   24.4535 C.ar    1  UNL1        0.1379
      7 F         -11.0797  -20.6154   24.1854 F       1  UNL1       -0.2044
      8 C         -11.4676  -18.4248   22.1726 C.3     1  UNL1        0.1261
      9 C          -9.4285  -19.0362   20.6832 C.2     1  UNL1        0.4055
     10 O          -8.8223  -19.7967   21.8253 O.2     1  UNL1       -0.2262
     11 N         -10.7512  -18.3502   20.8570 N.am    1  UNL1       -0.2365
     12 C          -8.4681  -20.2113   18.5745 C.3     1  UNL1        0.2573
     13 O          -8.7121  -18.9616   19.3676 O.3     1  UNL1       -0.4304
     14 C         -11.3573  -17.5898   19.7149 C.3     1  UNL1        0.1388
     15 C         -11.3104  -16.0905   19.7033 C.2     1  UNL1        0.0706
     16 O         -12.3844  -15.3119   19.0031 O.co2   1  UNL1       -0.5474
     17 O         -10.1894  -15.3699   20.3919 O.co2   1  UNL1       -0.5474
     18 O          -8.8892  -15.1334   25.2579 O.3     1  UNL1       -0.4689
     19 C          -7.7516  -14.6060   24.4346 C.3     1  UNL1        0.2537
     20 C          -6.4498  -15.3499   24.3903 C.ar    1  UNL1        0.1359
     21 N          -5.6816  -15.7097   23.1532 N.ar    1  UNL1       -0.2093
     22 C          -4.4447  -16.4467   23.5737 C.ar    1  UNL1        0.2290
     23 O          -4.4484  -16.5424   25.0707 O.2     1  UNL1       -0.4391
     24 C          -5.6877  -15.8645   25.5753 C.ar    1  UNL1        0.1421
     25 C          -6.0936  -15.7257   27.0127 C.3     1  UNL1        0.0740
     26 C          -3.3893  -16.9923   22.6580 C.ar    1  UNL1        0.0536
     27 C          -2.4375  -16.0589   21.9702 C.ar    1  UNL1        0.0055
     28 C          -1.3821  -16.6043   21.0545 C.ar    1  UNL1        0.0115
     29 C          -1.2784  -18.0834   20.8266 C.ar    1  UNL1        0.0577
     30 CL         -0.2230  -18.6289   19.9109 Cl      1  UNL1       -0.0822
     31 C          -2.2302  -19.0167   21.5143 C.ar    1  UNL1        0.0115
     32 C          -3.2856  -18.4712   22.4300 C.ar    1  UNL1        0.0055
@<TRIPOS>UNITY_ATOM_ATTR
16 1
charge -1
@<TRIPOS>BOND
     1    12    13    1
     2    13     9    1
     3     9    10    2
     4     9    11   am
     5    11    14    1
     6    14    15    1
     7    15    16   ar
     8    15    17   ar
     9    11     8    1
    10     8     1    1
    11     1     2   ar
    12     2     3   ar
    13     3    18    1
    14    18    19    1
    15    19    20    1
    16    20    21   ar
    17    21    22   ar
    18    22    26    1
    19    26    27   ar
    20    27    28   ar
    21    28    29   ar
    22    29    30    1
    23    29    31   ar
    24    31    32   ar
    25    22    23   ar
    26    23    24   ar
    27    24    25    1
    28     3     4   ar
    29     4     5   ar
    30     5     6   ar
    31     6     7    1
    32     6     1   ar
    33    24    20   ar
    34    32    26   ar
@<TRIPOS>MOLECULE
*****
 32 34 0 0 0
SMALL
GASTEIGER

@<TRIPOS>ATOM
      1 C         -10.7852  -17.0717   22.6283 C.ar    1  UNL1        0.0283
      2 C          -9.9703  -17.8778   21.6608 C.ar    1  UNL1        0.0365
      3 C         -10.3302  -17.8896   20.2047 C.ar    1  UNL1        0.1390
      4 C         -11.5050  -17.0953   19.7160 C.ar    1  UNL1        0.0392
      5 C         -12.3199  -16.2892   20.6835 C.ar    1  UNL1        0.0325
      6 C         -11.9600  -16.2774   22.1396 C.ar    1  UNL1        0.1379
      7 F         -12.7750  -15.4712   23.1071 F       1  UNL1       -0.2044
      8 C         -10.4253  -17.0599   24.0844 C.3     1  UNL1        0.1261
      9 C          -8.5604  -16.6757   25.8520 C.2     1  UNL1        0.4055
     10 O          -9.1216  -17.7888   26.6862 O.2     1  UNL1       -0.2262
     11 N          -9.2122  -16.3112   24.5511 N.am    1  UNL1       -0.2365
     12 C          -7.3890  -15.1599   27.6072 C.3     1  UNL1        0.2573
     13 O          -7.3473  -15.9270   26.3187 O.3     1  UNL1       -0.4304
     14 C          -8.6510  -15.1980   23.7170 C.3     1  UNL1        0.1388
     15 C          -7.6251  -15.4941   22.6634 C.2     1  UNL1        0.0706
     16 O          -6.5107  -16.4560   22.9510 O.co2   1  UNL1       -0.5474
     17 O          -7.7137  -14.8283   21.3222 O.co2   1  UNL1       -0.5474
     18 O          -9.5152  -18.6958   19.2372 O.3     1  UNL1       -0.4689
     19 C          -8.7342  -19.8818   19.7205 C.3     1  UNL1        0.2537
     20 C          -7.4245  -19.6814   20.4237 C.ar    1  UNL1        0.1359
     21 N          -6.1503  -19.2016   19.7944 N.ar    1  UNL1       -0.2093
     22 C          -5.0973  -19.1493   20.8614 C.ar    1  UNL1        0.2290
     23 O          -5.7208  -19.5967   22.1503 O.2     1  UNL1       -0.4391
     24 C          -7.1591  -19.9255   21.8798 C.ar    1  UNL1        0.1421
     25 C          -8.1568  -20.4129   22.8882 C.3     1  UNL1        0.0740
     26 C          -3.6712  -18.7241   20.6728 C.ar    1  UNL1        0.0536
     27 C          -2.7654  -18.5894   21.8607 C.ar    1  UNL1        0.0055
     28 C          -1.3393  -18.1642   21.6721 C.ar    1  UNL1        0.0115
     29 C          -0.8191  -17.8739   20.2954 C.ar    1  UNL1        0.0577
     30 CL          0.6070  -17.4488   20.1068 Cl      1  UNL1       -0.0822
     31 C          -1.7249  -18.0087   19.1075 C.ar    1  UNL1        0.0115
     32 C          -3.1510  -18.4338   19.2962 C.ar    1  UNL1        0.0055
@<TRIPOS>UNITY_ATOM_ATTR
16 1
charge -1
@<TRIPOS>BOND
     1    12    13    1
     2    13     9    1
     3     9    10    2
     4     9    11   am
     5    11    14    1
     6    14    15    1
     7    15    16   ar
     8    15    17   ar
     9    11     8    1
    10     8     1    1
    11     1     2   ar
    12     2     3   ar
    13     3    18    1
    14    18    19    1
    15    19    20    1
    16    20    21   ar
    17    21    22   ar
    18    22    26    1
    19    26    27   ar
    20    27    28   ar
    21    28    29   ar
    22    29    30    1
    23    29    31   ar
    24    31    32   ar
    25    22    23   ar
    26    23    24   ar
    27    24    25    1
    28     3     4   ar
    29     4     5   ar
    30     5     6   ar
    31     6     7    1
    32     6     1   ar
    33    24    20   ar
    34    32    26   ar
@<TRIPOS>MOLECULE
*****
 32 34 0 0 0
SMALL
GASTEIGER

@<TRIPOS>ATOM
      1 C         -10.0896  -17.4600   23.8627 C.ar    1  UNL1        0.0283
      2 C         -10.5776  -17.6675   22.4596 C.ar    1  UNL1        0.0365
      3 C         -11.0193  -19.0296   22.0128 C.ar    1  UNL1        0.1390
      4 C         -10.9729  -20.1842   22.9691 C.ar    1  UNL1        0.0392
      5 C         -10.4849  -19.9768   24.3722 C.ar    1  UNL1        0.0325
      6 C         -10.0432  -18.6147   24.8190 C.ar    1  UNL1        0.1379
      7 F          -9.5551  -18.4073   26.2222 F       1  UNL1       -0.2044
      8 C          -9.6479  -16.0980   24.3095 C.3     1  UNL1        0.1261
      9 C          -7.2677  -15.2543   23.6987 C.2     1  UNL1        0.4055
     10 O          -7.7506  -14.8847   22.3275 O.2     1  UNL1       -0.2262
     11 N          -8.2164  -15.8609   24.6897 N.am    1  UNL1       -0.2365
     12 C          -4.8244  -16.1118   23.9108 C.3     1  UNL1        0.2573
     13 O          -5.8362  -15.0173   24.0790 O.3     1  UNL1       -0.4304
     14 C          -7.7335  -16.2305   26.0610 C.3     1  UNL1        0.1388
     15 C          -7.5707  -15.1705   27.1098 C.2     1  UNL1        0.0706
     16 O          -8.7699  -14.6586   27.8512 O.co2   1  UNL1       -0.5474
     17 O          -6.2086  -14.6225   27.4170 O.co2   1  UNL1       -0.5474
     18 O         -11.5074  -19.2370   20.6097 O.3     1  UNL1       -0.4689
     19 C         -10.6081  -18.9284   19.4495 C.3     1  UNL1        0.2537
     20 C          -9.1826  -19.3953   19.4606 C.ar    1  UNL1        0.1359
     21 N          -8.0687  -18.8076   20.2753 N.ar    1  UNL1       -0.2093
     22 C          -6.8185  -19.5810   19.9772 C.ar    1  UNL1        0.2290
     23 O          -7.1597  -20.6466   18.9781 O.2     1  UNL1       -0.4391
     24 C          -8.6208  -20.5319   18.6589 C.ar    1  UNL1        0.1421
     25 C          -9.3859  -21.4011   17.7054 C.3     1  UNL1        0.0740
     26 C          -5.4647  -19.3323   20.5734 C.ar    1  UNL1        0.0536
     27 C          -4.3234  -18.9140   19.6944 C.ar    1  UNL1        0.0055
     28 C          -2.9696  -18.6653   20.2905 C.ar    1  UNL1        0.0115
     29 C          -2.7571  -18.8350   21.7658 C.ar    1  UNL1        0.0577
     30 CL         -1.4033  -18.5864   22.3620 Cl      1  UNL1       -0.0822
     31 C          -3.8984  -19.2533   22.6447 C.ar    1  UNL1        0.0115
     32 C          -5.2522  -19.5020   22.0485 C.ar    1  UNL1        0.0055
@<TRIPOS>UNITY_ATOM_ATTR
16 1
charge -1
@<TRIPOS>BOND
     1    12    13    1
     2    13     9    1
     3     9    10    2
     4     9    11   am
     5    11    14    1
     6    14    15    1
     7    15    16   ar
     8    15    17   ar
     9    11     8    1
    10     8     1    1
    11     1     2   ar
    12     2     3   ar
    13     3    18    1
    14    18    19    1
    15    19    20    1
    16    20    21   ar
    17    21    22   ar
    18    22    26    1
    19    26    27   ar
    20    27    28   ar
    21    28    29   ar
    22    29    30    1
    23    29    31   ar
    24    31    32   ar
    25    22    23   ar
    26    23    24   ar
    27    24    25    1
    28     3     4   ar
    29     4     5   ar
    30     5     6   ar
    31     6     7    1
    32     6     1   ar
    33    24    20   ar
    34    32    26   ar
@<TRIPOS>MOLECULE
*****
 32 34 0 0 0
SMALL
GASTEIGER

@<TRIPOS>ATOM
      1 C          -5.0159  -19.8845   21.0956 C.ar    1  UNL1        0.0283
      2 C          -5.0213  -18.8720   22.2023 C.ar    1  UNL1        0.0365
      3 C          -3.7978  -18.0463   22.4695 C.ar    1  UNL1        0.1390
      4 C          -2.5689  -18.2332   21.6301 C.ar    1  UNL1        0.0392
      5 C          -2.5634  -19.2457   20.5234 C.ar    1  UNL1        0.0325
      6 C          -3.7869  -20.0713   20.2562 C.ar    1  UNL1        0.1379
      7 F          -3.7814  -21.0839   19.1494 F       1  UNL1       -0.2044
      8 C          -6.2393  -20.7101   20.8284 C.3     1  UNL1        0.1261
      9 C          -8.4962  -19.6886   21.6116 C.2     1  UNL1        0.4055
     10 O          -8.1476  -20.0099   23.0348 O.2     1  UNL1       -0.2262
     11 N          -7.5420  -20.0388   20.5084 N.am    1  UNL1       -0.2365
     12 C         -11.0551  -19.8300   21.1853 C.3     1  UNL1        0.2573
     13 O          -9.7988  -19.0173   21.2917 O.3     1  UNL1       -0.4304
     14 C          -7.8905  -19.7175   19.0853 C.3     1  UNL1        0.1388
     15 C          -8.8733  -20.5733   18.3423 C.2     1  UNL1        0.0706
     16 O          -8.4731  -21.9409   17.8740 O.co2   1  UNL1       -0.5474
     17 O         -10.2562  -20.0613   18.0677 O.co2   1  UNL1       -0.5474
     18 O          -3.8034  -17.0338   23.5763 O.3     1  UNL1       -0.4689
     19 C          -4.7411  -15.8644   23.5183 C.3     1  UNL1        0.2537
     20 C          -6.1209  -15.9803   24.0949 C.ar    1  UNL1        0.1359
     21 N          -7.3242  -16.5407   23.3963 N.ar    1  UNL1       -0.2093
     22 C          -8.4867  -16.4628   24.3410 C.ar    1  UNL1        0.2290
     23 O          -8.0019  -15.8542   25.6235 O.2     1  UNL1       -0.4391
     24 C          -6.5398  -15.5560   25.4713 C.ar    1  UNL1        0.1421
     25 C          -5.6523  -14.9414   26.5128 C.3     1  UNL1        0.0740
     26 C          -9.8881  -16.9143   24.0537 C.ar    1  UNL1        0.0536
     27 C         -10.4423  -18.1252   24.7440 C.ar    1  UNL1        0.0055
     28 C         -11.8436  -18.5767   24.4568 C.ar    1  UNL1        0.0115
     29 C         -12.6907  -17.8171   23.4792 C.ar    1  UNL1        0.0577
     30 CL        -14.0920  -18.2686   23.1919 Cl      1  UNL1       -0.0822
     31 C         -12.1365  -16.6062   22.7889 C.ar    1  UNL1        0.0115
     32 C         -10.7351  -16.1548   23.0762 C.ar    1  UNL1        0.0055
@<TRIPOS>UNITY_ATOM_ATTR
16 1
charge -1
@<TRIPOS>BOND
     1    12    13    1
     2    13     9    1
     3     9    10    2
     4     9    11   am
     5    11    14    1
     6    14    15    1
     7    15    16   ar
     8    15    17   ar
     9    11     8    1
    10     8     1    1
    11     1     2   ar
    12     2     3   ar
    13     3    18    1
    14    18    19    1
    15    19    20    1
    16    20    21   ar
    17    21    22   ar
    18    22    26    1
    19    26    27   ar
    20    27    28   ar
    21    28    29   ar
    22    29    30    1
    23    29    31   ar
    24    31    32   ar
    25    22    23   ar
    26    23    24   ar
    27    24    25    1
    28     3     4   ar
    29     4     5   ar
    30     5     6   ar
    31     6     7    1
    32     6     1   ar
    33    24    20   ar
    34    32    26   ar
@<TRIPOS>MOLECULE
*****
 32 34 0 0 0
SMALL
GASTEIGER

@<TRIPOS>ATOM
      1 C          -9.1176  -18.9213   20.7192 C.ar    1  UNL1        0.0283
      2 C          -7.7019  -19.2098   21.1221 C.ar    1  UNL1        0.0365
      3 C          -6.8496  -20.1084   20.2758 C.ar    1  UNL1        0.1390
      4 C          -7.4131  -20.7184   19.0267 C.ar    1  UNL1        0.0392
      5 C          -8.8289  -20.4299   18.6239 C.ar    1  UNL1        0.0325
      6 C          -9.6811  -19.5313   19.4702 C.ar    1  UNL1        0.1379
      7 F         -11.0970  -19.2429   19.0673 F       1  UNL1       -0.2044
      8 C          -9.9699  -18.0227   21.5655 C.3     1  UNL1        0.1261
      9 C         -11.9527  -17.8008   23.2297 C.2     1  UNL1        0.4055
     10 O         -12.2217  -16.4144   22.7244 O.2     1  UNL1       -0.2262
     11 N         -10.8268  -18.6050   22.6502 N.am    1  UNL1       -0.2365
     12 C         -14.2913  -18.1493   24.3066 C.3     1  UNL1        0.2573
     13 O         -12.8096  -18.3831   24.3144 O.3     1  UNL1       -0.4304
     14 C         -10.5578  -19.9915   23.1556 C.3     1  UNL1        0.1388
     15 C          -9.8284  -20.1891   24.4514 C.2     1  UNL1        0.0706
     16 O          -9.2230  -21.5226   24.7754 O.co2   1  UNL1       -0.5474
     17 O          -9.7046  -19.0531   25.4231 O.co2   1  UNL1       -0.5474
     18 O          -5.4337  -20.3969   20.6786 O.3     1  UNL1       -0.4689
     19 C          -4.4204  -19.2911   20.7017 C.3     1  UNL1        0.2537
     20 C          -4.4801  -18.2413   21.7713 C.ar    1  UNL1        0.1359
     21 N          -5.6320  -17.9927   22.6994 N.ar    1  UNL1       -0.2093
     22 C          -5.2622  -16.8535   23.6024 C.ar    1  UNL1        0.2290
     23 O          -3.8816  -16.3980   23.2324 O.2     1  UNL1       -0.4391
     24 C          -3.3983  -17.2557   22.1007 C.ar    1  UNL1        0.1421
     25 C          -2.0670  -17.1470   21.4183 C.3     1  UNL1        0.0740
     26 C          -6.1219  -16.2718   24.6853 C.ar    1  UNL1        0.0536
     27 C          -5.5025  -15.8267   25.9769 C.ar    1  UNL1        0.0055
     28 C          -6.3621  -15.2451   27.0598 C.ar    1  UNL1        0.0115
     29 C          -7.8413  -15.1085   26.8510 C.ar    1  UNL1        0.0577
     30 CL         -8.7010  -14.5269   27.9339 Cl      1  UNL1       -0.0822
     31 C          -8.4607  -15.5536   25.5594 C.ar    1  UNL1        0.0115
     32 C          -7.6010  -16.1352   24.4765 C.ar    1  UNL1        0.0055
@<TRIPOS>UNITY_ATOM_ATTR
16 1
charge -1
@<TRIPOS>BOND
     1    12    13    1
     2    13     9    1
     3     9    10    2
     4     9    11   am
     5    11    14    1
     6    14    15    1
     7    15    16   ar
     8    15    17   ar
     9    11     8    1
    10     8     1    1
    11     1     2   ar
    12     2     3   ar
    13     3    18    1
    14    18    19    1
    15    19    20    1
    16    20    21   ar
    17    21    22   ar
    18    22    26    1
    19    26    27   ar
    20    27    28   ar
    21    28    29   ar
    22    29    30    1
    23    29    31   ar
    24    31    32   ar
    25    22    23   ar
    26    23    24   ar
    27    24    25    1
    28     3     4   ar
    29     4     5   ar
    30     5     6   ar
    31     6     7    1
    32     6     1   ar
    33    24    20   ar
    34    32    26   ar
@<TRIPOS>MOLECULE
*****
 32 34 0 0 0
SMALL
GASTEIGER

@<TRIPOS>ATOM
      1 C         -10.1095  -17.2547   24.2721 C.ar    1  UNL1        0.0283
      2 C         -10.6777  -17.3712   22.8888 C.ar    1  UNL1        0.0365
      3 C         -10.9315  -18.7245   22.2938 C.ar    1  UNL1        0.1390
      4 C         -10.6172  -19.9613   23.0821 C.ar    1  UNL1        0.0392
      5 C         -10.0490  -19.8448   24.4654 C.ar    1  UNL1        0.0325
      6 C          -9.7952  -18.4915   25.0604 C.ar    1  UNL1        0.1379
      7 F          -9.2270  -18.3750   26.4438 F       1  UNL1       -0.2044
      8 C          -9.8557  -15.9013   24.8671 C.3     1  UNL1        0.1261
      9 C          -7.7727  -15.5382   26.3769 C.2     1  UNL1        0.4055
     10 O          -8.5032  -16.1544   27.5330 O.2     1  UNL1       -0.2262
     11 N          -8.4490  -15.4116   25.0439 N.am    1  UNL1       -0.2365
     12 C          -5.2166  -15.8717   26.0522 C.3     1  UNL1        0.2573
     13 O          -6.3660  -15.0485   26.5537 O.3     1  UNL1       -0.4304
     14 C          -7.7184  -14.7954   23.8878 C.3     1  UNL1        0.1388
     15 C          -7.3953  -15.6218   22.6784 C.2     1  UNL1        0.0706
     16 O          -8.0445  -15.3111   21.3624 O.co2   1  UNL1       -0.5474
     17 O          -6.4229  -16.7590   22.7851 O.co2   1  UNL1       -0.5474
     18 O         -11.4998  -18.8410   20.9105 O.3     1  UNL1       -0.4689
     19 C         -10.6340  -18.5609   19.7180 C.3     1  UNL1        0.2537
     20 C          -9.2413  -19.1146   19.6557 C.ar    1  UNL1        0.1359
     21 N          -8.0535  -18.6008   20.4142 N.ar    1  UNL1       -0.2093
     22 C          -6.8700  -19.4479   20.0512 C.ar    1  UNL1        0.2290
     23 O          -7.3263  -20.4853   19.0685 O.2     1  UNL1       -0.4391
     24 C          -8.7919  -20.2792   18.8240 C.ar    1  UNL1        0.1421
     25 C          -9.6562  -21.0947   17.9086 C.3     1  UNL1        0.0740
     26 C          -5.4751  -19.2861   20.5785 C.ar    1  UNL1        0.0536
     27 C          -4.3608  -18.9079   19.6482 C.ar    1  UNL1        0.0055
     28 C          -2.9658  -18.7461   20.1754 C.ar    1  UNL1        0.0115
     29 C          -2.6852  -18.9625   21.6330 C.ar    1  UNL1        0.0577
     30 CL         -1.2902  -18.8007   22.1603 Cl      1  UNL1       -0.0822
     31 C          -3.7994  -19.3407   22.5633 C.ar    1  UNL1        0.0115
     32 C          -5.1944  -19.5025   22.0360 C.ar    1  UNL1        0.0055
@<TRIPOS>UNITY_ATOM_ATTR
16 1
charge -1
@<TRIPOS>BOND
     1    12    13    1
     2    13     9    1
     3     9    10    2
     4     9    11   am
     5    11    14    1
     6    14    15    1
     7    15    16   ar
     8    15    17   ar
     9    11     8    1
    10     8     1    1
    11     1     2   ar
    12     2     3   ar
    13     3    18    1
    14    18    19    1
    15    19    20    1
    16    20    21   ar
    17    21    22   ar
    18    22    26    1
    19    26    27   ar
    20    27    28   ar
    21    28    29   ar
    22    29    30    1
    23    29    31   ar
    24    31    32   ar
    25    22    23   ar
    26    23    24   ar
    27    24    25    1
    28     3     4   ar
    29     4     5   ar
    30     5     6   ar
    31     6     7    1
    32     6     1   ar
    33    24    20   ar
    34    32    26   ar
@<TRIPOS>MOLECULE
*****
 32 34 0 0 0
SMALL
GASTEIGER

@<TRIPOS>ATOM
      1 C          -6.6078  -20.1129   21.5348 C.ar    1  UNL1        0.0283
      2 C          -5.1959  -20.2361   22.0261 C.ar    1  UNL1        0.0365
      3 C          -4.0519  -19.9371   21.1033 C.ar    1  UNL1        0.1390
      4 C          -4.3196  -19.5148   19.6891 C.ar    1  UNL1        0.0392
      5 C          -5.7314  -19.3916   19.1977 C.ar    1  UNL1        0.0325
      6 C          -6.8755  -19.6906   20.1206 C.ar    1  UNL1        0.1379
      7 F          -8.2874  -19.5673   19.6292 F       1  UNL1       -0.2044
      8 C          -7.7519  -20.4119   22.4576 C.3     1  UNL1        0.1261
      9 C          -9.5548  -19.5315   24.1082 C.2     1  UNL1        0.4055
     10 O          -9.6085  -20.8777   24.7676 O.2     1  UNL1       -0.2262
     11 N          -8.6265  -19.2986   22.9531 N.am    1  UNL1       -0.2365
     12 C         -11.9179  -18.5034   24.4384 C.3     1  UNL1        0.2573
     13 O         -10.4294  -18.4182   24.6037 O.3     1  UNL1       -0.4304
     14 C          -8.5728  -17.9524   22.2937 C.3     1  UNL1        0.1388
     15 C          -9.7464  -17.4584   21.5007 C.2     1  UNL1        0.0706
     16 O          -9.8290  -16.0142   21.1040 O.co2   1  UNL1       -0.5474
     17 O         -10.8373  -18.4086   21.1045 O.co2   1  UNL1       -0.5474
     18 O          -2.6399  -20.0604   21.5947 O.3     1  UNL1       -0.4689
     19 C          -2.0176  -18.9418   22.3766 C.3     1  UNL1        0.2537
     20 C          -2.8540  -17.7754   22.8123 C.ar    1  UNL1        0.1359
     21 N          -3.9284  -17.8028   23.8587 N.ar    1  UNL1       -0.2093
     22 C          -4.5013  -16.4211   23.9713 C.ar    1  UNL1        0.2290
     23 O          -3.7809  -15.5396   22.9944 O.2     1  UNL1       -0.4391
     24 C          -2.7629  -16.3766   22.2782 C.ar    1  UNL1        0.1421
     25 C          -1.8193  -15.8988   21.2146 C.3     1  UNL1        0.0740
     26 C          -5.6014  -15.9956   24.8979 C.ar    1  UNL1        0.0536
     27 C          -6.9855  -15.7707   24.3655 C.ar    1  UNL1        0.0055
     28 C          -8.0857  -15.3451   25.2921 C.ar    1  UNL1        0.0115
     29 C          -7.8015  -15.1444   26.7513 C.ar    1  UNL1        0.0577
     30 CL         -8.9016  -14.7188   27.6780 Cl      1  UNL1       -0.0822
     31 C          -6.4174  -15.3693   27.2837 C.ar    1  UNL1        0.0115
     32 C          -5.3173  -15.7949   26.3570 C.ar    1  UNL1        0.0055
@<TRIPOS>UNITY_ATOM_ATTR
16 1
charge -1
@<TRIPOS>BOND
     1    12    13    1
     2    13     9    1
     3     9    10    2
     4     9    11   am
     5    11    14    1
     6    14    15    1
     7    15    16   ar
     8    15    17   ar
     9    11     8    1
    10     8     1    1
    11     1     2   ar
    12     2     3   ar
    13     3    18    1
    14    18    19    1
    15    19    20    1
    16    20    21   ar
    17    21    22   ar
    18    22    26    1
    19    26    27   ar
    20    27    28   ar
    21    28    29   ar
    22    29    30    1
    23    29    31   ar
    24    31    32   ar
    25    22    23   ar
    26    23    24   ar
    27    24    25    1
    28     3     4   ar
    29     4     5   ar
    30     5     6   ar
    31     6     7    1
    32     6     1   ar
    33    24    20   ar
    34    32    26   ar
@<TRIPOS>MOLECULE
*****
 32 34 0 0 0
SMALL
GASTEIGER

@<TRIPOS>ATOM
      1 C          -8.4192  -19.4336   21.4590 C.ar    1  UNL1        0.0283
      2 C          -6.9776  -19.6299   21.8242 C.ar    1  UNL1        0.0365
      3 C          -5.9977  -20.0937   20.7876 C.ar    1  UNL1        0.1390
      4 C          -6.4593  -20.3612   19.3857 C.ar    1  UNL1        0.0392
      5 C          -7.9008  -20.1649   19.0204 C.ar    1  UNL1        0.0325
      6 C          -8.8807  -19.7011   20.0571 C.ar    1  UNL1        0.1379
      7 F         -10.3223  -19.5047   19.6917 F       1  UNL1       -0.2044
      8 C          -9.3991  -18.9698   22.4956 C.3     1  UNL1        0.1261
      9 C         -10.1293  -16.6642   21.5461 C.2     1  UNL1        0.4055
     10 O          -8.6904  -16.2927   21.3417 O.2     1  UNL1       -0.2262
     11 N         -10.4836  -18.0028   22.1230 N.am    1  UNL1       -0.2365
     12 C         -11.8367  -15.7578   19.8102 C.3     1  UNL1        0.2573
     13 O         -11.2137  -15.6973   21.1735 O.3     1  UNL1       -0.4304
     14 C         -11.9224  -18.3743   22.3274 C.3     1  UNL1        0.1388
     15 C         -12.5082  -18.3743   23.7083 C.2     1  UNL1        0.0706
     16 O         -13.9353  -17.9628   23.9176 O.co2   1  UNL1       -0.5474
     17 O         -11.6667  -18.7857   24.8799 O.co2   1  UNL1       -0.5474
     18 O          -4.5561  -20.2901   21.1529 O.3     1  UNL1       -0.4689
     19 C          -3.6305  -19.1113   21.2133 C.3     1  UNL1        0.2537
     20 C          -3.9434  -17.9576   22.1194 C.ar    1  UNL1        0.1359
     21 N          -5.0912  -17.8785   23.0818 N.ar    1  UNL1       -0.2093
     22 C          -5.0206  -16.5525   23.7794 C.ar    1  UNL1        0.2290
     23 O          -3.8291  -15.8120   23.2482 O.2     1  UNL1       -0.4391
     24 C          -3.1634  -16.6805   22.2222 C.ar    1  UNL1        0.1421
     25 C          -1.9336  -16.3328   21.4369 C.3     1  UNL1        0.0740
     26 C          -5.9740  -16.0544   24.8248 C.ar    1  UNL1        0.0536
     27 C          -7.4439  -15.9946   24.5319 C.ar    1  UNL1        0.0055
     28 C          -8.3975  -15.4965   25.5772 C.ar    1  UNL1        0.0115
     29 C          -7.8810  -15.0581   26.9156 C.ar    1  UNL1        0.0577
     30 CL         -8.8344  -14.5599   27.9609 Cl      1  UNL1       -0.0822
     31 C          -6.4111  -15.1178   27.2085 C.ar    1  UNL1        0.0115
     32 C          -5.4576  -15.6159   26.1631 C.ar    1  UNL1        0.0055
@<TRIPOS>UNITY_ATOM_ATTR
16 1
charge -1
@<TRIPOS>BOND
     1    12    13    1
     2    13     9    1
     3     9    10    2
     4     9    11   am
     5    11    14    1
     6    14    15    1
     7    15    16   ar
     8    15    17   ar
     9    11     8    1
    10     8     1    1
    11     1     2   ar
    12     2     3   ar
    13     3    18    1
    14    18    19    1
    15    19    20    1
    16    20    21   ar
    17    21    22   ar
    18    22    26    1
    19    26    27   ar
    20    27    28   ar
    21    28    29   ar
    22    29    30    1
    23    29    31   ar
    24    31    32   ar
    25    22    23   ar
    26    23    24   ar
    27    24    25    1
    28     3     4   ar
    29     4     5   ar
    30     5     6   ar
    31     6     7    1
    32     6     1   ar
    33    24    20   ar
    34    32    26   ar
