@<TRIPOS>MOLECULE
*****
 41 45 0 0 0
SMALL
GASTEIGER

@<TRIPOS>ATOM
      1 C           0.0987    3.0762   20.5142 C.ar    1  UNL1        0.0611
      2 C          -0.9463    4.0582   20.9541 C.ar    1  UNL1        0.1037
      3 N          -1.1345    3.9029   22.4341 N.ar    1  UNL1       -0.2269
      4 C          -0.2058    2.8249   22.9089 C.ar    1  UNL1        0.1407
      5 N           0.0444    2.2426   24.2684 N.ar    1  UNL1       -0.3374
      6 C           1.0566    1.1493   24.4413 C.ar    1  UNL1        0.0735
      7 C           1.8188    0.6383   23.2547 C.ar    1  UNL1        0.0186
      8 C           1.5687    1.2207   21.8952 C.ar    1  UNL1        0.0047
      9 C           0.5564    2.3140   21.7223 C.ar    1  UNL1        0.0386
     10 H          -0.4559    2.5779   25.0472 H       1  UNL1        0.1674
     11 C           2.8311   -0.4550   23.4276 C.ar    1  UNL1        0.0206
     12 C           3.1800   -1.3439   22.2709 C.ar    1  UNL1        0.0033
     13 C           4.1924   -2.4373   22.4438 C.ar    1  UNL1        0.0238
     14 C           4.8558   -2.6417   23.7735 C.ar    1  UNL1        0.1345
     15 N           4.5068   -1.7527   24.9303 N.ar    1  UNL1       -0.2393
     16 C           3.4945   -0.6594   24.7573 C.ar    1  UNL1        0.0990
     17 C           5.8680   -3.7349   23.9465 C.2     1  UNL1        0.2635
     18 O           6.4724   -4.3949   22.7427 O.2     1  UNL1       -0.2685
     19 N           6.2760   -4.1683   25.3234 N.am    1  UNL1       -0.3013
     20 H           5.8794   -3.7351   26.1135 H       1  UNL1        0.1497
     21 C           7.2883   -5.2616   25.4964 C.3     1  UNL1        0.0720
     22 C           8.7151   -5.6986   25.6492 C.3     1  UNL1        0.0213
     23 C           7.6150   -6.7183   25.6433 C.3     1  UNL1        0.0213
     24 C           0.5983    2.8892   19.1123 C.2     1  UNL1        0.2015
     25 O          -0.3048    3.1763   17.9496 O.2     1  UNL1       -0.2864
     26 C           3.6455    0.6054   17.9945 C.ar    1  UNL1        0.0920
     27 C           4.8068    1.4665   18.3945 C.ar    1  UNL1        0.0204
     28 C           4.5652    2.8018   19.0337 C.ar    1  UNL1        0.0312
     29 C           3.1625    3.2761   19.2730 C.ar    1  UNL1        0.1454
     30 F           2.9209    4.6114   19.9123 F       1  UNL1       -0.2040
     31 C           2.0012    2.4150   18.8730 C.ar    1  UNL1        0.0951
     32 C           2.2428    1.0797   18.2338 C.ar    1  UNL1        0.1598
     33 F           1.0815    0.2186   17.8338 F       1  UNL1       -0.2026
     34 N           3.8871   -0.7299   17.3553 N.pl3   1  UNL1       -0.2166
     35 H           3.6777   -0.8648   16.4028 H       1  UNL1        0.1734
     36 S           4.4478   -1.8596   18.1672 S.O2    1  UNL1        0.0540
     37 O           3.1910   -1.8955   18.9852 O.2     1  UNL1       -0.1545
     38 O           5.7046   -1.8238   17.3492 O.2     1  UNL1       -0.1545
     39 C           5.0085   -2.9893   18.9791 C.3     1  UNL1        0.1724
     40 C           3.7442   -5.1521   19.6678 C.3     1  UNL1        0.0019
     41 C           4.5944   -4.4011   18.6864 C.3     1  UNL1        0.0273
@<TRIPOS>BOND
     1    40    41    1
     2    41    39    1
     3    39    36    1
     4    36    37    2
     5    36    38    2
     6    36    34    1
     7    34    26    1
     8    26    27   ar
     9    27    28   ar
    10    28    29   ar
    11    29    30    1
    12    29    31   ar
    13    31    24    1
    14    24    25    2
    15    24     1    1
    16     1     2   ar
    17     2     3   ar
    18     3     4   ar
    19     4     5   ar
    20     5     6   ar
    21     6     7   ar
    22     7    11    1
    23    11    12   ar
    24    12    13   ar
    25    13    14   ar
    26    14    17    1
    27    17    18    2
    28    17    19   am
    29    19    21    1
    30    21    22    1
    31    22    23    1
    32    14    15   ar
    33    15    16   ar
    34     7     8   ar
    35     8     9   ar
    36    31    32   ar
    37    32    33    1
    38    32    26   ar
    39     9     1   ar
    40     9     4    1
    41    16    11   ar
    42    23    21    1
    43    34    35    1
    44     5    10    1
    45    19    20    1
@<TRIPOS>MOLECULE
*****
 41 45 0 0 0
SMALL
GASTEIGER

@<TRIPOS>ATOM
      1 C           4.8236   -2.9138   22.7862 C.ar    1  UNL1        0.0611
      2 C           5.7414   -3.3181   23.9017 C.ar    1  UNL1        0.1037
      3 N           5.4757   -2.4161   25.0703 N.ar    1  UNL1       -0.2269
      4 C           4.3938   -1.4544   24.6772 C.ar    1  UNL1        0.1407
      5 N           3.7236   -0.3383   25.4222 N.ar    1  UNL1       -0.3374
      6 C           2.6503    0.4702   24.7556 C.ar    1  UNL1        0.0735
      7 C           2.2473    0.1625   23.3438 C.ar    1  UNL1        0.0186
      8 C           2.9175   -0.9535   22.5988 C.ar    1  UNL1        0.0047
      9 C           3.9908   -1.7620   23.2654 C.ar    1  UNL1        0.0386
     10 H           3.9881   -0.1364   26.3488 H       1  UNL1        0.1674
     11 C           1.1740    0.9711   22.6772 C.ar    1  UNL1        0.0206
     12 C           0.5871    2.1607   23.3773 C.ar    1  UNL1        0.0033
     13 C          -0.4862    2.9693   22.7106 C.ar    1  UNL1        0.0238
     14 C          -0.9726    2.5880   21.3438 C.ar    1  UNL1        0.1345
     15 N          -0.3856    1.3983   20.6437 N.ar    1  UNL1       -0.2393
     16 C           0.6876    0.5899   21.3104 C.ar    1  UNL1        0.0990
     17 C          -2.0458    3.3965   20.6772 C.2     1  UNL1        0.2635
     18 O          -1.7278    4.7540   20.1240 O.2     1  UNL1       -0.2685
     19 N          -3.4371    2.8474   20.5637 N.am    1  UNL1       -0.3013
     20 H          -3.6458    1.9564   20.9268 H       1  UNL1        0.1497
     21 C          -4.5104    3.6559   19.8970 C.3     1  UNL1        0.0720
     22 C          -5.2806    4.0273   18.6646 C.3     1  UNL1        0.0213
     23 C          -5.5993    4.6847   19.9747 C.3     1  UNL1        0.0213
     24 C           4.7514   -3.5497   21.4296 C.2     1  UNL1        0.2015
     25 O           4.1736   -4.9253   21.2758 O.2     1  UNL1       -0.2864
     26 C           4.8269   -1.2159   18.2205 C.ar    1  UNL1        0.0920
     27 C           6.2682   -1.3303   17.8207 C.ar    1  UNL1        0.0204
     28 C           7.2038   -2.1844   18.6238 C.ar    1  UNL1        0.0312
     29 C           6.6982   -2.9242   19.8268 C.ar    1  UNL1        0.1454
     30 F           7.6338   -3.7784   20.6299 F       1  UNL1       -0.2040
     31 C           5.2570   -2.8098   20.2265 C.ar    1  UNL1        0.0951
     32 C           4.3214   -1.9557   19.4234 C.ar    1  UNL1        0.1598
     33 F           2.8802   -1.8413   19.8233 F       1  UNL1       -0.2026
     34 N           3.8913   -0.3617   17.4173 N.pl3   1  UNL1       -0.2166
     35 H           3.6798   -0.6039   16.4869 H       1  UNL1        0.1734
     36 S           3.2781    0.8615   18.0319 S.O2    1  UNL1        0.0540
     37 O           4.6393    1.4778   18.1634 O.2     1  UNL1       -0.1545
     38 O           1.9170    0.2451   17.9005 O.2     1  UNL1       -0.1545
     39 C           2.6648    2.0846   18.6465 C.3     1  UNL1        0.1724
     40 C           2.6162    3.7632   20.6290 C.3     1  UNL1        0.0019
     41 C           3.3685    2.7956   19.7643 C.3     1  UNL1        0.0273
@<TRIPOS>BOND
     1    40    41    1
     2    41    39    1
     3    39    36    1
     4    36    37    2
     5    36    38    2
     6    36    34    1
     7    34    26    1
     8    26    27   ar
     9    27    28   ar
    10    28    29   ar
    11    29    30    1
    12    29    31   ar
    13    31    24    1
    14    24    25    2
    15    24     1    1
    16     1     2   ar
    17     2     3   ar
    18     3     4   ar
    19     4     5   ar
    20     5     6   ar
    21     6     7   ar
    22     7    11    1
    23    11    12   ar
    24    12    13   ar
    25    13    14   ar
    26    14    17    1
    27    17    18    2
    28    17    19   am
    29    19    21    1
    30    21    22    1
    31    22    23    1
    32    14    15   ar
    33    15    16   ar
    34     7     8   ar
    35     8     9   ar
    36    31    32   ar
    37    32    33    1
    38    32    26   ar
    39     9     1   ar
    40     9     4    1
    41    16    11   ar
    42    23    21    1
    43    34    35    1
    44     5    10    1
    45    19    20    1
@<TRIPOS>MOLECULE
*****
 41 45 0 0 0
SMALL
GASTEIGER

@<TRIPOS>ATOM
      1 C           5.4484   -2.3398   18.9391 C.ar    1  UNL1        0.0611
      2 C           6.6962   -2.3712   18.1072 C.ar    1  UNL1        0.1037
      3 N           6.7942   -1.0688   17.3695 N.ar    1  UNL1       -0.2269
      4 C           5.6070   -0.2326   17.7454 C.ar    1  UNL1        0.1407
      5 N           5.1760    1.1426   17.3297 N.ar    1  UNL1       -0.3374
      6 C           3.9131    1.7323   17.8841 C.ar    1  UNL1        0.0735
      7 C           3.0813    0.9468   18.8542 C.ar    1  UNL1        0.0186
      8 C           3.5124   -0.4284   19.2699 C.ar    1  UNL1        0.0047
      9 C           4.7753   -1.0181   18.7155 C.ar    1  UNL1        0.0386
     10 H           5.7219    1.6582   16.6930 H       1  UNL1        0.1674
     11 C           1.8184    1.5365   19.4086 C.ar    1  UNL1        0.0206
     12 C           1.5328    2.9984   19.2321 C.ar    1  UNL1        0.0033
     13 C           0.2698    3.5882   19.7865 C.ar    1  UNL1        0.0238
     14 C          -0.7074    2.7160   20.5174 C.ar    1  UNL1        0.1345
     15 N          -0.4217    1.2540   20.6939 N.ar    1  UNL1       -0.2393
     16 C           0.8411    0.6643   20.1395 C.ar    1  UNL1        0.0990
     17 C          -1.9703    3.3057   21.0717 C.2     1  UNL1        0.2635
     18 O          -1.9109    4.5367   21.9267 O.2     1  UNL1       -0.2685
     19 N          -3.2925    2.6643   20.7711 N.am    1  UNL1       -0.3013
     20 H          -3.3314    1.8563   20.2100 H       1  UNL1        0.1497
     21 C          -4.5554    3.2540   21.3255 C.3     1  UNL1        0.0720
     22 C          -5.8215    4.0334   21.1270 C.3     1  UNL1        0.0213
     23 C          -5.4768    3.4958   22.4842 C.3     1  UNL1        0.0213
     24 C           4.9596   -3.4375   19.8369 C.2     1  UNL1        0.2015
     25 O           4.0324   -4.4877   19.3012 O.2     1  UNL1       -0.2864
     26 C           7.1243   -4.2074   23.0730 C.ar    1  UNL1        0.0920
     27 C           6.2749   -3.5797   24.1381 C.ar    1  UNL1        0.0204
     28 C           4.9871   -2.9046   23.7696 C.ar    1  UNL1        0.0312
     29 C           4.5486   -2.8572   22.3359 C.ar    1  UNL1        0.1454
     30 F           3.2609   -2.1821   21.9673 F       1  UNL1       -0.2040
     31 C           5.3980   -3.4849   21.2707 C.ar    1  UNL1        0.0951
     32 C           6.6858   -4.1600   21.6393 C.ar    1  UNL1        0.1598
     33 F           7.5352   -4.7876   20.5741 F       1  UNL1       -0.2026
     34 N           8.4121   -4.8825   23.4415 N.pl3   1  UNL1       -0.2166
     35 H           9.2717   -4.4492   23.2350 H       1  UNL1        0.1734
     36 S           8.3902   -6.2176   24.1247 S.O2    1  UNL1        0.0540
     37 O           8.4764   -5.5366   25.4584 O.2     1  UNL1       -0.1545
     38 O           8.3039   -6.8987   22.7910 O.2     1  UNL1       -0.1545
     39 C           8.3683   -7.5528   24.8078 C.3     1  UNL1        0.1724
     40 C           8.0324   -8.6745   27.1272 C.3     1  UNL1        0.0019
     41 C           7.5524   -7.7456   26.0517 C.3     1  UNL1        0.0273
@<TRIPOS>BOND
     1    40    41    1
     2    41    39    1
     3    39    36    1
     4    36    37    2
     5    36    38    2
     6    36    34    1
     7    34    26    1
     8    26    27   ar
     9    27    28   ar
    10    28    29   ar
    11    29    30    1
    12    29    31   ar
    13    31    24    1
    14    24    25    2
    15    24     1    1
    16     1     2   ar
    17     2     3   ar
    18     3     4   ar
    19     4     5   ar
    20     5     6   ar
    21     6     7   ar
    22     7    11    1
    23    11    12   ar
    24    12    13   ar
    25    13    14   ar
    26    14    17    1
    27    17    18    2
    28    17    19   am
    29    19    21    1
    30    21    22    1
    31    22    23    1
    32    14    15   ar
    33    15    16   ar
    34     7     8   ar
    35     8     9   ar
    36    31    32   ar
    37    32    33    1
    38    32    26   ar
    39     9     1   ar
    40     9     4    1
    41    16    11   ar
    42    23    21    1
    43    34    35    1
    44     5    10    1
    45    19    20    1
@<TRIPOS>MOLECULE
*****
 41 45 0 0 0
SMALL
GASTEIGER

@<TRIPOS>ATOM
      1 C           5.2187   -2.7700   23.5143 C.ar    1  UNL1        0.0611
      2 C           5.9957   -3.0835   24.7585 C.ar    1  UNL1        0.1037
      3 N           5.5138   -2.1720   25.8479 N.ar    1  UNL1       -0.2269
      4 C           4.4389   -1.2952   25.2770 C.ar    1  UNL1        0.1407
      5 N           3.6027   -0.2080   25.8842 N.ar    1  UNL1       -0.3374
      6 C           2.5841    0.5096   25.0491 C.ar    1  UNL1        0.0735
      7 C           2.4017    0.1400   23.6068 C.ar    1  UNL1        0.0186
      8 C           3.2380   -0.9472   22.9997 C.ar    1  UNL1        0.0047
      9 C           4.2566   -1.6648   23.8348 C.ar    1  UNL1        0.0386
     10 H           3.7224    0.0346   26.8308 H       1  UNL1        0.1674
     11 C           1.3831    0.8577   22.7717 C.ar    1  UNL1        0.0206
     12 C           1.1661    0.4550   21.3432 C.ar    1  UNL1        0.0033
     13 C           0.1474    1.1726   20.5080 C.ar    1  UNL1        0.0238
     14 C          -0.6542    2.2930   21.1015 C.ar    1  UNL1        0.1345
     15 N          -0.4372    2.6957   22.5301 N.ar    1  UNL1       -0.2393
     16 C           0.5814    1.9780   23.3651 C.ar    1  UNL1        0.0990
     17 C          -1.6728    3.0107   20.2665 C.2     1  UNL1        0.2635
     18 O          -1.2290    3.9181   19.1576 O.2     1  UNL1       -0.2685
     19 N          -3.1353    2.8209   20.5402 N.am    1  UNL1       -0.3013
     20 H          -3.4267    2.2253   21.2680 H       1  UNL1        0.1497
     21 C          -4.1541    3.5385   19.7052 C.3     1  UNL1        0.0720
     22 C          -5.1854    4.6175   19.5573 C.3     1  UNL1        0.0213
     23 C          -4.8871    3.7025   18.4068 C.3     1  UNL1        0.0213
     24 C           5.3762   -3.4435   22.1833 C.2     1  UNL1        0.2015
     25 O           4.3482   -4.4307   21.7159 O.2     1  UNL1       -0.2864
     26 C           7.7193   -1.6219   19.5485 C.ar    1  UNL1        0.0920
     27 C           8.9330   -2.5023   19.5922 C.ar    1  UNL1        0.0204
     28 C           8.9611   -3.6964   20.4995 C.ar    1  UNL1        0.0312
     29 C           7.7755   -4.0102   21.3632 C.ar    1  UNL1        0.1454
     30 F           7.8036   -5.2043   22.2706 F       1  UNL1       -0.2040
     31 C           6.5619   -3.1298   21.3195 C.ar    1  UNL1        0.0951
     32 C           6.5338   -1.9356   20.4122 C.ar    1  UNL1        0.1598
     33 F           5.3200   -1.0553   20.3686 F       1  UNL1       -0.2026
     34 N           7.6912   -0.4277   18.6412 N.pl3   1  UNL1       -0.2166
     35 H           8.4512    0.1980   18.6273 H       1  UNL1        0.1734
     36 S           6.5053   -0.1869   17.7549 S.O2    1  UNL1        0.0540
     37 O           6.6907   -1.5418   17.1386 O.2     1  UNL1       -0.1545
     38 O           6.3198    1.1679   18.3712 O.2     1  UNL1       -0.1545
     39 C           5.3193    0.0539   16.8687 C.3     1  UNL1        0.1724
     40 C           2.9659   -0.0106   17.9678 C.3     1  UNL1        0.0019
     41 C           4.0280   -0.6623   17.1327 C.3     1  UNL1        0.0273
@<TRIPOS>BOND
     1    40    41    1
     2    41    39    1
     3    39    36    1
     4    36    37    2
     5    36    38    2
     6    36    34    1
     7    34    26    1
     8    26    27   ar
     9    27    28   ar
    10    28    29   ar
    11    29    30    1
    12    29    31   ar
    13    31    24    1
    14    24    25    2
    15    24     1    1
    16     1     2   ar
    17     2     3   ar
    18     3     4   ar
    19     4     5   ar
    20     5     6   ar
    21     6     7   ar
    22     7    11    1
    23    11    12   ar
    24    12    13   ar
    25    13    14   ar
    26    14    17    1
    27    17    18    2
    28    17    19   am
    29    19    21    1
    30    21    22    1
    31    22    23    1
    32    14    15   ar
    33    15    16   ar
    34     7     8   ar
    35     8     9   ar
    36    31    32   ar
    37    32    33    1
    38    32    26   ar
    39     9     1   ar
    40     9     4    1
    41    16    11   ar
    42    23    21    1
    43    34    35    1
    44     5    10    1
    45    19    20    1
@<TRIPOS>MOLECULE
*****
 41 45 0 0 0
SMALL
GASTEIGER

@<TRIPOS>ATOM
      1 C           5.0797   -2.9031   19.8351 C.ar    1  UNL1        0.0611
      2 C           6.2856   -3.2134   18.9987 C.ar    1  UNL1        0.1037
      3 N           6.3729   -2.1837   17.9114 N.ar    1  UNL1       -0.2269
      4 C           5.2211   -1.2370   18.0759 C.ar    1  UNL1        0.1407
      5 N           4.7967   -0.0276   17.2967 N.ar    1  UNL1       -0.3374
      6 C           3.5732    0.7371   17.7063 C.ar    1  UNL1        0.0735
      7 C           2.7739    0.2925   18.8952 C.ar    1  UNL1        0.0186
      8 C           3.1982   -0.9169   19.6744 C.ar    1  UNL1        0.0047
      9 C           4.4218   -1.6817   19.2648 C.ar    1  UNL1        0.0386
     10 H           5.3213    0.2642   16.5163 H       1  UNL1        0.1674
     11 C           1.5502    1.0574   19.3049 C.ar    1  UNL1        0.0206
     12 C           1.1983    2.3384   18.6084 C.ar    1  UNL1        0.0033
     13 C          -0.0253    3.1032   19.0180 C.ar    1  UNL1        0.0238
     14 C          -0.8970    2.5870   20.1242 C.ar    1  UNL1        0.1345
     15 N          -0.5451    1.3059   20.8207 N.ar    1  UNL1       -0.2393
     16 C           0.6785    0.5412   20.4111 C.ar    1  UNL1        0.0990
     17 C          -2.1206    3.3518   20.5339 C.2     1  UNL1        0.2635
     18 O          -2.0359    4.8301   20.7734 O.2     1  UNL1       -0.2685
     19 N          -3.4290    2.6382   20.7041 N.am    1  UNL1       -0.3013
     20 H          -3.4846    1.6680   20.5469 H       1  UNL1        0.1497
     21 C          -4.6527    3.4030   21.1138 C.3     1  UNL1        0.0720
     22 C          -5.4964    4.0266   22.1857 C.3     1  UNL1        0.0213
     23 C          -5.9283    4.1040   20.7514 C.3     1  UNL1        0.0213
     24 C           4.6135   -3.6782   21.0317 C.2     1  UNL1        0.2015
     25 O           3.8555   -4.9592   20.8469 O.2     1  UNL1       -0.2864
     26 C           4.2754   -1.6750   24.4410 C.ar    1  UNL1        0.0920
     27 C           5.4893   -2.1602   25.1765 C.ar    1  UNL1        0.0204
     28 C           6.4114   -3.1514   24.5303 C.ar    1  UNL1        0.0312
     29 C           6.1195   -3.6574   23.1488 C.ar    1  UNL1        0.1454
     30 F           7.0415   -4.6486   22.5027 F       1  UNL1       -0.2040
     31 C           4.9055   -3.1722   22.4134 C.ar    1  UNL1        0.0951
     32 C           3.9835   -2.1810   23.0595 C.ar    1  UNL1        0.1598
     33 F           2.7695   -1.6959   22.3239 F       1  UNL1       -0.2026
     34 N           3.3534   -0.6838   25.0871 N.pl3   1  UNL1       -0.2166
     35 H           2.8706   -0.9248   25.9106 H       1  UNL1        0.1734
     36 S           3.1669    0.6744   24.4786 S.O2    1  UNL1        0.0540
     37 O           1.7039    0.3944   24.3018 O.2     1  UNL1       -0.1545
     38 O           4.6299    0.9544   24.6553 O.2     1  UNL1       -0.1545
     39 C           2.9806    2.0326   23.8700 C.3     1  UNL1        0.1724
     40 C           2.8819    3.5362   21.7534 C.3     1  UNL1        0.0019
     41 C           3.2791    2.2505   22.4162 C.3     1  UNL1        0.0273
@<TRIPOS>BOND
     1    40    41    1
     2    41    39    1
     3    39    36    1
     4    36    37    2
     5    36    38    2
     6    36    34    1
     7    34    26    1
     8    26    27   ar
     9    27    28   ar
    10    28    29   ar
    11    29    30    1
    12    29    31   ar
    13    31    24    1
    14    24    25    2
    15    24     1    1
    16     1     2   ar
    17     2     3   ar
    18     3     4   ar
    19     4     5   ar
    20     5     6   ar
    21     6     7   ar
    22     7    11    1
    23    11    12   ar
    24    12    13   ar
    25    13    14   ar
    26    14    17    1
    27    17    18    2
    28    17    19   am
    29    19    21    1
    30    21    22    1
    31    22    23    1
    32    14    15   ar
    33    15    16   ar
    34     7     8   ar
    35     8     9   ar
    36    31    32   ar
    37    32    33    1
    38    32    26   ar
    39     9     1   ar
    40     9     4    1
    41    16    11   ar
    42    23    21    1
    43    34    35    1
    44     5    10    1
    45    19    20    1
@<TRIPOS>MOLECULE
*****
 41 45 0 0 0
SMALL
GASTEIGER

@<TRIPOS>ATOM
      1 C           7.7527   -4.0964   27.5581 C.ar    1  UNL1        0.0611
      2 C           8.2066   -5.4403   27.0702 C.ar    1  UNL1        0.1037
      3 N           8.1073   -6.4062   28.2136 N.ar    1  UNL1       -0.2269
      4 C           7.5920   -5.6593   29.4080 C.ar    1  UNL1        0.1407
      5 N           7.2941   -6.0946   30.8121 N.ar    1  UNL1       -0.3374
      6 C           6.7770   -5.1024   31.8112 C.ar    1  UNL1        0.0735
      7 C           6.5578   -3.6749   31.4060 C.ar    1  UNL1        0.0186
      8 C           6.8557   -3.2396   30.0019 C.ar    1  UNL1        0.0047
      9 C           7.3728   -4.2318   29.0029 C.ar    1  UNL1        0.0386
     10 H           7.4379   -7.0315   31.0781 H       1  UNL1        0.1674
     11 C           6.0406   -2.6826   32.4051 C.ar    1  UNL1        0.0206
     12 C           6.8860   -1.5094   32.8036 C.ar    1  UNL1        0.0033
     13 C           6.3688   -0.5172   33.8027 C.ar    1  UNL1        0.0238
     14 C           5.0063   -0.6983   34.4033 C.ar    1  UNL1        0.1345
     15 N           4.1609   -1.8716   34.0047 N.ar    1  UNL1       -0.2393
     16 C           4.6781   -2.8637   33.0057 C.ar    1  UNL1        0.0990
     17 C           4.4891    0.2939   35.4023 C.2     1  UNL1        0.2635
     18 O           4.0456    1.6532   34.9489 O.2     1  UNL1       -0.2685
     19 N           4.4154   -0.0733   36.8548 N.am    1  UNL1       -0.3013
     20 H           4.7064   -0.9655   37.1523 H       1  UNL1        0.1497
     21 C           3.8982    0.9188   37.8539 C.3     1  UNL1        0.0720
     22 C           2.7496    1.5454   38.5874 C.3     1  UNL1        0.0213
     23 C           4.1510    2.0107   38.8509 C.3     1  UNL1        0.0213
     24 C           7.6896   -2.8381   26.7440 C.2     1  UNL1        0.2015
     25 O           8.6812   -1.7388   26.9845 O.2     1  UNL1       -0.2864
     26 C           5.7599   -3.1629   23.2913 C.ar    1  UNL1        0.0920
     27 C           4.5253   -2.3614   23.5801 C.ar    1  UNL1        0.0204
     28 C           4.3455   -1.7189   24.9235 C.ar    1  UNL1        0.0312
     29 C           5.4002   -1.8777   25.9782 C.ar    1  UNL1        0.1454
     30 F           5.2203   -1.2352   27.3216 F       1  UNL1       -0.2040
     31 C           6.6348   -2.6792   25.6893 C.ar    1  UNL1        0.0951
     32 C           6.8146   -3.3218   24.3459 C.ar    1  UNL1        0.1598
     33 F           8.0492   -4.1232   24.0572 F       1  UNL1       -0.2026
     34 N           5.9397   -3.8054   21.9479 N.pl3   1  UNL1       -0.2166
     35 H           6.6905   -4.4234   21.7943 H       1  UNL1        0.1734
     36 S           4.9755   -3.5064   20.8384 S.O2    1  UNL1        0.0540
     37 O           4.1606   -4.7053   21.2235 O.2     1  UNL1       -0.1545
     38 O           5.7905   -2.3075   20.4533 O.2     1  UNL1       -0.1545
     39 C           4.0114   -3.2073   19.7289 C.3     1  UNL1        0.1724
     40 C           2.5049   -1.2449   20.5224 C.3     1  UNL1        0.0019
     41 C           3.4898   -1.8131   19.5441 C.3     1  UNL1        0.0273
@<TRIPOS>BOND
     1    40    41    1
     2    41    39    1
     3    39    36    1
     4    36    37    2
     5    36    38    2
     6    36    34    1
     7    34    26    1
     8    26    27   ar
     9    27    28   ar
    10    28    29   ar
    11    29    30    1
    12    29    31   ar
    13    31    24    1
    14    24    25    2
    15    24     1    1
    16     1     2   ar
    17     2     3   ar
    18     3     4   ar
    19     4     5   ar
    20     5     6   ar
    21     6     7   ar
    22     7    11    1
    23    11    12   ar
    24    12    13   ar
    25    13    14   ar
    26    14    17    1
    27    17    18    2
    28    17    19   am
    29    19    21    1
    30    21    22    1
    31    22    23    1
    32    14    15   ar
    33    15    16   ar
    34     7     8   ar
    35     8     9   ar
    36    31    32   ar
    37    32    33    1
    38    32    26   ar
    39     9     1   ar
    40     9     4    1
    41    16    11   ar
    42    23    21    1
    43    34    35    1
    44     5    10    1
    45    19    20    1
@<TRIPOS>MOLECULE
*****
 41 45 0 0 0
SMALL
GASTEIGER

@<TRIPOS>ATOM
      1 C           2.8038   -1.2679   20.0945 C.ar    1  UNL1        0.0611
      2 C           1.8473   -0.3521   19.3900 C.ar    1  UNL1        0.1037
      3 N           1.2720    0.5885   20.4070 N.ar    1  UNL1       -0.2269
      4 C           1.8729    0.2540   21.7400 C.ar    1  UNL1        0.1407
      5 N           1.6804    0.8459   23.1047 N.ar    1  UNL1       -0.3374
      6 C           2.4346    0.2904   24.2763 C.ar    1  UNL1        0.0735
      7 C           3.3813   -0.8569   24.0832 C.ar    1  UNL1        0.0186
      8 C           3.5738   -1.4488   22.7185 C.ar    1  UNL1        0.0047
      9 C           2.8197   -0.8934   21.5469 C.ar    1  UNL1        0.0386
     10 H           1.0590    1.5989   23.2315 H       1  UNL1        0.1674
     11 C           4.1355   -1.4124   25.2549 C.ar    1  UNL1        0.0206
     12 C           5.4499   -2.1027   25.0417 C.ar    1  UNL1        0.0033
     13 C           6.2041   -2.6582   26.2134 C.ar    1  UNL1        0.0238
     14 C           5.6438   -2.5232   27.5982 C.ar    1  UNL1        0.1345
     15 N           4.3292   -1.8328   27.8113 N.ar    1  UNL1       -0.2393
     16 C           3.5751   -1.2774   26.6397 C.ar    1  UNL1        0.0990
     17 C           6.3979   -3.0786   28.7698 C.2     1  UNL1        0.2635
     18 O           7.0700   -2.1502   29.7375 O.2     1  UNL1       -0.2685
     19 N           6.4798   -4.5624   28.9738 N.am    1  UNL1       -0.3013
     20 H           6.0387   -5.1717   28.3387 H       1  UNL1        0.1497
     21 C           7.2340   -5.1178   30.1455 C.3     1  UNL1        0.0720
     22 C           8.2295   -6.0890   30.7074 C.3     1  UNL1        0.0213
     23 C           7.5447   -5.1087   31.6130 C.3     1  UNL1        0.0213
     24 C           3.6040   -2.3656   19.4583 C.2     1  UNL1        0.2015
     25 O           2.9297   -3.6369   19.0352 O.2     1  UNL1       -0.2864
     26 C           7.5253   -2.8945   19.7657 C.ar    1  UNL1        0.0920
     27 C           8.0279   -1.8450   18.8192 C.ar    1  UNL1        0.0204
     28 C           7.0559   -0.9690   18.0857 C.ar    1  UNL1        0.0312
     29 C           5.5813   -1.1425   18.2987 C.ar    1  UNL1        0.1454
     30 F           4.6093   -0.2665   17.5653 F       1  UNL1       -0.2040
     31 C           5.0787   -2.1921   19.2452 C.ar    1  UNL1        0.0951
     32 C           6.0507   -3.0680   19.9787 C.ar    1  UNL1        0.1598
     33 F           5.5480   -4.1176   20.9251 F       1  UNL1       -0.2026
     34 N           8.4972   -3.7705   20.4991 N.pl3   1  UNL1       -0.2166
     35 H           9.2134   -4.2319   20.0057 H       1  UNL1        0.1734
     36 S           8.3780   -3.9435   21.9843 S.O2    1  UNL1        0.0540
     37 O           8.1332   -5.4110   21.7937 O.2     1  UNL1       -0.1545
     38 O           8.6228   -2.4759   22.1749 O.2     1  UNL1       -0.1545
     39 C           8.2588   -4.1164   23.4695 C.3     1  UNL1        0.1724
     40 C           8.0654   -5.8765   25.3708 C.3     1  UNL1        0.0019
     41 C           7.6314   -5.3573   24.0321 C.3     1  UNL1        0.0273
@<TRIPOS>BOND
     1    40    41    1
     2    41    39    1
     3    39    36    1
     4    36    37    2
     5    36    38    2
     6    36    34    1
     7    34    26    1
     8    26    27   ar
     9    27    28   ar
    10    28    29   ar
    11    29    30    1
    12    29    31   ar
    13    31    24    1
    14    24    25    2
    15    24     1    1
    16     1     2   ar
    17     2     3   ar
    18     3     4   ar
    19     4     5   ar
    20     5     6   ar
    21     6     7   ar
    22     7    11    1
    23    11    12   ar
    24    12    13   ar
    25    13    14   ar
    26    14    17    1
    27    17    18    2
    28    17    19   am
    29    19    21    1
    30    21    22    1
    31    22    23    1
    32    14    15   ar
    33    15    16   ar
    34     7     8   ar
    35     8     9   ar
    36    31    32   ar
    37    32    33    1
    38    32    26   ar
    39     9     1   ar
    40     9     4    1
    41    16    11   ar
    42    23    21    1
    43    34    35    1
    44     5    10    1
    45    19    20    1
@<TRIPOS>MOLECULE
*****
 41 45 0 0 0
SMALL
GASTEIGER

@<TRIPOS>ATOM
      1 C           5.1755   -2.9523   19.9063 C.ar    1  UNL1        0.0611
      2 C           6.3658   -3.2508   19.0438 C.ar    1  UNL1        0.1037
      3 N           6.4305   -2.2091   17.9665 N.ar    1  UNL1       -0.2269
      4 C           5.2801   -1.2667   18.1632 C.ar    1  UNL1        0.1407
      5 N           4.8387   -0.0497   17.4056 N.ar    1  UNL1       -0.3374
      6 C           3.6217    0.7079   17.8469 C.ar    1  UNL1        0.0735
      7 C           2.8461    0.2486   19.0458 C.ar    1  UNL1        0.0186
      8 C           3.2875   -0.9684   19.8035 C.ar    1  UNL1        0.0047
      9 C           4.5045   -1.7260   19.3622 C.ar    1  UNL1        0.0386
     10 H           5.3478    0.2518   16.6187 H       1  UNL1        0.1674
     11 C           1.6290    1.0063   19.4871 C.ar    1  UNL1        0.0206
     12 C           1.0549    2.0795   18.6105 C.ar    1  UNL1        0.0033
     13 C          -0.1622    2.8372   19.0517 C.ar    1  UNL1        0.0238
     14 C          -0.8051    2.5217   20.3697 C.ar    1  UNL1        0.1345
     15 N          -0.2309    1.4484   21.2465 N.ar    1  UNL1       -0.2393
     16 C           0.9861    0.6908   20.8051 C.ar    1  UNL1        0.0990
     17 C          -2.0221    3.2793   20.8111 C.2     1  UNL1        0.2635
     18 O          -1.8861    4.6799   21.3307 O.2     1  UNL1       -0.2685
     19 N          -3.3750    2.6364   20.7327 N.am    1  UNL1       -0.3013
     20 H          -3.4642    1.7172   20.3917 H       1  UNL1        0.1497
     21 C          -4.5921    3.3941   21.1741 C.3     1  UNL1        0.0720
     22 C          -5.6240    3.6997   22.2189 C.3     1  UNL1        0.0213
     23 C          -5.6683    4.4007   20.8936 C.3     1  UNL1        0.0213
     24 C           4.7338   -3.7414   21.1030 C.2     1  UNL1        0.2015
     25 O           3.8764   -4.9590   20.9238 O.2     1  UNL1       -0.2864
     26 C           4.7103   -1.9283   24.6333 C.ar    1  UNL1        0.0920
     27 C           5.9807   -2.4559   25.2313 C.ar    1  UNL1        0.0204
     28 C           6.8355   -3.4119   24.4533 C.ar    1  UNL1        0.0312
     29 C           6.4199   -3.8405   23.0772 C.ar    1  UNL1        0.1454
     30 F           7.2747   -4.7965   22.2992 F       1  UNL1       -0.2040
     31 C           5.1494   -3.3129   22.4792 C.ar    1  UNL1        0.0951
     32 C           4.2947   -2.3569   23.2572 C.ar    1  UNL1        0.1598
     33 F           3.0242   -1.8293   22.6591 F       1  UNL1       -0.2026
     34 N           3.8555   -0.9723   25.4113 N.pl3   1  UNL1       -0.2166
     35 H           3.0413   -0.5969   25.0046 H       1  UNL1        0.1734
     36 S           4.2413   -0.5882   26.8090 S.O2    1  UNL1        0.0540
     37 O           5.0441    0.5595   26.2721 O.2     1  UNL1       -0.1545
     38 O           3.4385   -1.7359   27.3460 O.2     1  UNL1       -0.1545
     39 C           4.6270   -0.2042   28.2068 C.3     1  UNL1        0.1724
     40 C           5.6129   -1.5565   30.1941 C.3     1  UNL1        0.0019
     41 C           5.7944   -0.8705   28.8726 C.3     1  UNL1        0.0273
@<TRIPOS>BOND
     1    40    41    1
     2    41    39    1
     3    39    36    1
     4    36    37    2
     5    36    38    2
     6    36    34    1
     7    34    26    1
     8    26    27   ar
     9    27    28   ar
    10    28    29   ar
    11    29    30    1
    12    29    31   ar
    13    31    24    1
    14    24    25    2
    15    24     1    1
    16     1     2   ar
    17     2     3   ar
    18     3     4   ar
    19     4     5   ar
    20     5     6   ar
    21     6     7   ar
    22     7    11    1
    23    11    12   ar
    24    12    13   ar
    25    13    14   ar
    26    14    17    1
    27    17    18    2
    28    17    19   am
    29    19    21    1
    30    21    22    1
    31    22    23    1
    32    14    15   ar
    33    15    16   ar
    34     7     8   ar
    35     8     9   ar
    36    31    32   ar
    37    32    33    1
    38    32    26   ar
    39     9     1   ar
    40     9     4    1
    41    16    11   ar
    42    23    21    1
    43    34    35    1
    44     5    10    1
    45    19    20    1
@<TRIPOS>MOLECULE
*****
 41 45 0 0 0
SMALL
GASTEIGER

@<TRIPOS>ATOM
      1 C           2.1858    1.3302   31.9986 C.ar    1  UNL1        0.0611
      2 C           1.8923    2.2329   33.1601 C.ar    1  UNL1        0.1037
      3 N           2.8259    1.8699   34.2767 N.ar    1  UNL1       -0.2269
      4 C           3.6963    0.7428   33.8052 C.ar    1  UNL1        0.1407
      5 N           4.7980   -0.0228   34.4761 N.ar    1  UNL1       -0.3374
      6 C           5.5040   -1.1219   33.7390 C.ar    1  UNL1        0.0735
      7 C           5.1084   -1.4554   32.3311 C.ar    1  UNL1        0.0186
      8 C           4.0067   -0.6898   31.6602 C.ar    1  UNL1        0.0047
      9 C           3.3007    0.4093   32.3973 C.ar    1  UNL1        0.0386
     10 H           5.0577    0.1961   35.4001 H       1  UNL1        0.1674
     11 C           5.8145   -2.5547   31.5940 C.ar    1  UNL1        0.0206
     12 C           6.3195   -3.7540   32.3400 C.ar    1  UNL1        0.0033
     13 C           7.0256   -4.8532   31.6029 C.ar    1  UNL1        0.0238
     14 C           7.2267   -4.7530   30.1198 C.ar    1  UNL1        0.1345
     15 N           6.7216   -3.5536   29.3738 N.ar    1  UNL1       -0.2393
     16 C           6.0156   -2.4545   30.1109 C.ar    1  UNL1        0.0990
     17 C           7.9327   -5.8521   29.3827 C.2     1  UNL1        0.2635
     18 O           9.3043   -6.2821   29.8115 O.2     1  UNL1       -0.2685
     19 N           7.2672   -6.5213   28.2169 N.am    1  UNL1       -0.3013
     20 H           6.3670   -6.2390   27.9355 H       1  UNL1        0.1497
     21 C           7.9732   -7.6205   27.4797 C.3     1  UNL1        0.0720
     22 C           8.5350   -9.0109   27.4477 C.3     1  UNL1        0.0213
     23 C           8.6344   -8.1338   26.2350 C.3     1  UNL1        0.0213
     24 C           1.4870    1.3457   30.6714 C.2     1  UNL1        0.2015
     25 O          -0.0093    1.2610   30.6106 O.2     1  UNL1       -0.2864
     26 C           3.0573    0.4220   27.1457 C.ar    1  UNL1        0.0920
     27 C           3.8797    1.6463   26.8722 C.ar    1  UNL1        0.0204
     28 C           3.9045    2.7704   27.8650 C.ar    1  UNL1        0.0312
     29 C           3.1070    2.6702   29.1314 C.ar    1  UNL1        0.1454
     30 F           3.1318    3.7943   30.1243 F       1  UNL1       -0.2040
     31 C           2.2846    1.4459   29.4050 C.ar    1  UNL1        0.0951
     32 C           2.2598    0.3219   28.4121 C.ar    1  UNL1        0.1598
     33 F           1.4374   -0.9024   28.6857 F       1  UNL1       -0.2026
     34 N           3.0326   -0.7021   26.1528 N.pl3   1  UNL1       -0.2166
     35 H           2.1763   -1.1175   25.9008 H       1  UNL1        0.1734
     36 S           4.3124   -1.1932   25.5438 S.O2    1  UNL1        0.0540
     37 O           4.7015   -1.8064   26.8563 O.2     1  UNL1       -0.1545
     38 O           3.9232   -0.5800   24.2314 O.2     1  UNL1       -0.1545
     39 C           5.5921   -1.6843   24.9348 C.3     1  UNL1        0.1724
     40 C           6.5793   -4.0764   24.7034 C.3     1  UNL1        0.0019
     41 C           5.6301   -3.0122   24.2382 C.3     1  UNL1        0.0273
@<TRIPOS>BOND
     1    40    41    1
     2    41    39    1
     3    39    36    1
     4    36    37    2
     5    36    38    2
     6    36    34    1
     7    34    26    1
     8    26    27   ar
     9    27    28   ar
    10    28    29   ar
    11    29    30    1
    12    29    31   ar
    13    31    24    1
    14    24    25    2
    15    24     1    1
    16     1     2   ar
    17     2     3   ar
    18     3     4   ar
    19     4     5   ar
    20     5     6   ar
    21     6     7   ar
    22     7    11    1
    23    11    12   ar
    24    12    13   ar
    25    13    14   ar
    26    14    17    1
    27    17    18    2
    28    17    19   am
    29    19    21    1
    30    21    22    1
    31    22    23    1
    32    14    15   ar
    33    15    16   ar
    34     7     8   ar
    35     8     9   ar
    36    31    32   ar
    37    32    33    1
    38    32    26   ar
    39     9     1   ar
    40     9     4    1
    41    16    11   ar
    42    23    21    1
    43    34    35    1
    44     5    10    1
    45    19    20    1
