@<TRIPOS>MOLECULE
*****
 37 40 0 0 0
SMALL
GASTEIGER

@<TRIPOS>ATOM
      1 N           3.4449    1.9395   32.9318 N.3     1  UNL1       -0.1559
      2 C           2.1112    1.6737   32.2987 C.3     1  UNL1        0.1169
      3 C           2.0339    1.2555   30.8603 C.3     1  UNL1        0.1127
      4 N           3.2901    1.1031   30.0549 N.pl3   1  UNL1       -0.2752
      5 C           4.6237    1.3689   30.6880 C.3     1  UNL1        0.1127
      6 C           4.7011    1.7871   32.1264 C.3     1  UNL1        0.1169
      7 C           3.2127    0.6849   28.6165 C.ar    1  UNL1        0.2205
      8 N           2.5728    1.5898   27.6057 N.ar    1  UNL1       -0.2089
      9 C           2.4953    1.1715   26.1672 C.ar    1  UNL1        0.1402
     10 C           3.0579   -0.1516   25.7396 C.ar    1  UNL1        0.1775
     11 C           3.6978   -1.0565   26.7504 C.ar    1  UNL1        0.1402
     12 N           3.7752   -0.6382   28.1888 N.ar    1  UNL1       -0.2089
     13 O           2.9805   -0.5698   24.3012 O.3     1  UNL1       -0.4641
     14 C           3.9873   -1.5324   23.7448 C.3     1  UNL1        0.2691
     15 C           3.8707   -2.0027   22.3252 C.ar    1  UNL1        0.1667
     16 C           3.1863   -1.2724   21.2079 C.ar    1  UNL1        0.0398
     17 C           3.3105   -2.1041   19.9658 C.ar    1  UNL1        0.0444
     18 C           4.0718   -3.3485   20.3155 C.ar    1  UNL1        0.2163
     19 O           4.4179   -3.2858   21.7736 O.2     1  UNL1       -0.4499
     20 C           4.4248   -4.4603   19.3725 C.3     1  UNL1        0.4510
     21 F           4.7778   -5.5721   18.4296 F       1  UNL1       -0.1632
     22 F           3.0046   -4.5036   18.8918 F       1  UNL1       -0.1632
     23 F           5.8451   -4.4170   19.8532 F       1  UNL1       -0.1632
     24 S           3.5223    2.3577   34.3703 S.O2    1  UNL1        0.0460
     25 O           4.9756    2.6857   34.1966 O.2     1  UNL1       -0.1572
     26 O           2.0690    2.0297   34.5439 O.2     1  UNL1       -0.1572
     27 C           3.5998    2.7760   35.8087 C.3     1  UNL1        0.1958
     28 C           4.2618    0.9242   36.2118 C.3     1  UNL1        0.0310
     29 C           3.2523    1.7998   36.8933 C.3     1  UNL1        0.1509
     30 N           3.1159    0.6406   37.8354 N.am    1  UNL1       -0.2825
     31 C           2.0947    1.0039   38.8725 C.2     1  UNL1        0.3068
     32 O           1.6469    0.1359   40.0109 O.2     1  UNL1       -0.2524
     33 N           1.6001    2.3876   38.5712 N.am    1  UNL1       -0.2383
     34 C           2.3155    2.8795   37.3480 C.2     1  UNL1        0.2469
     35 O           2.1271    4.2163   36.6943 O.2     1  UNL1       -0.2729
     36 H           3.6099   -0.2093   37.7825 H       1  UNL1        0.1514
     37 H           0.9245    2.8854   39.0859 H       1  UNL1        0.1591
@<TRIPOS>BOND
     1    29    28    1
     2    29    27    1
     3    27    24    1
     4    24    25    2
     5    24    26    2
     6    24     1    1
     7     1     2    1
     8     2     3    1
     9     3     4    1
    10     4     7    1
    11     7     8   ar
    12     8     9   ar
    13     9    10   ar
    14    10    13    1
    15    13    14    1
    16    14    15    1
    17    15    16   ar
    18    16    17   ar
    19    17    18   ar
    20    18    20    1
    21    20    21    1
    22    20    22    1
    23    20    23    1
    24    18    19   ar
    25    10    11   ar
    26    11    12   ar
    27     4     5    1
    28     5     6    1
    29    29    30    1
    30    30    31   am
    31    31    32    2
    32    31    33   am
    33    33    34   am
    34    34    35    2
    35    34    29    1
    36     6     1    1
    37    12     7   ar
    38    19    15   ar
    39    30    36    1
    40    33    37    1
@<TRIPOS>MOLECULE
*****
 37 40 0 0 0
SMALL
GASTEIGER

@<TRIPOS>ATOM
      1 N           5.3364   -0.2934   33.8428 N.3     1  UNL1       -0.1559
      2 C           4.6570   -1.6306   33.8542 C.3     1  UNL1        0.1169
      3 C           5.0408   -2.6754   32.8486 C.3     1  UNL1        0.1127
      4 N           6.1039   -2.3828   31.8317 N.pl3   1  UNL1       -0.2752
      5 C           6.7833   -1.0455   31.8203 C.3     1  UNL1        0.1127
      6 C           6.3995   -0.0008   32.8259 C.3     1  UNL1        0.1169
      7 C           6.4877   -3.4276   30.8261 C.ar    1  UNL1        0.2205
      8 N           6.9078   -4.7923   31.2855 N.ar    1  UNL1       -0.2089
      9 C           7.2916   -5.8371   30.2799 C.ar    1  UNL1        0.1402
     10 C           7.2552   -5.5171   28.8148 C.ar    1  UNL1        0.1775
     11 C           6.8351   -4.1524   28.3554 C.ar    1  UNL1        0.1402
     12 N           6.4513   -3.1076   29.3610 N.ar    1  UNL1       -0.2089
     13 O           7.6390   -6.5618   27.8092 O.3     1  UNL1       -0.4641
     14 C           6.9146   -6.6427   26.4983 C.3     1  UNL1        0.2691
     15 C           7.6882   -6.6479   25.2130 C.ar    1  UNL1        0.1667
     16 C           8.6291   -7.7224   24.7546 C.ar    1  UNL1        0.0398
     17 C           9.1790   -7.3181   23.4189 C.ar    1  UNL1        0.0444
     18 C           8.5779   -5.9937   23.0518 C.ar    1  UNL1        0.2163
     19 O           7.6565   -5.5795   24.1606 O.2     1  UNL1       -0.4499
     20 C           8.8504   -5.2195   21.7963 C.3     1  UNL1        0.4510
     21 F           9.1229   -4.4453   20.5409 F       1  UNL1       -0.1632
     22 F           8.6333   -6.4613   20.9834 F       1  UNL1       -0.1632
     23 F           9.0675   -3.9776   22.6092 F       1  UNL1       -0.1632
     24 S           4.9526    0.7514   34.8484 S.O2    1  UNL1        0.0460
     25 O           6.3959    0.9265   35.2173 O.2     1  UNL1       -0.1572
     26 O           3.5093    0.5763   34.4796 O.2     1  UNL1       -0.1572
     27 C           4.5689    1.7962   35.8540 C.3     1  UNL1        0.1958
     28 C           4.8198    0.2881   37.1550 C.3     1  UNL1        0.0310
     29 C           3.8203    1.4050   37.0936 C.3     1  UNL1        0.1509
     30 N           3.2807    0.7802   38.3460 N.am    1  UNL1       -0.2825
     31 C           2.1042    1.5928   38.7995 C.2     1  UNL1        0.3068
     32 O           1.2629    1.3254   40.0123 O.2     1  UNL1       -0.2524
     33 N           1.9167    2.7197   37.8274 N.am    1  UNL1       -0.2383
     34 C           2.9773    2.6036   36.7731 C.2     1  UNL1        0.2469
     35 O           3.1624    3.5244   35.6036 O.2     1  UNL1       -0.2729
     36 H           3.6363   -0.0222   38.7920 H       1  UNL1        0.1514
     37 H           1.2199    3.4136   37.8733 H       1  UNL1        0.1591
@<TRIPOS>BOND
     1    29    28    1
     2    29    27    1
     3    27    24    1
     4    24    25    2
     5    24    26    2
     6    24     1    1
     7     1     2    1
     8     2     3    1
     9     3     4    1
    10     4     7    1
    11     7     8   ar
    12     8     9   ar
    13     9    10   ar
    14    10    13    1
    15    13    14    1
    16    14    15    1
    17    15    16   ar
    18    16    17   ar
    19    17    18   ar
    20    18    20    1
    21    20    21    1
    22    20    22    1
    23    20    23    1
    24    18    19   ar
    25    10    11   ar
    26    11    12   ar
    27     4     5    1
    28     5     6    1
    29    29    30    1
    30    30    31   am
    31    31    32    2
    32    31    33   am
    33    33    34   am
    34    34    35    2
    35    34    29    1
    36     6     1    1
    37    12     7   ar
    38    19    15   ar
    39    30    36    1
    40    33    37    1
@<TRIPOS>MOLECULE
*****
 37 40 0 0 0
SMALL
GASTEIGER

@<TRIPOS>ATOM
      1 N           6.3860   -1.8186   32.1584 N.3     1  UNL1       -0.1559
      2 C           4.8869   -1.8364   32.1100 C.3     1  UNL1        0.1169
      3 C           4.1072   -0.6443   32.5800 C.3     1  UNL1        0.1127
      4 N           4.8266    0.5656   33.0983 N.pl3   1  UNL1       -0.2752
      5 C           6.3257    0.5834   33.1467 C.3     1  UNL1        0.1127
      6 C           7.1054   -0.6087   32.6768 C.3     1  UNL1        0.1169
      7 C           4.0468    1.7577   33.5683 C.ar    1  UNL1        0.2205
      8 N           2.5473    1.7317   33.5403 N.ar    1  UNL1       -0.2089
      9 C           1.7675    2.9238   34.0102 C.ar    1  UNL1        0.1402
     10 C           2.4873    4.1420   34.5082 C.ar    1  UNL1        0.1775
     11 C           3.9868    4.1680   34.5362 C.ar    1  UNL1        0.1402
     12 N           4.7665    2.9759   34.0663 N.ar    1  UNL1       -0.2089
     13 O           1.7075    5.3341   34.9782 O.3     1  UNL1       -0.4641
     14 C           1.4053    5.5048   36.4374 C.3     1  UNL1        0.2691
     15 C           1.7967    4.4360   37.4145 C.ar    1  UNL1        0.1667
     16 C           3.0557    4.4046   38.2295 C.ar    1  UNL1        0.0398
     17 C           3.0349    3.1602   39.0667 C.ar    1  UNL1        0.0444
     18 C           1.7632    2.4225   38.7692 C.ar    1  UNL1        0.2163
     19 O           0.9980    3.2110   37.7480 O.2     1  UNL1       -0.4499
     20 C           1.3323    1.1242   39.3847 C.3     1  UNL1        0.4510
     21 F           0.9015   -0.1740   40.0002 F       1  UNL1       -0.1632
     22 F           0.5348    1.8748   40.4097 F       1  UNL1       -0.1632
     23 F           2.1298    0.3736   38.3598 F       1  UNL1       -0.1632
     24 S           7.1658   -3.0107   31.6885 S.O2    1  UNL1        0.0460
     25 O           6.1628   -3.2361   30.5962 O.2     1  UNL1       -0.1572
     26 O           8.1688   -2.7853   32.7807 O.2     1  UNL1       -0.1572
     27 C           7.9455   -4.2028   31.2185 C.3     1  UNL1        0.1958
     28 C           8.7572   -3.1129   29.7410 C.3     1  UNL1        0.0310
     29 C           8.1047   -4.4635   29.7499 C.3     1  UNL1        0.1509
     30 N           8.4002   -4.4418   28.2795 N.am    1  UNL1       -0.2825
     31 C           7.8970   -5.7245   27.6866 C.2     1  UNL1        0.3068
     32 O           7.9849   -6.1228   26.2431 O.2     1  UNL1       -0.2524
     33 N           7.2905   -6.5389   28.7906 N.am    1  UNL1       -0.2383
     34 C           7.4188   -5.7596   30.0658 C.2     1  UNL1        0.2469
     35 O           6.9446   -6.1992   31.4192 O.2     1  UNL1       -0.2729
     36 H           8.8461   -3.7135   27.7895 H       1  UNL1        0.1514
     37 H           6.8803   -7.4288   28.6951 H       1  UNL1        0.1591
@<TRIPOS>BOND
     1    29    28    1
     2    29    27    1
     3    27    24    1
     4    24    25    2
     5    24    26    2
     6    24     1    1
     7     1     2    1
     8     2     3    1
     9     3     4    1
    10     4     7    1
    11     7     8   ar
    12     8     9   ar
    13     9    10   ar
    14    10    13    1
    15    13    14    1
    16    14    15    1
    17    15    16   ar
    18    16    17   ar
    19    17    18   ar
    20    18    20    1
    21    20    21    1
    22    20    22    1
    23    20    23    1
    24    18    19   ar
    25    10    11   ar
    26    11    12   ar
    27     4     5    1
    28     5     6    1
    29    29    30    1
    30    30    31   am
    31    31    32    2
    32    31    33   am
    33    33    34   am
    34    34    35    2
    35    34    29    1
    36     6     1    1
    37    12     7   ar
    38    19    15   ar
    39    30    36    1
    40    33    37    1
@<TRIPOS>MOLECULE
*****
 37 40 0 0 0
SMALL
GASTEIGER

@<TRIPOS>ATOM
      1 N           7.2579   -4.0031   26.6037 N.3     1  UNL1       -0.1559
      2 C           7.6880   -5.0536   25.6231 C.3     1  UNL1        0.1169
      3 C           7.4743   -4.8405   24.1538 C.3     1  UNL1        0.1127
      4 N           6.8305   -3.5769   23.6651 N.pl3   1  UNL1       -0.2752
      5 C           6.4004   -2.5265   24.6456 C.3     1  UNL1        0.1127
      6 C           6.6140   -2.7396   26.1149 C.3     1  UNL1        0.1169
      7 C           6.6168   -3.3638   22.1957 C.ar    1  UNL1        0.2205
      8 N           7.4528   -2.3637   21.4535 N.ar    1  UNL1       -0.2089
      9 C           7.2391   -2.1507   19.9841 C.ar    1  UNL1        0.1402
     10 C           6.1894   -2.9377   19.2570 C.ar    1  UNL1        0.1775
     11 C           5.3534   -3.9378   19.9993 C.ar    1  UNL1        0.1402
     12 N           5.5671   -4.1509   21.4686 N.ar    1  UNL1       -0.2089
     13 O           5.9757   -2.7247   17.7877 O.3     1  UNL1       -0.4641
     14 C           5.6359   -1.3587   17.2696 C.3     1  UNL1        0.2691
     15 C           4.4950   -0.5914   17.8694 C.ar    1  UNL1        0.1667
     16 C           4.3169    0.8975   17.8311 C.ar    1  UNL1        0.0398
     17 C           3.0438    1.2308   18.5509 C.ar    1  UNL1        0.0444
     18 C           2.4350   -0.0522   19.0340 C.ar    1  UNL1        0.2163
     19 O           3.3319   -1.1783   18.6128 O.2     1  UNL1       -0.4499
     20 C           1.1542   -0.1855   19.8032 C.3     1  UNL1        0.4510
     21 F          -0.1266   -0.3189   20.5724 F       1  UNL1       -0.1632
     22 F           1.7338   -1.3380   20.5686 F       1  UNL1       -0.1632
     23 F           0.5745    0.9669   19.0378 F       1  UNL1       -0.1632
     24 S           7.4715   -4.2162   28.0731 S.O2    1  UNL1        0.0460
     25 O           6.0995   -4.8118   28.1861 O.2     1  UNL1       -0.1572
     26 O           8.8435   -3.6206   27.9600 O.2     1  UNL1       -0.1572
     27 C           7.6852   -4.4293   29.5424 C.3     1  UNL1        0.1958
     28 C           7.0408   -2.5282   29.5539 C.3     1  UNL1        0.0310
     29 C           6.8800   -3.6485   30.5383 C.3     1  UNL1        0.1509
     30 N           6.1084   -2.6334   31.3285 N.am    1  UNL1       -0.2825
     31 C           5.6390   -3.2897   32.5931 C.2     1  UNL1        0.3068
     32 O           4.8302   -2.6395   33.6761 O.2     1  UNL1       -0.2524
     33 N           6.1205   -4.7103   32.5844 N.am    1  UNL1       -0.2383
     34 C           6.8875   -4.9320   31.3145 C.2     1  UNL1        0.2469
     35 O           7.5462   -6.2125   30.8946 O.2     1  UNL1       -0.2729
     36 H           5.9396   -1.7004   31.0636 H       1  UNL1        0.1514
     37 H           5.9612   -5.3796   33.2886 H       1  UNL1        0.1591
@<TRIPOS>BOND
     1    29    28    1
     2    29    27    1
     3    27    24    1
     4    24    25    2
     5    24    26    2
     6    24     1    1
     7     1     2    1
     8     2     3    1
     9     3     4    1
    10     4     7    1
    11     7     8   ar
    12     8     9   ar
    13     9    10   ar
    14    10    13    1
    15    13    14    1
    16    14    15    1
    17    15    16   ar
    18    16    17   ar
    19    17    18   ar
    20    18    20    1
    21    20    21    1
    22    20    22    1
    23    20    23    1
    24    18    19   ar
    25    10    11   ar
    26    11    12   ar
    27     4     5    1
    28     5     6    1
    29    29    30    1
    30    30    31   am
    31    31    32    2
    32    31    33   am
    33    33    34   am
    34    34    35    2
    35    34    29    1
    36     6     1    1
    37    12     7   ar
    38    19    15   ar
    39    30    36    1
    40    33    37    1
@<TRIPOS>MOLECULE
*****
 37 40 0 0 0
SMALL
GASTEIGER

@<TRIPOS>ATOM
      1 N           1.6179    1.4814   19.3369 N.3     1  UNL1       -0.1559
      2 C           1.0612    1.0552   20.6629 C.3     1  UNL1        0.1169
      3 C          -0.1851    1.6985   21.1947 C.3     1  UNL1        0.1127
      4 N          -0.8747    2.7679   20.4005 N.pl3   1  UNL1       -0.2752
      5 C          -0.3180    3.1940   19.0744 C.3     1  UNL1        0.1127
      6 C           0.9283    2.5507   18.5426 C.3     1  UNL1        0.1169
      7 C          -2.1211    3.4112   20.9323 C.ar    1  UNL1        0.2205
      8 N          -2.0218    4.5886   21.8563 N.ar    1  UNL1       -0.2089
      9 C          -3.2682    5.2318   22.3882 C.ar    1  UNL1        0.1402
     10 C          -4.6138    4.6977   21.9960 C.ar    1  UNL1        0.1775
     11 C          -4.7131    3.5202   21.0719 C.ar    1  UNL1        0.1402
     12 N          -3.4668    2.8770   20.5401 N.ar    1  UNL1       -0.2089
     13 O          -5.8602    5.3409   22.5278 O.3     1  UNL1       -0.4641
     14 C          -6.5392    4.7728   23.7386 C.3     1  UNL1        0.2691
     15 C          -7.9192    5.2301   24.1084 C.ar    1  UNL1        0.1667
     16 C          -8.3215    6.6350   24.4465 C.ar    1  UNL1        0.0398
     17 C          -9.7901    6.6359   24.7520 C.ar    1  UNL1        0.0444
     18 C         -10.2954    5.2315   24.6025 C.ar    1  UNL1        0.2163
     19 O          -9.1392    4.3627   24.2048 O.2     1  UNL1       -0.4499
     20 C         -11.7089    4.7759   24.8138 C.3     1  UNL1        0.4510
     21 F         -13.1223    4.3204   25.0250 F       1  UNL1       -0.1632
     22 F         -11.2517    3.3475   24.7926 F       1  UNL1       -0.1632
     23 F         -12.1661    6.2044   24.8350 F       1  UNL1       -0.1632
     24 S           2.8643    0.8381   18.8050 S.O2    1  UNL1        0.0460
     25 O           3.3006    2.1550   18.2348 O.2     1  UNL1       -0.1572
     26 O           2.4280   -0.4789   19.3752 O.2     1  UNL1       -0.1572
     27 C           4.1106    0.1949   18.2732 C.3     1  UNL1        0.1958
     28 C           4.8496    0.0606   20.1348 C.3     1  UNL1        0.0310
     29 C           4.7472   -0.9389   19.0209 C.3     1  UNL1        0.1509
     30 N           5.4053   -1.8638   20.0016 N.am    1  UNL1       -0.2825
     31 C           5.5765   -3.1978   19.3375 C.2     1  UNL1        0.3068
     32 O           6.1919   -4.4181   19.9559 O.2     1  UNL1       -0.2524
     33 N           5.0243   -3.0975   17.9464 N.am    1  UNL1       -0.2383
     34 C           4.5118   -1.7014   17.7508 C.2     1  UNL1        0.2469
     35 O           3.8756   -1.1624   16.5039 O.2     1  UNL1       -0.2729
     36 H           5.6770   -1.6353   20.9199 H       1  UNL1        0.1514
     37 H           5.0022   -3.8209   17.2790 H       1  UNL1        0.1591
@<TRIPOS>BOND
     1    29    28    1
     2    29    27    1
     3    27    24    1
     4    24    25    2
     5    24    26    2
     6    24     1    1
     7     1     2    1
     8     2     3    1
     9     3     4    1
    10     4     7    1
    11     7     8   ar
    12     8     9   ar
    13     9    10   ar
    14    10    13    1
    15    13    14    1
    16    14    15    1
    17    15    16   ar
    18    16    17   ar
    19    17    18   ar
    20    18    20    1
    21    20    21    1
    22    20    22    1
    23    20    23    1
    24    18    19   ar
    25    10    11   ar
    26    11    12   ar
    27     4     5    1
    28     5     6    1
    29    29    30    1
    30    30    31   am
    31    31    32    2
    32    31    33   am
    33    33    34   am
    34    34    35    2
    35    34    29    1
    36     6     1    1
    37    12     7   ar
    38    19    15   ar
    39    30    36    1
    40    33    37    1
@<TRIPOS>MOLECULE
*****
 37 40 0 0 0
SMALL
GASTEIGER

@<TRIPOS>ATOM
      1 N           2.9679   -0.0037   18.7605 N.3     1  UNL1       -0.1559
      2 C           2.9654    1.4043   18.2434 C.3     1  UNL1        0.1169
      3 C           1.7930    2.3002   18.5129 C.3     1  UNL1        0.1127
      4 N           0.6230    1.7881   19.2995 N.pl3   1  UNL1       -0.2752
      5 C           0.6254    0.3801   19.8167 C.3     1  UNL1        0.1127
      6 C           1.7979   -0.5158   19.5471 C.3     1  UNL1        0.1169
      7 C          -0.5495    2.6841   19.5691 C.ar    1  UNL1        0.2205
      8 N          -0.8974    3.7757   18.6009 N.ar    1  UNL1       -0.2089
      9 C          -2.0699    4.6717   18.8705 C.ar    1  UNL1        0.1402
     10 C          -2.8944    4.4760   20.1081 C.ar    1  UNL1        0.1775
     11 C          -2.5465    3.3843   21.0763 C.ar    1  UNL1        0.1402
     12 N          -1.3740    2.4884   20.8068 N.ar    1  UNL1       -0.2089
     13 O          -4.0669    5.3719   20.3777 O.3     1  UNL1       -0.4641
     14 C          -5.3959    4.7789   20.7412 C.3     1  UNL1        0.2691
     15 C          -5.8263    4.7267   22.1772 C.ar    1  UNL1        0.1667
     16 C          -7.2377    4.8117   22.6782 C.ar    1  UNL1        0.0398
     17 C          -7.2047    4.7178   24.1748 C.ar    1  UNL1        0.0444
     18 C          -5.7730    4.5748   24.5989 C.ar    1  UNL1        0.2163
     19 O          -4.9211    4.5803   23.3642 O.2     1  UNL1       -0.4499
     20 C          -5.2797    4.4485   26.0098 C.3     1  UNL1        0.4510
     21 F          -4.7865    4.3222   27.4207 F       1  UNL1       -0.1632
     22 F          -6.2358    5.5213   26.4401 F       1  UNL1       -0.1632
     23 F          -4.3237    3.3757   25.5795 F       1  UNL1       -0.1632
     24 S           4.1404   -0.8996   18.4910 S.O2    1  UNL1        0.0460
     25 O           4.4406   -0.9485   19.9598 O.2     1  UNL1       -0.1572
     26 O           3.8401   -0.8508   17.0222 O.2     1  UNL1       -0.1572
     27 C           5.3128   -1.7956   18.2215 C.3     1  UNL1        0.1958
     28 C           4.2751   -3.3368   18.9813 C.3     1  UNL1        0.0310
     29 C           5.6812   -2.8653   19.2063 C.3     1  UNL1        0.1509
     30 N           5.7557   -4.0337   20.1441 N.am    1  UNL1       -0.2825
     31 C           7.1308   -4.0606   20.7428 C.2     1  UNL1        0.3068
     32 O           7.6409   -5.0632   21.7351 O.2     1  UNL1       -0.2524
     33 N           7.9062   -2.9089   20.1750 N.am    1  UNL1       -0.2383
     34 C           7.0103   -2.1702   19.2254 C.2     1  UNL1        0.2469
     35 O           7.3788   -0.9505   18.4339 O.2     1  UNL1       -0.2729
     36 H           5.0295   -4.6709   20.3334 H       1  UNL1        0.1514
     37 H           8.8392   -2.6783   20.3882 H       1  UNL1        0.1591
@<TRIPOS>BOND
     1    29    28    1
     2    29    27    1
     3    27    24    1
     4    24    25    2
     5    24    26    2
     6    24     1    1
     7     1     2    1
     8     2     3    1
     9     3     4    1
    10     4     7    1
    11     7     8   ar
    12     8     9   ar
    13     9    10   ar
    14    10    13    1
    15    13    14    1
    16    14    15    1
    17    15    16   ar
    18    16    17   ar
    19    17    18   ar
    20    18    20    1
    21    20    21    1
    22    20    22    1
    23    20    23    1
    24    18    19   ar
    25    10    11   ar
    26    11    12   ar
    27     4     5    1
    28     5     6    1
    29    29    30    1
    30    30    31   am
    31    31    32    2
    32    31    33   am
    33    33    34   am
    34    34    35    2
    35    34    29    1
    36     6     1    1
    37    12     7   ar
    38    19    15   ar
    39    30    36    1
    40    33    37    1
@<TRIPOS>MOLECULE
*****
 37 40 0 0 0
SMALL
GASTEIGER

@<TRIPOS>ATOM
      1 N           1.3804    1.7197   19.0335 N.3     1  UNL1       -0.1559
      2 C           0.7551    2.6870   18.0726 C.3     1  UNL1        0.1169
      3 C          -0.5185    3.3899   18.4383 C.3     1  UNL1        0.1127
      4 N          -1.1668    3.1256   19.7649 N.pl3   1  UNL1       -0.2752
      5 C          -0.5415    2.1583   20.7258 C.3     1  UNL1        0.1127
      6 C           0.7321    1.4554   20.3601 C.3     1  UNL1        0.1169
      7 C          -2.4405    3.8285   20.1306 C.ar    1  UNL1        0.2205
      8 N          -2.4468    5.3157   20.3263 N.ar    1  UNL1       -0.2089
      9 C          -3.7205    6.0186   20.6920 C.ar    1  UNL1        0.1402
     10 C          -4.9878    5.2344   20.8619 C.ar    1  UNL1        0.1775
     11 C          -4.9814    3.7472   20.6662 C.ar    1  UNL1        0.1402
     12 N          -3.7078    3.0443   20.3005 N.ar    1  UNL1       -0.2089
     13 O          -6.2614    5.9373   21.2276 O.3     1  UNL1       -0.4641
     14 C          -7.1029    5.4246   22.3586 C.3     1  UNL1        0.2691
     15 C          -6.4963    5.2308   23.7167 C.ar    1  UNL1        0.1667
     16 C          -6.9833    5.8449   24.9957 C.ar    1  UNL1        0.0398
     17 C          -6.0843    5.3825   26.1038 C.ar    1  UNL1        0.0444
     18 C          -5.0415    4.4826   25.5096 C.ar    1  UNL1        0.2163
     19 O          -5.2962    4.3888   24.0344 O.2     1  UNL1       -0.4499
     20 C          -3.9379    3.7968   26.2592 C.3     1  UNL1        0.4510
     21 F          -2.8344    3.1111   27.0087 F       1  UNL1       -0.1632
     22 F          -3.4156    3.2306   24.9721 F       1  UNL1       -0.1632
     23 F          -4.4603    4.3630   27.5463 F       1  UNL1       -0.1632
     24 S           2.6541    1.0168   18.6678 S.O2    1  UNL1        0.0460
     25 O           2.0606   -0.2881   19.1093 O.2     1  UNL1       -0.1572
     26 O           3.2476    2.3217   18.2263 O.2     1  UNL1       -0.1572
     27 C           3.9277    0.3138   18.3022 C.3     1  UNL1        0.1958
     28 C           4.2854    0.0434   20.2589 C.3     1  UNL1        0.0310
     29 C           4.3735   -0.8858   19.0846 C.3     1  UNL1        0.1509
     30 N           4.8009   -1.8911   20.1125 N.am    1  UNL1       -0.2825
     31 C           5.0600   -3.1909   19.4099 C.2     1  UNL1        0.3068
     32 O           5.5078   -4.4684   20.0561 O.2     1  UNL1       -0.2524
     33 N           4.7928   -2.9888   17.9478 N.am    1  UNL1       -0.2383
     34 C           4.3685   -1.5642   17.7468 C.2     1  UNL1        0.2469
     35 O           4.0033   -0.9294   16.4377 O.2     1  UNL1       -0.2729
     36 H           4.8949   -1.7268   21.0787 H       1  UNL1        0.1514
     37 H           4.8804   -3.6714   17.2438 H       1  UNL1        0.1591
@<TRIPOS>BOND
     1    29    28    1
     2    29    27    1
     3    27    24    1
     4    24    25    2
     5    24    26    2
     6    24     1    1
     7     1     2    1
     8     2     3    1
     9     3     4    1
    10     4     7    1
    11     7     8   ar
    12     8     9   ar
    13     9    10   ar
    14    10    13    1
    15    13    14    1
    16    14    15    1
    17    15    16   ar
    18    16    17   ar
    19    17    18   ar
    20    18    20    1
    21    20    21    1
    22    20    22    1
    23    20    23    1
    24    18    19   ar
    25    10    11   ar
    26    11    12   ar
    27     4     5    1
    28     5     6    1
    29    29    30    1
    30    30    31   am
    31    31    32    2
    32    31    33   am
    33    33    34   am
    34    34    35    2
    35    34    29    1
    36     6     1    1
    37    12     7   ar
    38    19    15   ar
    39    30    36    1
    40    33    37    1
@<TRIPOS>MOLECULE
*****
 37 40 0 0 0
SMALL
GASTEIGER

@<TRIPOS>ATOM
      1 N           2.7515   -0.1487   18.8391 N.3     1  UNL1       -0.1559
      2 C           2.7085    1.2321   18.2548 C.3     1  UNL1        0.1169
      3 C           1.5812    2.1586   18.6021 C.3     1  UNL1        0.1127
      4 N           0.4969    1.7044   19.5338 N.pl3   1  UNL1       -0.2752
      5 C           0.5399    0.3236   20.1181 C.3     1  UNL1        0.1127
      6 C           1.6672   -0.6029   19.7708 C.3     1  UNL1        0.1169
      7 C          -0.6304    2.6310   19.8811 C.ar    1  UNL1        0.2205
      8 N          -1.0960    3.6519   18.8856 N.ar    1  UNL1       -0.2089
      9 C          -2.2233    4.5785   19.2329 C.ar    1  UNL1        0.1402
     10 C          -2.8851    4.4842   20.5757 C.ar    1  UNL1        0.1775
     11 C          -2.4195    3.4633   21.5713 C.ar    1  UNL1        0.1402
     12 N          -1.2922    2.5367   21.2239 N.ar    1  UNL1       -0.2089
     13 O          -4.0124    5.4107   20.9231 O.3     1  UNL1       -0.4641
     14 C          -5.4217    4.8982   20.9550 C.3     1  UNL1        0.2691
     15 C          -6.1730    4.8499   22.2524 C.ar    1  UNL1        0.1667
     16 C          -5.5651    4.8468   23.6237 C.ar    1  UNL1        0.0398
     17 C          -6.6804    4.7912   24.6251 C.ar    1  UNL1        0.0444
     18 C          -7.9777    4.7598   23.8727 C.ar    1  UNL1        0.2163
     19 O          -7.6641    4.7961   22.4063 O.2     1  UNL1       -0.4499
     20 C          -9.3481    4.7022   24.4801 C.3     1  UNL1        0.4510
     21 F         -10.7183    4.6447   25.0874 F       1  UNL1       -0.1632
     22 F          -9.5340    3.3194   23.9295 F       1  UNL1       -0.1632
     23 F          -9.1621    6.0851   25.0307 F       1  UNL1       -0.1632
     24 S           3.8789   -1.0753   18.4918 S.O2    1  UNL1        0.0460
     25 O           4.2022   -1.2278   19.9486 O.2     1  UNL1       -0.1572
     26 O           3.5555   -0.9228   17.0351 O.2     1  UNL1       -0.1572
     27 C           5.0061   -2.0019   18.1446 C.3     1  UNL1        0.1958
     28 C           4.0890   -3.5739   18.9916 C.3     1  UNL1        0.0310
     29 C           5.4748   -3.0196   19.1419 C.3     1  UNL1        0.1509
     30 N           5.6537   -4.1532   20.1077 N.am    1  UNL1       -0.2825
     31 C           7.0520   -4.0868   20.6464 C.2     1  UNL1        0.3068
     32 O           7.6586   -5.0296   21.6431 O.2     1  UNL1       -0.2524
     33 N           7.7373   -2.9122   20.0135 N.am    1  UNL1       -0.2383
     34 C           6.7625   -2.2526   19.0837 C.2     1  UNL1        0.2469
     35 O           7.0288   -1.0391   18.2432 O.2     1  UNL1       -0.2729
     36 H           4.9728   -4.8232   20.3462 H       1  UNL1        0.1514
     37 H           8.6642   -2.6246   20.1793 H       1  UNL1        0.1591
@<TRIPOS>BOND
     1    29    28    1
     2    29    27    1
     3    27    24    1
     4    24    25    2
     5    24    26    2
     6    24     1    1
     7     1     2    1
     8     2     3    1
     9     3     4    1
    10     4     7    1
    11     7     8   ar
    12     8     9   ar
    13     9    10   ar
    14    10    13    1
    15    13    14    1
    16    14    15    1
    17    15    16   ar
    18    16    17   ar
    19    17    18   ar
    20    18    20    1
    21    20    21    1
    22    20    22    1
    23    20    23    1
    24    18    19   ar
    25    10    11   ar
    26    11    12   ar
    27     4     5    1
    28     5     6    1
    29    29    30    1
    30    30    31   am
    31    31    32    2
    32    31    33   am
    33    33    34   am
    34    34    35    2
    35    34    29    1
    36     6     1    1
    37    12     7   ar
    38    19    15   ar
    39    30    36    1
    40    33    37    1
@<TRIPOS>MOLECULE
*****
 37 40 0 0 0
SMALL
GASTEIGER

@<TRIPOS>ATOM
      1 N           6.2510   -3.7950   21.6411 N.3     1  UNL1       -0.1559
      2 C           7.5545   -4.5325   21.7248 C.3     1  UNL1        0.1169
      3 C           8.0898   -4.9601   23.0592 C.3     1  UNL1        0.1127
      4 N           7.3217   -4.6501   24.3098 N.pl3   1  UNL1       -0.2752
      5 C           6.0183   -3.9126   24.2260 C.3     1  UNL1        0.1127
      6 C           5.4829   -3.4850   22.8917 C.3     1  UNL1        0.1169
      7 C           7.8572   -5.0777   25.6442 C.ar    1  UNL1        0.2205
      8 N           8.9989   -4.3315   26.2683 N.ar    1  UNL1       -0.2089
      9 C           9.5344   -4.7591   27.6026 C.ar    1  UNL1        0.1402
     10 C           8.9280   -5.9330   28.3129 C.ar    1  UNL1        0.1775
     11 C           7.7862   -6.6792   27.6887 C.ar    1  UNL1        0.1402
     12 N           7.2508   -6.2516   26.3544 N.ar    1  UNL1       -0.2089
     13 O           9.4634   -6.3606   29.6472 O.3     1  UNL1       -0.4641
     14 C           8.5906   -6.2847   30.8648 C.3     1  UNL1        0.2691
     15 C           8.0352   -4.9637   31.3082 C.ar    1  UNL1        0.1667
     16 C           8.8359   -3.7691   31.7349 C.ar    1  UNL1        0.0398
     17 C           7.8772   -2.6725   32.0932 C.ar    1  UNL1        0.0444
     18 C           6.4840   -3.1894   31.8881 C.ar    1  UNL1        0.2163
     19 O           6.5817   -4.6054   31.4029 O.2     1  UNL1       -0.4499
     20 C           5.2159   -2.4245   32.1263 C.3     1  UNL1        0.4510
     21 F           3.9478   -1.6596   32.3644 F       1  UNL1       -0.1632
     22 F           4.9396   -3.2607   33.3405 F       1  UNL1       -0.1632
     23 F           5.4922   -1.5882   30.9120 F       1  UNL1       -0.1632
     24 S           5.7156   -3.3674   20.3067 S.O2    1  UNL1        0.0460
     25 O           5.7452   -1.9358   20.7536 O.2     1  UNL1       -0.1572
     26 O           5.6859   -4.7989   19.8598 O.2     1  UNL1       -0.1572
     27 C           5.1802   -2.9397   18.9724 C.3     1  UNL1        0.1958
     28 C           3.4125   -2.5958   19.8592 C.3     1  UNL1        0.0310
     29 C           4.2189   -1.7917   18.8829 C.3     1  UNL1        0.1509
     30 N           3.0890   -0.8118   18.9976 N.am    1  UNL1       -0.2825
     31 C           3.3981    0.3579   18.1108 C.2     1  UNL1        0.3068
     32 O           2.5374    1.5715   17.9201 O.2     1  UNL1       -0.2524
     33 N           4.7190    0.1008   17.4481 N.am    1  UNL1       -0.2383
     34 C           5.2263   -1.2277   17.9253 C.2     1  UNL1        0.2469
     35 O           6.5147   -1.8779   17.5166 O.2     1  UNL1       -0.2729
     36 H           2.2856   -0.9178   19.5566 H       1  UNL1        0.1514
     37 H           5.1733    0.6991   16.8117 H       1  UNL1        0.1591
@<TRIPOS>BOND
     1    29    28    1
     2    29    27    1
     3    27    24    1
     4    24    25    2
     5    24    26    2
     6    24     1    1
     7     1     2    1
     8     2     3    1
     9     3     4    1
    10     4     7    1
    11     7     8   ar
    12     8     9   ar
    13     9    10   ar
    14    10    13    1
    15    13    14    1
    16    14    15    1
    17    15    16   ar
    18    16    17   ar
    19    17    18   ar
    20    18    20    1
    21    20    21    1
    22    20    22    1
    23    20    23    1
    24    18    19   ar
    25    10    11   ar
    26    11    12   ar
    27     4     5    1
    28     5     6    1
    29    29    30    1
    30    30    31   am
    31    31    32    2
    32    31    33   am
    33    33    34   am
    34    34    35    2
    35    34    29    1
    36     6     1    1
    37    12     7   ar
    38    19    15   ar
    39    30    36    1
    40    33    37    1
