@<TRIPOS>MOLECULE
*****
 27 31 0 0 0
SMALL
GASTEIGER

@<TRIPOS>ATOM
      1 C          -8.5634  -15.8888   23.4062 C.2     1  UNL1        0.0322
      2 C          -8.9284  -15.3494   24.7574 C.2     1  UNL1        0.2321
      3 N          -7.9071  -15.3242   25.8557 N.2     1  UNL1       -0.0311
      4 C          -6.5209  -15.8385   25.6028 C.2     1  UNL1        0.3720
      5 N          -5.3117  -15.9403   26.4847 N.2     1  UNL1       -0.0308
      6 C          -4.1994  -16.5427   25.6784 C.2     1  UNL1        0.2355
      7 C          -4.7212  -16.8131   24.2983 C.2     1  UNL1        0.0469
      8 C          -6.1559  -16.3779   24.2516 C.2     1  UNL1        0.0740
      9 C          -7.1772  -16.4031   23.1533 C.3     1  UNL1        0.0646
     10 N         -12.6485  -15.9896   19.0128 N.pl3   1  UNL1       -0.3274
     11 C         -11.6273  -15.9644   20.1111 C.ar    1  UNL1        0.2137
     12 N         -11.8749  -16.7202   21.3829 N.ar    1  UNL1       -0.2125
     13 C         -10.8536  -16.6950   22.4813 C.ar    1  UNL1        0.1031
     14 C          -9.5847  -15.9141   22.3078 C.ar    1  UNL1        0.0385
     15 C          -9.3371  -15.1583   21.0360 C.ar    1  UNL1        0.1031
     16 N         -10.3583  -15.1835   19.9377 N.ar    1  UNL1       -0.2125
     17 H         -13.4813  -16.5022   19.1266 H       1  UNL1        0.1452
     18 H         -12.4859  -15.4936   18.1780 H       1  UNL1        0.1452
     19 C          -3.9447  -17.4134   23.1640 C.2     1  UNL1       -0.0140
     20 C          -4.2622  -18.8001   22.6887 C.2     1  UNL1       -0.0023
     21 C          -3.4856  -19.4004   21.5544 C.2     1  UNL1        0.0185
     22 C          -2.3914  -18.6139   20.8954 C.2     1  UNL1        0.0777
     23 N          -1.4624  -18.9402   19.7639 N.2     1  UNL1       -0.2442
     24 C          -0.5706  -17.7551   19.5400 C.2     1  UNL1        0.0985
     25 C          -0.9486  -16.6963   20.5330 C.2     1  UNL1        0.0182
     26 C          -2.0739  -17.2272   21.3708 C.2     1  UNL1        0.0014
     27 C          -2.8505  -16.6269   22.5051 C.3     1  UNL1        0.0543
@<TRIPOS>BOND
     1    10    11    1
     2    11    12   ar
     3    12    13   ar
     4    13    14   ar
     5    14     1    1
     6     1     2    2
     7     2     3    1
     8     3     4    2
     9     4     5    1
    10     5     6    2
    11     6     7    1
    12     7    19    1
    13    19    20    2
    14    20    21    1
    15    21    22    2
    16    22    23    1
    17    23    24    2
    18    24    25    1
    19    25    26    2
    20    26    27    1
    21     7     8    2
    22     8     9    1
    23    14    15   ar
    24    15    16   ar
    25    16    11   ar
    26     9     1    1
    27     8     4    1
    28    27    19    1
    29    26    22    1
    30    10    17    1
    31    10    18    1
@<TRIPOS>MOLECULE
*****
 27 31 0 0 0
SMALL
GASTEIGER

@<TRIPOS>ATOM
      1 C          -8.1266  -17.1499   23.5019 C.2     1  UNL1        0.0322
      2 C          -9.5564  -17.4179   23.1365 C.2     1  UNL1        0.2321
      3 N          -9.8794  -18.2332   21.9196 N.2     1  UNL1       -0.0311
      4 C          -8.7725  -18.7805   21.0680 C.2     1  UNL1        0.3720
      5 N          -8.7839  -19.6115   19.8192 N.2     1  UNL1       -0.0308
      6 C          -7.3611  -19.8571   19.4129 C.2     1  UNL1        0.2355
      7 C          -6.4703  -19.1779   20.4105 C.2     1  UNL1        0.0469
      8 C          -7.3426  -18.5125   21.4334 C.2     1  UNL1        0.0740
      9 C          -7.0196  -17.6972   22.6503 C.3     1  UNL1        0.0646
     10 N          -6.8346  -13.8888   28.3698 N.pl3   1  UNL1       -0.3274
     11 C          -7.1575  -14.7040   27.1528 C.ar    1  UNL1        0.2137
     12 N          -6.2016  -14.7379   25.9974 N.ar    1  UNL1       -0.2125
     13 C          -6.5246  -15.5532   24.7804 C.ar    1  UNL1        0.1031
     14 C          -7.8035  -16.3346   24.7189 C.ar    1  UNL1        0.0385
     15 C          -8.7594  -16.3008   25.8743 C.ar    1  UNL1        0.1031
     16 N          -8.4365  -15.4855   27.0913 N.ar    1  UNL1       -0.2125
     17 H          -5.9952  -13.3759   28.4101 H       1  UNL1        0.1452
     18 H          -7.4620  -13.8666   29.1281 H       1  UNL1        0.1452
     19 C          -4.9705  -19.1661   20.3890 C.2     1  UNL1       -0.0140
     20 C          -4.1996  -19.9624   21.3997 C.2     1  UNL1       -0.0023
     21 C          -2.6998  -19.9506   21.3782 C.2     1  UNL1        0.0185
     22 C          -1.9708  -19.1425   20.3459 C.2     1  UNL1        0.0777
     23 N          -0.5089  -18.9384   20.0796 N.2     1  UNL1       -0.2442
     24 C          -0.3762  -18.0160   18.9042 C.2     1  UNL1        0.0985
     25 C          -1.7562  -17.6500   18.4441 C.2     1  UNL1        0.0182
     26 C          -2.7417  -18.3462   19.3351 C.2     1  UNL1        0.0014
     27 C          -4.2415  -18.3580   19.3567 C.3     1  UNL1        0.0543
@<TRIPOS>BOND
     1    10    11    1
     2    11    12   ar
     3    12    13   ar
     4    13    14   ar
     5    14     1    1
     6     1     2    2
     7     2     3    1
     8     3     4    2
     9     4     5    1
    10     5     6    2
    11     6     7    1
    12     7    19    1
    13    19    20    2
    14    20    21    1
    15    21    22    2
    16    22    23    1
    17    23    24    2
    18    24    25    1
    19    25    26    2
    20    26    27    1
    21     7     8    2
    22     8     9    1
    23    14    15   ar
    24    15    16   ar
    25    16    11   ar
    26     9     1    1
    27     8     4    1
    28    27    19    1
    29    26    22    1
    30    10    17    1
    31    10    18    1
@<TRIPOS>MOLECULE
*****
 27 31 0 0 0
SMALL
GASTEIGER

@<TRIPOS>ATOM
      1 C          -4.5684  -16.6717   23.7789 C.2     1  UNL1        0.0322
      2 C          -4.1294  -16.1482   25.1143 C.2     1  UNL1        0.2321
      3 N          -5.1501  -15.6790   26.1082 N.2     1  UNL1       -0.0311
      4 C          -6.6097  -15.7332   25.7668 C.2     1  UNL1        0.3720
      5 N          -7.8360  -15.3436   26.5379 N.2     1  UNL1       -0.0308
      6 C          -9.0328  -15.6263   25.6789 C.2     1  UNL1        0.2355
      7 C          -8.5462  -16.1906   24.3771 C.2     1  UNL1        0.0469
      8 C          -7.0487  -16.2567   24.4314 C.2     1  UNL1        0.0740
      9 C          -6.0280  -16.7259   23.4375 C.3     1  UNL1        0.0646
     10 N          -0.4857  -18.5487   19.8028 N.pl3   1  UNL1       -0.3274
     11 C          -1.5063  -18.0794   20.7968 C.ar    1  UNL1        0.2137
     12 N          -1.6042  -16.6226   21.1403 N.ar    1  UNL1       -0.2125
     13 C          -2.6249  -16.1533   22.1344 C.ar    1  UNL1        0.1031
     14 C          -3.5477  -17.1409   22.7848 C.ar    1  UNL1        0.0385
     15 C          -3.4498  -18.5978   22.4413 C.ar    1  UNL1        0.1031
     16 N          -2.4291  -19.0670   21.4474 N.ar    1  UNL1       -0.2125
     17 H           0.1200  -17.9005   19.3759 H       1  UNL1        0.1452
     18 H          -0.4215  -19.5049   19.5774 H       1  UNL1        0.1452
     19 C          -9.4062  -16.6144   23.2235 C.2     1  UNL1       -0.0140
     20 C         -10.7235  -15.9390   22.9821 C.2     1  UNL1       -0.0023
     21 C         -11.5834  -16.3628   21.8285 C.2     1  UNL1        0.0185
     22 C         -11.1260  -17.4621   20.9162 C.2     1  UNL1        0.0777
     23 N         -11.7541  -18.0897   19.7072 N.2     1  UNL1       -0.2442
     24 C         -10.8250  -19.1530   19.2014 C.2     1  UNL1        0.0985
     25 C          -9.6226  -19.1826   20.0977 C.2     1  UNL1        0.0182
     26 C          -9.8087  -18.1375   21.1576 C.2     1  UNL1        0.0014
     27 C          -8.9488  -17.7137   22.3112 C.3     1  UNL1        0.0543
@<TRIPOS>BOND
     1    10    11    1
     2    11    12   ar
     3    12    13   ar
     4    13    14   ar
     5    14     1    1
     6     1     2    2
     7     2     3    1
     8     3     4    2
     9     4     5    1
    10     5     6    2
    11     6     7    1
    12     7    19    1
    13    19    20    2
    14    20    21    1
    15    21    22    2
    16    22    23    1
    17    23    24    2
    18    24    25    1
    19    25    26    2
    20    26    27    1
    21     7     8    2
    22     8     9    1
    23    14    15   ar
    24    15    16   ar
    25    16    11   ar
    26     9     1    1
    27     8     4    1
    28    27    19    1
    29    26    22    1
    30    10    17    1
    31    10    18    1
@<TRIPOS>MOLECULE
*****
 27 31 0 0 0
SMALL
GASTEIGER

@<TRIPOS>ATOM
      1 C           0.2652    1.9388   24.6749 C.2     1  UNL1        0.0322
      2 C          -0.6878    2.9789   24.1653 C.2     1  UNL1        0.2321
      3 N          -0.9251    3.1207   22.6910 N.2     1  UNL1       -0.0311
      4 C          -0.2092    2.2224   21.7263 C.2     1  UNL1        0.3720
      5 N          -0.2410    2.1284   20.2296 N.2     1  UNL1       -0.0308
      6 C           0.6924    1.0302   19.8142 C.2     1  UNL1        0.2355
      7 C           1.3011    0.4454   21.0542 C.2     1  UNL1        0.0469
      8 C           0.7438    1.1822   22.2360 C.2     1  UNL1        0.0740
      9 C           0.9810    1.0404   23.7103 C.3     1  UNL1        0.0646
     10 N           1.2144    1.3715   30.5722 N.pl3   1  UNL1       -0.3274
     11 C           0.9771    1.5133   29.0979 C.ar    1  UNL1        0.2137
     12 N          -0.4056    1.3454   28.5412 N.ar    1  UNL1       -0.2125
     13 C          -0.6429    1.4872   27.0669 C.ar    1  UNL1        0.1031
     14 C           0.5025    1.7970   26.1493 C.ar    1  UNL1        0.0385
     15 C           1.8852    1.9649   26.7060 C.ar    1  UNL1        0.1031
     16 N           2.1225    1.8231   28.1802 N.ar    1  UNL1       -0.2125
     17 H           0.4626    1.1682   31.1745 H       1  UNL1        0.1452
     18 H           2.1219    1.4818   30.9375 H       1  UNL1        0.1452
     19 C           2.2928   -0.6788   21.1038 C.2     1  UNL1       -0.0140
     20 C           3.0331   -0.9704   22.3754 C.2     1  UNL1       -0.0023
     21 C           4.0249   -2.0946   22.4250 C.2     1  UNL1        0.0185
     22 C           4.2764   -2.9273   21.2029 C.2     1  UNL1        0.0777
     23 N           5.1879   -4.0919   20.9521 N.2     1  UNL1       -0.2442
     24 C           5.0109   -4.5202   19.5255 C.2     1  UNL1        0.0985
     25 C           3.9901   -3.6202   18.8946 C.2     1  UNL1        0.0182
     26 C           3.5361   -2.6358   19.9314 C.2     1  UNL1        0.0014
     27 C           2.5444   -1.5115   19.8818 C.3     1  UNL1        0.0543
@<TRIPOS>BOND
     1    10    11    1
     2    11    12   ar
     3    12    13   ar
     4    13    14   ar
     5    14     1    1
     6     1     2    2
     7     2     3    1
     8     3     4    2
     9     4     5    1
    10     5     6    2
    11     6     7    1
    12     7    19    1
    13    19    20    2
    14    20    21    1
    15    21    22    2
    16    22    23    1
    17    23    24    2
    18    24    25    1
    19    25    26    2
    20    26    27    1
    21     7     8    2
    22     8     9    1
    23    14    15   ar
    24    15    16   ar
    25    16    11   ar
    26     9     1    1
    27     8     4    1
    28    27    19    1
    29    26    22    1
    30    10    17    1
    31    10    18    1
@<TRIPOS>MOLECULE
*****
 27 31 0 0 0
SMALL
GASTEIGER

@<TRIPOS>ATOM
      1 C           5.0579   -2.6595   23.4626 C.2     1  UNL1        0.0322
      2 C           5.9260   -3.8174   23.0680 C.2     1  UNL1        0.2321
      3 N           5.9796   -4.2608   21.6361 N.2     1  UNL1       -0.0311
      4 C           5.1652   -3.5463   20.5987 C.2     1  UNL1        0.3720
      5 N           5.0157   -3.7552   19.1208 N.2     1  UNL1       -0.0308
      6 C           4.0552   -2.7265   18.6020 C.2     1  UNL1        0.2355
      7 C           3.6111   -1.8817   19.7593 C.2     1  UNL1        0.0469
      8 C           4.2971   -2.3884   20.9932 C.2     1  UNL1        0.0740
      9 C           4.2435   -1.9450   22.4252 C.3     1  UNL1        0.0646
     10 N           4.8432   -0.8858   29.1904 N.pl3   1  UNL1       -0.3274
     11 C           4.8969   -1.3293   27.7585 C.ar    1  UNL1        0.2137
     12 N           6.0046   -2.2268   27.2923 N.ar    1  UNL1       -0.2125
     13 C           6.0583   -2.6702   25.8603 C.ar    1  UNL1        0.1031
     14 C           5.0042   -2.2161   24.8946 C.ar    1  UNL1        0.0385
     15 C           3.8965   -1.3186   25.3607 C.ar    1  UNL1        0.1031
     16 N           3.8428   -0.8752   26.7927 N.ar    1  UNL1       -0.2125
     17 H           5.5350   -1.1839   29.8243 H       1  UNL1        0.1452
     18 H           4.1161   -0.2968   29.4964 H       1  UNL1        0.1452
     19 C           2.6498   -0.7321   19.6940 C.2     1  UNL1       -0.0140
     20 C           1.2946   -0.8509   20.3257 C.2     1  UNL1       -0.0023
     21 C           0.3333    0.2987   20.2605 C.2     1  UNL1        0.0185
     22 C           0.7272    1.5672   19.5634 C.2     1  UNL1        0.0777
     23 N          -0.0031    2.8582   19.3401 N.2     1  UNL1       -0.2442
     24 C           0.9008    3.7749   18.5702 C.2     1  UNL1        0.0985
     25 C           2.1897    3.0504   18.3178 C.2     1  UNL1        0.0182
     26 C           2.0824    1.6859   18.9317 C.2     1  UNL1        0.0014
     27 C           3.0437    0.5363   18.9969 C.3     1  UNL1        0.0543
@<TRIPOS>BOND
     1    10    11    1
     2    11    12   ar
     3    12    13   ar
     4    13    14   ar
     5    14     1    1
     6     1     2    2
     7     2     3    1
     8     3     4    2
     9     4     5    1
    10     5     6    2
    11     6     7    1
    12     7    19    1
    13    19    20    2
    14    20    21    1
    15    21    22    2
    16    22    23    1
    17    23    24    2
    18    24    25    1
    19    25    26    2
    20    26    27    1
    21     7     8    2
    22     8     9    1
    23    14    15   ar
    24    15    16   ar
    25    16    11   ar
    26     9     1    1
    27     8     4    1
    28    27    19    1
    29    26    22    1
    30    10    17    1
    31    10    18    1
@<TRIPOS>MOLECULE
*****
 27 31 0 0 0
SMALL
GASTEIGER

@<TRIPOS>ATOM
      1 C           0.1973    1.8779   23.3601 C.2     1  UNL1        0.0322
      2 C          -0.6298    2.8532   22.5761 C.2     1  UNL1        0.2321
      3 N          -0.6009    2.8259   21.0767 N.2     1  UNL1       -0.0311
      4 C           0.2550    1.8231   20.3612 C.2     1  UNL1        0.3720
      5 N           0.4853    1.5590   18.9026 N.2     1  UNL1       -0.0308
      6 C           1.4547    0.4203   18.7852 C.2     1  UNL1        0.2355
      7 C           1.8235   -0.0192   20.1712 C.2     1  UNL1        0.0469
      8 C           1.0821    0.8478   21.1451 C.2     1  UNL1        0.0740
      9 C           1.0532    0.8752   22.6446 C.3     1  UNL1        0.0646
     10 N           0.0820    1.9872   29.3580 N.pl3   1  UNL1       -0.3274
     11 C           0.1108    1.9599   27.8586 C.ar    1  UNL1        0.2137
     12 N          -1.0506    2.4976   27.0762 N.ar    1  UNL1       -0.2125
     13 C          -1.0217    2.4702   25.5767 C.ar    1  UNL1        0.1031
     14 C           0.1684    1.9052   24.8596 C.ar    1  UNL1        0.0385
     15 C           1.3298    1.3675   25.6420 C.ar    1  UNL1        0.1031
     16 N           1.3010    1.3948   27.1414 N.ar    1  UNL1       -0.2125
     17 H          -0.6991    2.3580   29.8287 H       1  UNL1        0.1452
     18 H           0.8442    1.6343   29.8715 H       1  UNL1        0.1452
     19 C           2.7680   -1.1306   20.5216 C.2     1  UNL1       -0.0140
     20 C           3.1829   -2.1206   19.4740 C.2     1  UNL1       -0.0023
     21 C           4.1273   -3.2320   19.8244 C.2     1  UNL1        0.0185
     22 C           4.6569   -3.3534   21.2226 C.2     1  UNL1        0.0777
     23 N           5.5945   -4.3362   21.8590 N.2     1  UNL1       -0.2442
     24 C           5.7590   -3.9535   23.2999 C.2     1  UNL1        0.0985
     25 C           4.9231   -2.7343   23.5541 C.2     1  UNL1        0.0182
     26 C           4.2420   -2.3633   22.2702 C.2     1  UNL1        0.0014
     27 C           3.2975   -1.2519   21.9198 C.3     1  UNL1        0.0543
@<TRIPOS>BOND
     1    10    11    1
     2    11    12   ar
     3    12    13   ar
     4    13    14   ar
     5    14     1    1
     6     1     2    2
     7     2     3    1
     8     3     4    2
     9     4     5    1
    10     5     6    2
    11     6     7    1
    12     7    19    1
    13    19    20    2
    14    20    21    1
    15    21    22    2
    16    22    23    1
    17    23    24    2
    18    24    25    1
    19    25    26    2
    20    26    27    1
    21     7     8    2
    22     8     9    1
    23    14    15   ar
    24    15    16   ar
    25    16    11   ar
    26     9     1    1
    27     8     4    1
    28    27    19    1
    29    26    22    1
    30    10    17    1
    31    10    18    1
@<TRIPOS>MOLECULE
*****
 27 31 0 0 0
SMALL
GASTEIGER

@<TRIPOS>ATOM
      1 C           3.1531   -0.0790   18.7926 C.2     1  UNL1        0.0322
      2 C           3.3802   -0.2532   17.3202 C.2     1  UNL1        0.2321
      3 N           4.6151   -0.9485   16.8289 N.2     1  UNL1       -0.0311
      4 C           5.6230   -1.4696   17.8100 C.2     1  UNL1        0.3720
      5 N           6.9248   -2.1913   17.6239 N.2     1  UNL1       -0.0308
      6 C           7.5022   -2.4632   18.9813 C.2     1  UNL1        0.2355
      7 C           6.5573   -1.9094   20.0064 C.2     1  UNL1        0.0469
      8 C           5.3960   -1.2953   19.2824 C.2     1  UNL1        0.0740
      9 C           4.1610   -0.6000   19.7737 C.3     1  UNL1        0.0646
     10 N          -1.7867    2.7024   20.7579 N.pl3   1  UNL1       -0.3274
     11 C          -0.5518    2.0070   20.2666 C.ar    1  UNL1        0.2137
     12 N          -0.2328    0.6203   20.7412 N.ar    1  UNL1       -0.2125
     13 C           1.0022   -0.0750   20.2499 C.ar    1  UNL1        0.1031
     14 C           1.9181    0.6164   19.2840 C.ar    1  UNL1        0.0385
     15 C           1.5991    2.0031   18.8094 C.ar    1  UNL1        0.1031
     16 N           0.3642    2.6984   19.3007 N.ar    1  UNL1       -0.2125
     17 H          -2.3879    2.2486   21.3919 H       1  UNL1        0.1452
     18 H          -1.9961    3.6125   20.4465 H       1  UNL1        0.1452
     19 C           6.7415   -1.9607   21.4941 C.2     1  UNL1       -0.0140
     20 C           7.0179   -0.7007   22.2596 C.2     1  UNL1       -0.0023
     21 C           7.2021   -0.7521   23.7473 C.2     1  UNL1        0.0185
     22 C           7.1099   -2.0634   24.4697 C.2     1  UNL1        0.0777
     23 N           7.2458   -2.4223   25.9197 N.2     1  UNL1       -0.2442
     24 C           7.0534   -3.9041   26.0505 C.2     1  UNL1        0.0985
     25 C           6.7986   -4.4611   24.6813 C.2     1  UNL1        0.0182
     26 C           6.8335   -3.3234   23.7042 C.2     1  UNL1        0.0014
     27 C           6.6493   -3.2721   22.2165 C.3     1  UNL1        0.0543
@<TRIPOS>BOND
     1    10    11    1
     2    11    12   ar
     3    12    13   ar
     4    13    14   ar
     5    14     1    1
     6     1     2    2
     7     2     3    1
     8     3     4    2
     9     4     5    1
    10     5     6    2
    11     6     7    1
    12     7    19    1
    13    19    20    2
    14    20    21    1
    15    21    22    2
    16    22    23    1
    17    23    24    2
    18    24    25    1
    19    25    26    2
    20    26    27    1
    21     7     8    2
    22     8     9    1
    23    14    15   ar
    24    15    16   ar
    25    16    11   ar
    26     9     1    1
    27     8     4    1
    28    27    19    1
    29    26    22    1
    30    10    17    1
    31    10    18    1
@<TRIPOS>MOLECULE
*****
 27 31 0 0 0
SMALL
GASTEIGER

@<TRIPOS>ATOM
      1 C           4.2995   -2.1670   21.0730 C.2     1  UNL1        0.0322
      2 C           4.8176   -2.6601   19.7546 C.2     1  UNL1        0.2321
      3 N           5.9916   -3.5928   19.7116 N.2     1  UNL1       -0.0311
      4 C           6.6475   -4.0322   20.9870 C.2     1  UNL1        0.3720
      5 N           7.8124   -4.9381   21.2562 N.2     1  UNL1       -0.0308
      6 C           8.0143   -5.0048   22.7411 C.2     1  UNL1        0.2355
      7 C           6.9741   -4.1401   23.3895 C.2     1  UNL1        0.0469
      8 C           6.1294   -3.5391   22.3054 C.2     1  UNL1        0.0740
      9 C           4.9554   -2.6064   22.3485 C.3     1  UNL1        0.0646
     10 N          -0.3965    1.5638   21.2454 N.pl3   1  UNL1       -0.3274
     11 C           0.7775    0.6311   21.2023 C.ar    1  UNL1        0.2137
     12 N           0.9581   -0.2938   20.0353 N.ar    1  UNL1       -0.2125
     13 C           2.1322   -1.2265   19.9922 C.ar    1  UNL1        0.1031
     14 C           3.1255   -1.2343   21.1161 C.ar    1  UNL1        0.0385
     15 C           2.9449   -0.3093   22.2831 C.ar    1  UNL1        0.1031
     16 N           1.7709    0.6233   22.3262 N.ar    1  UNL1       -0.2125
     17 H          -1.0484    1.5689   20.5078 H       1  UNL1        0.1452
     18 H          -0.5150    2.1708   22.0114 H       1  UNL1        0.1452
     19 C           6.8078   -3.9158   24.8633 C.2     1  UNL1       -0.0140
     20 C           6.4039   -2.5651   25.3756 C.2     1  UNL1       -0.0023
     21 C           6.2376   -2.3409   26.8493 C.2     1  UNL1        0.0185
     22 C           6.4753   -3.4673   27.8109 C.2     1  UNL1        0.0777
     23 N           6.3896   -3.5453   29.3064 N.2     1  UNL1       -0.2442
     24 C           6.7406   -4.9442   29.7184 C.2     1  UNL1        0.0985
     25 C           7.0432   -5.7308   28.4776 C.2     1  UNL1        0.0182
     26 C           6.8792   -4.8180   27.2986 C.2     1  UNL1        0.0014
     27 C           7.0455   -5.0423   25.8249 C.3     1  UNL1        0.0543
@<TRIPOS>BOND
     1    10    11    1
     2    11    12   ar
     3    12    13   ar
     4    13    14   ar
     5    14     1    1
     6     1     2    2
     7     2     3    1
     8     3     4    2
     9     4     5    1
    10     5     6    2
    11     6     7    1
    12     7    19    1
    13    19    20    2
    14    20    21    1
    15    21    22    2
    16    22    23    1
    17    23    24    2
    18    24    25    1
    19    25    26    2
    20    26    27    1
    21     7     8    2
    22     8     9    1
    23    14    15   ar
    24    15    16   ar
    25    16    11   ar
    26     9     1    1
    27     8     4    1
    28    27    19    1
    29    26    22    1
    30    10    17    1
    31    10    18    1
@<TRIPOS>MOLECULE
*****
 27 31 0 0 0
SMALL
GASTEIGER

@<TRIPOS>ATOM
      1 C           4.4290   -1.8922   24.1175 C.2     1  UNL1        0.0322
      2 C           5.6224   -2.3078   24.9255 C.2     1  UNL1        0.2321
      3 N           5.8036   -1.7844   26.3195 N.2     1  UNL1       -0.0311
      4 C           4.7912   -0.8454   26.9055 C.2     1  UNL1        0.3720
      5 N           4.7036   -0.1708   28.2424 N.2     1  UNL1       -0.0308
      6 C           3.4560    0.6616   28.2607 C.2     1  UNL1        0.2355
      7 C           2.7725    0.5016   26.9351 C.2     1  UNL1        0.0469
      8 C           3.5977   -0.4298   26.0975 C.2     1  UNL1        0.0740
      9 C           3.4166   -0.9532   24.7036 C.3     1  UNL1        0.0646
     10 N           3.7044   -3.9858   18.5415 N.pl3   1  UNL1       -0.3274
     11 C           3.8855   -3.4624   19.9355 C.ar    1  UNL1        0.2137
     12 N           3.4116   -2.0832   20.2862 N.ar    1  UNL1       -0.2125
     13 C           3.5927   -1.5598   21.6803 C.ar    1  UNL1        0.1031
     14 C           4.2478   -2.4156   22.7235 C.ar    1  UNL1        0.0385
     15 C           4.7217   -3.7949   22.3728 C.ar    1  UNL1        0.1031
     16 N           4.5406   -4.3183   20.9788 N.ar    1  UNL1       -0.2125
     17 H           3.2744   -3.4241   17.8568 H       1  UNL1        0.1452
     18 H           4.0154   -4.8911   18.3113 H       1  UNL1        0.1452
     19 C           1.4891    1.1577   26.5199 C.2     1  UNL1       -0.0140
     20 C           0.3220    1.1855   27.4617 C.2     1  UNL1       -0.0023
     21 C          -0.9614    1.8416   27.0465 C.2     1  UNL1        0.0185
     22 C          -1.0777    2.4701   25.6894 C.2     1  UNL1        0.0777
     23 N          -2.2068    3.1839   25.0074 N.2     1  UNL1       -0.2442
     24 C          -1.7376    3.5974   23.6440 C.2     1  UNL1        0.0985
     25 C          -0.3184    3.1390   23.4834 C.2     1  UNL1        0.0182
     26 C           0.0895    2.4423   24.7476 C.2     1  UNL1        0.0014
     27 C           1.3728    1.7861   25.1628 C.3     1  UNL1        0.0543
@<TRIPOS>BOND
     1    10    11    1
     2    11    12   ar
     3    12    13   ar
     4    13    14   ar
     5    14     1    1
     6     1     2    2
     7     2     3    1
     8     3     4    2
     9     4     5    1
    10     5     6    2
    11     6     7    1
    12     7    19    1
    13    19    20    2
    14    20    21    1
    15    21    22    2
    16    22    23    1
    17    23    24    2
    18    24    25    1
    19    25    26    2
    20    26    27    1
    21     7     8    2
    22     8     9    1
    23    14    15   ar
    24    15    16   ar
    25    16    11   ar
    26     9     1    1
    27     8     4    1
    28    27    19    1
    29    26    22    1
    30    10    17    1
    31    10    18    1
