@<TRIPOS>MOLECULE
*****
 21 25 0 0 0
SMALL
GASTEIGER

@<TRIPOS>ATOM
      1 O          -9.6762  -19.6287   21.1538 O.2     1  UNL1       -0.2702
      2 C          -8.5639  -18.8402   21.7791 C.2     1  UNL1        0.2460
      3 C          -7.1799  -19.2992   21.3992 C.2     1  UNL1        0.0421
      4 C          -6.7130  -20.4084   20.5038 C.2     1  UNL1        0.0010
      5 C          -5.2451  -20.6431   20.3036 C.2     1  UNL1        0.0011
      6 C          -4.2441  -19.7686   20.9988 C.2     1  UNL1        0.0172
      7 C          -4.7110  -18.6594   21.8941 C.2     1  UNL1        0.0897
      8 N          -3.9641  -17.6427   22.7056 N.2     1  UNL1       -0.1522
      9 N          -4.9705  -16.7796   23.4073 N.2     1  UNL1       -0.1546
     10 C          -6.3393  -17.2629   23.0295 C.2     1  UNL1        0.0878
     11 C          -6.1789  -18.4247   22.0943 C.3     1  UNL1        0.1080
     12 C          -7.7669  -16.9098   23.3246 C.3     1  UNL1        0.1376
     13 N          -8.8792  -17.6984   22.6994 N.am    1  UNL1       -0.2711
     14 C         -11.5426  -17.4998   22.8799 C.3     1  UNL1        0.0919
     15 C         -11.9487  -18.2748   23.9163 C.3     1  UNL1        0.0921
     16 N         -12.2425  -18.7312   24.5355 N.3     1  UNL1       -0.2713
     17 C         -13.2507  -17.9619   23.7342 C.3     1  UNL1        0.0722
     18 C         -12.8016  -17.1048   22.5880 C.3     1  UNL1        0.0191
     19 C         -11.3445  -17.0170   22.2431 C.3     1  UNL1        0.0224
     20 C         -10.3364  -17.7862   23.0444 C.3     1  UNL1        0.0191
     21 C         -10.7854  -18.6433   24.1905 C.3     1  UNL1        0.0722
@<TRIPOS>BOND
     1     1     2    2
     2     2     3    1
     3     3     4    2
     4     4     5    1
     5     5     6    2
     6     6     7    1
     7     7     8    2
     8     8     9    1
     9     9    10    2
    10    10    11    1
    11    10    12    1
    12    12    13    1
    13    14    13    1
    14    14    15    1
    15    15    16    1
    16    16    17    1
    17    17    18    1
    18    18    19    1
    19    19    20    1
    20    20    21    1
    21    13     2   am
    22    19    14    1
    23    11     3    1
    24    21    16    1
    25    11     7    1
@<TRIPOS>MOLECULE
*****
 21 25 0 0 0
SMALL
GASTEIGER

@<TRIPOS>ATOM
      1 O          -8.2806  -18.7944   19.5123 O.2     1  UNL1       -0.2702
      2 C          -8.7662  -19.0543   20.9075 C.2     1  UNL1        0.2460
      3 C         -10.1513  -18.5359   21.1957 C.2     1  UNL1        0.0421
      4 C         -11.1360  -17.8031   20.3336 C.2     1  UNL1        0.0010
      5 C         -12.4684  -17.4006   20.8927 C.2     1  UNL1        0.0011
      6 C         -12.8160  -17.7309   22.3140 C.2     1  UNL1        0.0172
      7 C         -11.8313  -18.4636   23.1762 C.2     1  UNL1        0.0897
      8 N         -11.8931  -18.9230   24.6027 N.2     1  UNL1       -0.1522
      9 N         -10.5990  -19.6094   24.9253 N.2     1  UNL1       -0.1546
     10 C          -9.7373  -19.5743   23.6980 C.2     1  UNL1        0.0878
     11 C         -10.4989  -18.8661   22.6170 C.3     1  UNL1        0.1080
     12 C          -8.3737  -20.0387   23.2797 C.3     1  UNL1        0.1376
     13 N          -7.8881  -19.7788   21.8845 N.am    1  UNL1       -0.2711
     14 C          -5.5939  -20.3762   20.6414 C.3     1  UNL1        0.0919
     15 C          -4.7023  -19.3920   20.9172 C.3     1  UNL1        0.0921
     16 N          -4.1274  -18.8192   21.0563 N.3     1  UNL1       -0.2713
     17 C          -3.7260  -19.9722   20.1848 C.3     1  UNL1        0.0722
     18 C          -4.7120  -21.0607   19.8799 C.3     1  UNL1        0.0191
     19 C          -6.0993  -20.9962   20.4464 C.3     1  UNL1        0.0224
     20 C          -6.5007  -19.8432   21.3179 C.3     1  UNL1        0.0191
     21 C          -5.5148  -18.7547   21.6229 C.3     1  UNL1        0.0722
@<TRIPOS>BOND
     1     1     2    2
     2     2     3    1
     3     3     4    2
     4     4     5    1
     5     5     6    2
     6     6     7    1
     7     7     8    2
     8     8     9    1
     9     9    10    2
    10    10    11    1
    11    10    12    1
    12    12    13    1
    13    14    13    1
    14    14    15    1
    15    15    16    1
    16    16    17    1
    17    17    18    1
    18    18    19    1
    19    19    20    1
    20    20    21    1
    21    13     2   am
    22    19    14    1
    23    11     3    1
    24    21    16    1
    25    11     7    1
@<TRIPOS>MOLECULE
*****
 21 25 0 0 0
SMALL
GASTEIGER

@<TRIPOS>ATOM
      1 O          -8.1009  -20.2573   23.1142 O.2     1  UNL1       -0.2702
      2 C          -9.0019  -19.4966   22.1871 C.2     1  UNL1        0.2460
      3 C         -10.3128  -19.0714   22.7962 C.2     1  UNL1        0.0421
      4 C         -10.8809  -19.2733   24.1697 C.2     1  UNL1        0.0010
      5 C         -12.2380  -18.7309   24.5072 C.2     1  UNL1        0.0011
      6 C         -13.0272  -17.9867   23.4711 C.2     1  UNL1        0.0172
      7 C         -12.4591  -17.7848   22.0976 C.2     1  UNL1        0.0897
      8 N         -12.9999  -17.0977   20.8788 N.2     1  UNL1       -0.1522
      9 N         -11.9769  -17.2154   19.7881 N.2     1  UNL1       -0.1546
     10 C         -10.8039  -17.9752   20.3328 C.2     1  UNL1        0.0878
     11 C         -11.1020  -18.3271   21.7602 C.3     1  UNL1        0.1080
     12 C          -9.4675  -18.4575   19.8518 C.3     1  UNL1        0.1376
     13 N          -8.5665  -19.2182   20.7789 N.am    1  UNL1       -0.2711
     14 C          -6.1339  -20.2844   20.4448 C.3     1  UNL1        0.0919
     15 C          -5.2207  -19.3859   20.8900 C.3     1  UNL1        0.0921
     16 N          -4.6302  -18.8732   21.1478 N.3     1  UNL1       -0.2713
     17 C          -4.1769  -20.1915   20.5937 C.3     1  UNL1        0.0722
     18 C          -5.1869  -21.1852   20.1014 C.3     1  UNL1        0.0191
     19 C          -6.6501  -20.8608   20.1631 C.3     1  UNL1        0.0224
     20 C          -7.1033  -19.5426   20.7172 C.3     1  UNL1        0.0191
     21 C          -6.0933  -18.5488   21.2095 C.3     1  UNL1        0.0722
@<TRIPOS>BOND
     1     1     2    2
     2     2     3    1
     3     3     4    2
     4     4     5    1
     5     5     6    2
     6     6     7    1
     7     7     8    2
     8     8     9    1
     9     9    10    2
    10    10    11    1
    11    10    12    1
    12    12    13    1
    13    14    13    1
    14    14    15    1
    15    15    16    1
    16    16    17    1
    17    17    18    1
    18    18    19    1
    19    19    20    1
    20    20    21    1
    21    13     2   am
    22    19    14    1
    23    11     3    1
    24    21    16    1
    25    11     7    1
@<TRIPOS>MOLECULE
*****
 21 25 0 0 0
SMALL
GASTEIGER

@<TRIPOS>ATOM
      1 O          -9.1277  -16.1707   23.7540 O.2     1  UNL1       -0.2702
      2 C          -8.3870  -17.2833   23.0732 C.2     1  UNL1        0.2460
      3 C          -6.8868  -17.1977   23.1849 C.2     1  UNL1        0.0421
      4 C          -5.9974  -16.1947   23.8579 C.2     1  UNL1        0.0010
      5 C          -4.5075  -16.3613   23.8085 C.2     1  UNL1        0.0011
      6 C          -3.9071  -17.5307   23.0861 C.2     1  UNL1        0.0172
      7 C          -4.7965  -18.5337   22.4131 C.2     1  UNL1        0.0897
      8 N          -4.4949  -19.7780   21.6317 N.2     1  UNL1       -0.1522
      9 N          -5.7984  -20.3805   21.1981 N.2     1  UNL1       -0.1546
     10 C          -6.9056  -19.5086   21.7116 C.2     1  UNL1        0.0878
     11 C          -6.2864  -18.3671   22.4625 C.3     1  UNL1        0.1080
     12 C          -8.4048  -19.4741   21.6765 C.3     1  UNL1        0.1376
     13 N          -9.1455  -18.3614   22.3573 N.am    1  UNL1       -0.2711
     14 C         -11.7575  -17.8273   22.5983 C.3     1  UNL1        0.0919
     15 C         -12.1767  -18.3267   23.7876 C.3     1  UNL1        0.0921
     16 N         -12.4773  -18.6128   24.4987 N.3     1  UNL1       -0.2713
     17 C         -13.4479  -17.9099   23.5965 C.3     1  UNL1        0.0722
     18 C         -12.9843  -17.3575   22.2812 C.3     1  UNL1        0.0191
     19 C         -11.5502  -17.5080   21.8682 C.3     1  UNL1        0.0224
     20 C         -10.5796  -18.2109   22.7704 C.3     1  UNL1        0.0191
     21 C         -11.0432  -18.7633   24.0857 C.3     1  UNL1        0.0722
@<TRIPOS>BOND
     1     1     2    2
     2     2     3    1
     3     3     4    2
     4     4     5    1
     5     5     6    2
     6     6     7    1
     7     7     8    2
     8     8     9    1
     9     9    10    2
    10    10    11    1
    11    10    12    1
    12    12    13    1
    13    14    13    1
    14    14    15    1
    15    15    16    1
    16    16    17    1
    17    17    18    1
    18    18    19    1
    19    19    20    1
    20    20    21    1
    21    13     2   am
    22    19    14    1
    23    11     3    1
    24    21    16    1
    25    11     7    1
@<TRIPOS>MOLECULE
*****
 21 25 0 0 0
SMALL
GASTEIGER

@<TRIPOS>ATOM
      1 O          -6.9394  -17.9030   23.1115 O.2     1  UNL1       -0.2702
      2 C          -8.3347  -17.4246   22.8385 C.2     1  UNL1        0.2460
      3 C          -8.9927  -18.0619   21.6422 C.2     1  UNL1        0.0421
      4 C          -8.5005  -19.0936   20.6710 C.2     1  UNL1        0.0010
      5 C          -9.3873  -19.5537   19.5521 C.2     1  UNL1        0.0011
      6 C         -10.7662  -18.9822   19.4045 C.2     1  UNL1        0.0172
      7 C         -11.2584  -17.9505   20.3757 C.2     1  UNL1        0.0897
      8 N         -12.5599  -17.2124   20.4822 N.2     1  UNL1       -0.1522
      9 N         -12.4775  -16.2960   21.6669 N.2     1  UNL1       -0.1546
     10 C         -11.1251  -16.4678   22.2926 C.2     1  UNL1        0.0878
     11 C         -10.3717  -17.4904   21.4945 C.3     1  UNL1        0.1080
     12 C         -10.3562  -15.9134   23.4551 C.3     1  UNL1        0.1376
     13 N          -8.9609  -16.3918   23.7280 N.am    1  UNL1       -0.2711
     14 C          -7.1819  -15.7514   25.6229 C.3     1  UNL1        0.0919
     15 C          -6.1244  -15.1562   25.0172 C.3     1  UNL1        0.0921
     16 N          -5.4610  -14.7901   24.6949 N.3     1  UNL1       -0.2713
     17 C          -5.4654  -14.9765   26.1832 C.3     1  UNL1        0.0722
     18 C          -6.6350  -15.6348   26.8532 C.3     1  UNL1        0.0191
     19 C          -7.8001  -16.1065   26.0348 C.3     1  UNL1        0.0224
     20 C          -7.7958  -15.9200   24.5464 C.3     1  UNL1        0.0191
     21 C          -6.6262  -15.2618   23.8765 C.3     1  UNL1        0.0722
@<TRIPOS>BOND
     1     1     2    2
     2     2     3    1
     3     3     4    2
     4     4     5    1
     5     5     6    2
     6     6     7    1
     7     7     8    2
     8     8     9    1
     9     9    10    2
    10    10    11    1
    11    10    12    1
    12    12    13    1
    13    14    13    1
    14    14    15    1
    15    15    16    1
    16    16    17    1
    17    17    18    1
    18    18    19    1
    19    19    20    1
    20    20    21    1
    21    13     2   am
    22    19    14    1
    23    11     3    1
    24    21    16    1
    25    11     7    1
@<TRIPOS>MOLECULE
*****
 21 25 0 0 0
SMALL
GASTEIGER

@<TRIPOS>ATOM
      1 O          -5.5750  -17.4997   22.5177 O.2     1  UNL1       -0.2702
      2 C          -6.7315  -18.1296   21.7995 C.2     1  UNL1        0.2460
      3 C          -8.0787  -17.8470   22.4125 C.2     1  UNL1        0.0421
      4 C          -8.4723  -17.0451   23.6174 C.2     1  UNL1        0.0010
      5 C          -9.9172  -16.9321   24.0037 C.2     1  UNL1        0.0011
      6 C         -10.9686  -17.6209   23.1851 C.2     1  UNL1        0.0172
      7 C         -10.5749  -18.4228   21.9801 C.2     1  UNL1        0.0897
      8 N         -11.3825  -19.2064   20.9883 N.2     1  UNL1       -0.1522
      9 N         -10.4367  -19.8038   19.9890 N.2     1  UNL1       -0.1546
     10 C          -9.0445  -19.3893   20.3632 C.2     1  UNL1        0.0878
     11 C          -9.1300  -18.5358   21.5938 C.3     1  UNL1        0.1080
     12 C          -7.6472  -19.5917   19.8568 C.3     1  UNL1        0.1376
     13 N          -6.4906  -18.9619   20.5750 N.am    1  UNL1       -0.2711
     14 C          -3.8544  -18.9987   20.1118 C.3     1  UNL1        0.0919
     15 C          -3.2656  -19.7007   21.1118 C.3     1  UNL1        0.0921
     16 N          -2.8638  -20.1184   21.6967 N.3     1  UNL1       -0.2713
     17 C          -2.0270  -19.5321   20.5985 C.3     1  UNL1        0.0722
     18 C          -2.6781  -18.7556   19.4925 C.3     1  UNL1        0.0191
     19 C          -4.1659  -18.5656   19.4846 C.3     1  UNL1        0.0224
     20 C          -5.0028  -19.1519   20.5828 C.3     1  UNL1        0.0191
     21 C          -4.3517  -19.9284   21.6888 C.3     1  UNL1        0.0722
@<TRIPOS>BOND
     1     1     2    2
     2     2     3    1
     3     3     4    2
     4     4     5    1
     5     5     6    2
     6     6     7    1
     7     7     8    2
     8     8     9    1
     9     9    10    2
    10    10    11    1
    11    10    12    1
    12    12    13    1
    13    14    13    1
    14    14    15    1
    15    15    16    1
    16    16    17    1
    17    17    18    1
    18    18    19    1
    19    19    20    1
    20    20    21    1
    21    13     2   am
    22    19    14    1
    23    11     3    1
    24    21    16    1
    25    11     7    1
@<TRIPOS>MOLECULE
*****
 21 25 0 0 0
SMALL
GASTEIGER

@<TRIPOS>ATOM
      1 O          -9.2786  -17.2353   25.3111 O.2     1  UNL1       -0.2702
      2 C          -9.5202  -16.7433   23.9148 C.2     1  UNL1        0.2460
      3 C         -10.8348  -17.1737   23.3175 C.2     1  UNL1        0.0421
      4 C         -11.9503  -18.0097   23.8713 C.2     1  UNL1        0.0010
      5 C         -13.1671  -18.2837   23.0382 C.2     1  UNL1        0.0011
      6 C         -13.2685  -17.7216   21.6512 C.2     1  UNL1        0.0172
      7 C         -12.1530  -16.8856   21.0973 C.2     1  UNL1        0.0897
      8 N         -11.9722  -16.2025   19.7742 N.2     1  UNL1       -0.1522
      9 N         -10.6436  -15.5064   19.7896 N.2     1  UNL1       -0.1546
     10 C         -10.0033  -15.7592   21.1223 C.2     1  UNL1        0.0878
     11 C         -10.9362  -16.6116   21.9305 C.3     1  UNL1        0.1080
     12 C          -8.7319  -15.4024   21.8338 C.3     1  UNL1        0.1376
     13 N          -8.4903  -15.8944   23.2300 N.am    1  UNL1       -0.2711
     14 C          -6.4425  -15.5619   24.9217 C.3     1  UNL1        0.0919
     15 C          -5.3680  -16.2103   24.4073 C.3     1  UNL1        0.0921
     16 N          -4.6893  -16.5889   24.1353 N.3     1  UNL1       -0.2713
     17 C          -4.5712  -15.8604   25.4412 C.3     1  UNL1        0.0722
     18 C          -5.7595  -15.1433   26.0101 C.3     1  UNL1        0.0191
     19 C          -7.0659  -15.1546   25.2730 C.3     1  UNL1        0.0224
     20 C          -7.1839  -15.8831   23.9671 C.3     1  UNL1        0.0191
     21 C          -5.9956  -16.6002   23.3982 C.3     1  UNL1        0.0722
@<TRIPOS>BOND
     1     1     2    2
     2     2     3    1
     3     3     4    2
     4     4     5    1
     5     5     6    2
     6     6     7    1
     7     7     8    2
     8     8     9    1
     9     9    10    2
    10    10    11    1
    11    10    12    1
    12    12    13    1
    13    14    13    1
    14    14    15    1
    15    15    16    1
    16    16    17    1
    17    17    18    1
    18    18    19    1
    19    19    20    1
    20    20    21    1
    21    13     2   am
    22    19    14    1
    23    11     3    1
    24    21    16    1
    25    11     7    1
@<TRIPOS>MOLECULE
*****
 21 25 0 0 0
SMALL
GASTEIGER

@<TRIPOS>ATOM
      1 O          -7.2290  -20.1342   19.7219 O.2     1  UNL1       -0.2702
      2 C          -7.5532  -19.1941   20.8449 C.2     1  UNL1        0.2460
      3 C          -9.0232  -19.0647   21.1493 C.2     1  UNL1        0.0421
      4 C         -10.2260  -19.7105   20.5278 C.2     1  UNL1        0.0010
      5 C         -11.5984  -19.3912   21.0420 C.2     1  UNL1        0.0011
      6 C         -11.7680  -18.4261   22.1777 C.2     1  UNL1        0.0172
      7 C         -10.5652  -17.7803   22.7992 C.2     1  UNL1        0.0897
      8 N         -10.4220  -16.7971   23.9229 N.2     1  UNL1       -0.1522
      9 N          -8.9610  -16.5088   24.1032 N.2     1  UNL1       -0.1546
     10 C          -8.2013  -17.3138   23.0909 C.2     1  UNL1        0.0878
     11 C          -9.1928  -18.0996   22.2850 C.3     1  UNL1        0.1080
     12 C          -6.7741  -17.5341   22.6856 C.3     1  UNL1        0.1376
     13 N          -6.4499  -18.4743   21.5626 N.am    1  UNL1       -0.2711
     14 C          -4.1282  -19.2179   20.4571 C.3     1  UNL1        0.0919
     15 C          -3.3158  -19.6573   21.4504 C.3     1  UNL1        0.0921
     16 N          -2.7874  -19.9330   22.0185 N.3     1  UNL1       -0.2713
     17 C          -2.3037  -19.9334   20.5986 C.3     1  UNL1        0.0722
     18 C          -3.2020  -19.4475   19.5001 C.3     1  UNL1        0.0191
     19 C          -4.5841  -18.9611   19.8214 C.3     1  UNL1        0.0224
     20 C          -5.0679  -18.9607   21.2413 C.3     1  UNL1        0.0191
     21 C          -4.1695  -19.4466   22.3398 C.3     1  UNL1        0.0722
@<TRIPOS>BOND
     1     1     2    2
     2     2     3    1
     3     3     4    2
     4     4     5    1
     5     5     6    2
     6     6     7    1
     7     7     8    2
     8     8     9    1
     9     9    10    2
    10    10    11    1
    11    10    12    1
    12    12    13    1
    13    14    13    1
    14    14    15    1
    15    15    16    1
    16    16    17    1
    17    17    18    1
    18    18    19    1
    19    19    20    1
    20    20    21    1
    21    13     2   am
    22    19    14    1
    23    11     3    1
    24    21    16    1
    25    11     7    1
@<TRIPOS>MOLECULE
*****
 21 25 0 0 0
SMALL
GASTEIGER

@<TRIPOS>ATOM
      1 O          -7.7592  -16.2298   21.4366 O.2     1  UNL1       -0.2702
      2 C          -8.1692  -16.4980   22.8543 C.2     1  UNL1        0.2460
      3 C          -7.2140  -15.9704   23.8934 C.2     1  UNL1        0.0421
      4 C          -5.9207  -15.2218   23.7635 C.2     1  UNL1        0.0010
      5 C          -5.1641  -14.8130   24.9925 C.2     1  UNL1        0.0011
      6 C          -5.7009  -15.1529   26.3513 C.2     1  UNL1        0.0172
      7 C          -6.9942  -15.9015   26.4812 C.2     1  UNL1        0.0897
      8 N          -7.7653  -16.3729   27.6783 N.2     1  UNL1       -0.1522
      9 N          -8.9984  -17.0730   27.1892 N.2     1  UNL1       -0.1546
     10 C          -8.9895  -17.0343   25.6898 C.2     1  UNL1        0.0878
     11 C          -7.7507  -16.3103   25.2522 C.3     1  UNL1        0.1080
     12 C          -9.8524  -17.5065   24.5573 C.3     1  UNL1        0.1376
     13 N          -9.4423  -17.2384   23.1396 N.am    1  UNL1       -0.2711
     14 C         -10.5837  -17.8441   20.7953 C.3     1  UNL1        0.0919
     15 C         -10.1095  -19.0521   20.4011 C.3     1  UNL1        0.0921
     16 N          -9.8505  -19.7816   20.1206 N.3     1  UNL1       -0.2713
     17 C         -10.8412  -19.0493   19.2649 C.3     1  UNL1        0.0722
     18 C         -11.3657  -17.7133   19.7009 C.3     1  UNL1        0.0191
     19 C         -10.8994  -17.1096   20.9924 C.3     1  UNL1        0.0224
     20 C          -9.9086  -17.8420   21.8481 C.3     1  UNL1        0.0191
     21 C          -9.3842  -19.1780   21.4121 C.3     1  UNL1        0.0722
@<TRIPOS>BOND
     1     1     2    2
     2     2     3    1
     3     3     4    2
     4     4     5    1
     5     5     6    2
     6     6     7    1
     7     7     8    2
     8     8     9    1
     9     9    10    2
    10    10    11    1
    11    10    12    1
    12    12    13    1
    13    14    13    1
    14    14    15    1
    15    15    16    1
    16    16    17    1
    17    17    18    1
    18    18    19    1
    19    19    20    1
    20    20    21    1
    21    13     2   am
    22    19    14    1
    23    11     3    1
    24    21    16    1
    25    11     7    1
