@<TRIPOS>MOLECULE
*****
 27 30 0 0 0
SMALL
GASTEIGER

@<TRIPOS>ATOM
      1 C          -8.9912  -17.7030   22.5244 C.2     1  UNL1        0.0541
      2 C          -8.8510  -16.6134   23.5457 C.2     1  UNL1        0.0840
      3 N         -10.2223  -16.0925   23.8589 N.2     1  UNL1       -0.2477
      4 C         -11.2100  -16.8603   23.0313 C.2     1  UNL1        0.0810
      5 C         -12.7040  -16.7817   22.9222 C.3     1  UNL1        0.0749
      6 C         -13.4370  -17.6984   21.9882 C.2     1  UNL1        0.0009
      7 C         -12.6760  -18.6938   21.1634 C.2     1  UNL1        0.0947
      8 N         -11.1821  -18.7724   21.2726 N.2     1  UNL1       -0.2429
      9 C         -10.4491  -17.8557   22.2065 C.2     1  UNL1        0.0980
     10 C          -5.6282  -20.0943   20.7293 C.ar    1  UNL1        0.1578
     11 C          -6.3340  -20.5952   21.9545 C.ar    1  UNL1        0.0401
     12 C          -7.4549  -19.7980   22.5528 C.ar    1  UNL1        0.0224
     13 C          -7.8702  -18.5001   21.9261 C.ar    1  UNL1        0.0845
     14 N          -7.1643  -17.9992   20.7009 N.ar    1  UNL1       -0.2406
     15 C          -6.0433  -18.7964   20.1025 C.ar    1  UNL1        0.1356
     16 C          -3.1020  -20.3698   20.1884 C.3     1  UNL1        0.2525
     17 O          -4.5072  -20.8914   20.1310 O.3     1  UNL1       -0.4699
     18 C          -7.5652  -16.1295   24.1479 C.ar    1  UNL1        0.0221
     19 C          -7.5109  -15.7556   25.5995 C.ar    1  UNL1        0.0223
     20 C          -6.2252  -15.2717   26.2018 C.ar    1  UNL1        0.1004
     21 N          -4.9937  -15.1617   25.3524 N.ar    1  UNL1       -0.2273
     22 C          -5.0481  -15.5356   23.9008 C.ar    1  UNL1        0.1545
     23 C          -6.3338  -16.0195   23.2986 C.ar    1  UNL1        0.0377
     24 N          -3.8166  -15.4256   23.0514 N.am    1  UNL1       -0.1604
     25 C          -3.1994  -16.6592   22.4621 C.2     1  UNL1        0.2474
     26 C          -3.3499  -17.9792   23.1584 C.3     1  UNL1        0.0968
     27 O          -2.4316  -16.5728   21.1763 O.2     1  UNL1       -0.2729
@<TRIPOS>BOND
     1    16    17    1
     2    17    10    1
     3    10    11   ar
     4    11    12   ar
     5    12    13   ar
     6    13     1    1
     7     1     2    2
     8     2    18    1
     9    18    19   ar
    10    19    20   ar
    11    20    21   ar
    12    21    22   ar
    13    22    24    1
    14    24    25   am
    15    25    26    1
    16    25    27    2
    17    22    23   ar
    18     2     3    1
    19     3     4    2
    20     4     5    1
    21     5     6    1
    22     6     7    2
    23     7     8    1
    24     8     9    2
    25    13    14   ar
    26    14    15   ar
    27    15    10   ar
    28     9     1    1
    29    23    18   ar
    30     9     4    1
@<TRIPOS>MOLECULE
*****
 27 30 0 0 0
SMALL
GASTEIGER

@<TRIPOS>ATOM
      1 C          -5.7991  -18.1201   22.2067 C.2     1  UNL1        0.0541
      2 C          -6.7652  -19.0412   21.5223 C.2     1  UNL1        0.0840
      3 N          -6.0433  -19.7135   20.3923 N.2     1  UNL1       -0.2477
      4 C          -4.6311  -19.2080   20.3783 C.2     1  UNL1        0.0810
      5 C          -3.4632  -19.5171   19.4894 C.3     1  UNL1        0.0749
      6 C          -2.1443  -18.8415   19.7218 C.2     1  UNL1        0.0009
      7 C          -1.9934  -17.8567   20.8432 C.2     1  UNL1        0.0947
      8 N          -3.1613  -17.5476   21.7321 N.2     1  UNL1       -0.2429
      9 C          -4.4802  -18.2232   21.4997 C.2     1  UNL1        0.0980
     10 C          -6.6996  -15.5065   25.7576 C.ar    1  UNL1        0.1578
     11 C          -5.2913  -15.9477   25.4889 C.ar    1  UNL1        0.0401
     12 C          -4.9912  -16.8189   24.3053 C.ar    1  UNL1        0.0224
     13 C          -6.0992  -17.2489   23.3903 C.ar    1  UNL1        0.0845
     14 N          -7.5075  -16.8077   23.6590 N.ar    1  UNL1       -0.2406
     15 C          -7.8077  -15.9365   24.8426 C.ar    1  UNL1        0.1356
     16 C          -8.2446  -14.8657   27.7456 C.3     1  UNL1        0.2525
     17 O          -6.9997  -14.6353   26.9412 O.3     1  UNL1       -0.4699
     18 C          -8.2010  -19.2527   21.9014 C.ar    1  UNL1        0.0221
     19 C          -8.5455  -20.0935   23.0948 C.ar    1  UNL1        0.0223
     20 C          -9.9814  -20.3051   23.4739 C.ar    1  UNL1        0.1004
     21 N         -11.0726  -19.6759   22.6595 N.ar    1  UNL1       -0.2273
     22 C         -10.7280  -18.8351   21.4661 C.ar    1  UNL1        0.1545
     23 C          -9.2922  -18.6235   21.0870 C.ar    1  UNL1        0.0377
     24 N         -11.8193  -18.2058   20.6516 N.am    1  UNL1       -0.1604
     25 C         -12.1725  -16.7628   20.8586 C.2     1  UNL1        0.2474
     26 C         -12.1813  -16.1838   22.2423 C.3     1  UNL1        0.0968
     27 O         -12.5170  -15.8988   19.6817 O.2     1  UNL1       -0.2729
@<TRIPOS>BOND
     1    16    17    1
     2    17    10    1
     3    10    11   ar
     4    11    12   ar
     5    12    13   ar
     6    13     1    1
     7     1     2    2
     8     2    18    1
     9    18    19   ar
    10    19    20   ar
    11    20    21   ar
    12    21    22   ar
    13    22    24    1
    14    24    25   am
    15    25    26    1
    16    25    27    2
    17    22    23   ar
    18     2     3    1
    19     3     4    2
    20     4     5    1
    21     5     6    1
    22     6     7    2
    23     7     8    1
    24     8     9    2
    25    13    14   ar
    26    14    15   ar
    27    15    10   ar
    28     9     1    1
    29    23    18   ar
    30     9     4    1
@<TRIPOS>MOLECULE
*****
 27 30 0 0 0
SMALL
GASTEIGER

@<TRIPOS>ATOM
      1 C          -7.7586  -18.0783   21.7280 C.2     1  UNL1        0.0541
      2 C          -6.8563  -18.9600   20.9166 C.2     1  UNL1        0.0840
      3 N          -7.6822  -19.6074   19.8448 N.2     1  UNL1       -0.2477
      4 C          -9.0949  -19.1258   19.9938 C.2     1  UNL1        0.0810
      5 C         -10.3444  -19.4256   19.2200 C.3     1  UNL1        0.0749
      6 C         -11.6411  -18.7804   19.6102 C.2     1  UNL1        0.0009
      7 C         -11.6883  -17.8354   20.7741 C.2     1  UNL1        0.0947
      8 N         -10.4388  -17.5355   21.5478 N.2     1  UNL1       -0.2429
      9 C          -9.1421  -18.1807   21.1577 C.2     1  UNL1        0.0980
     10 C          -6.5304  -15.5667   25.2542 C.ar    1  UNL1        0.1578
     11 C          -7.9261  -16.1096   25.1698 C.ar    1  UNL1        0.0401
     12 C          -8.3355  -16.9468   23.9945 C.ar    1  UNL1        0.0224
     13 C          -7.3492  -17.2411   22.9034 C.ar    1  UNL1        0.0845
     14 N          -5.9534  -16.6982   22.9877 N.ar    1  UNL1       -0.2406
     15 C          -5.5440  -15.8610   24.1631 C.ar    1  UNL1        0.1356
     16 C          -6.8483  -14.8624   27.7347 C.3     1  UNL1        0.2525
     17 O          -6.1210  -14.7295   26.4296 O.3     1  UNL1       -0.4699
     18 C          -5.3862  -19.1594   21.1381 C.ar    1  UNL1        0.0221
     19 C          -4.8978  -19.7891   22.4089 C.ar    1  UNL1        0.0223
     20 C          -3.4277  -19.9885   22.6304 C.ar    1  UNL1        0.1004
     21 N          -2.4460  -19.5582   21.5812 N.ar    1  UNL1       -0.2273
     22 C          -2.9343  -18.9285   20.3104 C.ar    1  UNL1        0.1545
     23 C          -4.4044  -18.7291   20.0889 C.ar    1  UNL1        0.0377
     24 N          -1.9526  -18.4981   19.2610 N.am    1  UNL1       -0.1604
     25 C          -0.5704  -18.0709   19.6573 C.2     1  UNL1        0.2474
     26 C          -0.3241  -16.6667   20.1235 C.3     1  UNL1        0.0968
     27 O           0.5656  -19.0481   19.5872 O.2     1  UNL1       -0.2729
@<TRIPOS>BOND
     1    16    17    1
     2    17    10    1
     3    10    11   ar
     4    11    12   ar
     5    12    13   ar
     6    13     1    1
     7     1     2    2
     8     2    18    1
     9    18    19   ar
    10    19    20   ar
    11    20    21   ar
    12    21    22   ar
    13    22    24    1
    14    24    25   am
    15    25    26    1
    16    25    27    2
    17    22    23   ar
    18     2     3    1
    19     3     4    2
    20     4     5    1
    21     5     6    1
    22     6     7    2
    23     7     8    1
    24     8     9    2
    25    13    14   ar
    26    14    15   ar
    27    15    10   ar
    28     9     1    1
    29    23    18   ar
    30     9     4    1
@<TRIPOS>MOLECULE
*****
 27 30 0 0 0
SMALL
GASTEIGER

@<TRIPOS>ATOM
      1 C          -8.3519  -16.8882   24.2134 C.2     1  UNL1        0.0541
      2 C          -7.1979  -17.2946   23.3456 C.2     1  UNL1        0.0840
      3 N          -5.9481  -16.7076   23.9315 N.2     1  UNL1       -0.2477
      4 C          -6.3296  -15.9385   25.1615 C.2     1  UNL1        0.0810
      5 C          -5.5161  -15.1509   26.1454 C.3     1  UNL1        0.0749
      6 C          -6.1883  -14.4750   27.3034 C.2     1  UNL1        0.0009
      7 C          -7.6740  -14.5866   27.4777 C.2     1  UNL1        0.0947
      8 N          -8.4874  -15.3741   26.4938 N.2     1  UNL1       -0.2429
      9 C          -7.8152  -16.0501   25.3357 C.2     1  UNL1        0.0980
     10 C         -12.6664  -17.9898   23.5640 C.ar    1  UNL1        0.1578
     11 C         -11.7964  -18.8467   24.4351 C.ar    1  UNL1        0.0401
     12 C         -10.3583  -18.4795   24.6516 C.ar    1  UNL1        0.0224
     13 C          -9.7900  -17.2554   23.9970 C.ar    1  UNL1        0.0845
     14 N         -10.6600  -16.3984   23.1258 N.ar    1  UNL1       -0.2406
     15 C         -12.0982  -16.7657   22.9094 C.ar    1  UNL1        0.1356
     16 C         -15.0379  -18.4549   24.5177 C.3     1  UNL1        0.2525
     17 O         -14.1046  -18.3570   23.3476 O.3     1  UNL1       -0.4699
     18 C          -7.2794  -18.1396   22.1089 C.ar    1  UNL1        0.0221
     19 C          -8.5796  -18.2666   21.3717 C.ar    1  UNL1        0.0223
     20 C          -8.6611  -19.1116   20.1350 C.ar    1  UNL1        0.1004
     21 N          -7.4425  -19.8295   19.6355 N.ar    1  UNL1       -0.2273
     22 C          -6.1424  -19.7025   20.3727 C.ar    1  UNL1        0.1545
     23 C          -6.0609  -18.8575   21.6094 C.ar    1  UNL1        0.0377
     24 N          -4.9237  -20.4205   19.8733 N.am    1  UNL1       -0.1604
     25 C          -3.5608  -19.8430   20.1160 C.2     1  UNL1        0.2474
     26 C          -3.0600  -18.7174   19.2604 C.3     1  UNL1        0.0968
     27 O          -2.6988  -20.3911   21.2145 O.2     1  UNL1       -0.2729
@<TRIPOS>BOND
     1    16    17    1
     2    17    10    1
     3    10    11   ar
     4    11    12   ar
     5    12    13   ar
     6    13     1    1
     7     1     2    2
     8     2    18    1
     9    18    19   ar
    10    19    20   ar
    11    20    21   ar
    12    21    22   ar
    13    22    24    1
    14    24    25   am
    15    25    26    1
    16    25    27    2
    17    22    23   ar
    18     2     3    1
    19     3     4    2
    20     4     5    1
    21     5     6    1
    22     6     7    2
    23     7     8    1
    24     8     9    2
    25    13    14   ar
    26    14    15   ar
    27    15    10   ar
    28     9     1    1
    29    23    18   ar
    30     9     4    1
@<TRIPOS>MOLECULE
*****
 27 30 0 0 0
SMALL
GASTEIGER

@<TRIPOS>ATOM
      1 C          -6.0232  -18.9400   21.4256 C.2     1  UNL1        0.0541
      2 C          -6.6031  -18.0789   22.5082 C.2     1  UNL1        0.0840
      3 N          -5.4668  -17.4825   23.2847 N.2     1  UNL1       -0.2477
      4 C          -4.1845  -17.9750   22.6820 C.2     1  UNL1        0.0810
      5 C          -2.7482  -17.7196   23.0310 C.3     1  UNL1        0.0749
      6 C          -1.6559  -18.3650   22.2310 C.2     1  UNL1        0.0009
      7 C          -1.9998  -19.2658   21.0819 C.2     1  UNL1        0.0947
      8 N          -3.4360  -19.5212   20.7329 N.2     1  UNL1       -0.2429
      9 C          -4.5284  -18.8758   21.5330 C.2     1  UNL1        0.0980
     10 C          -8.3579  -21.3014   18.3885 C.ar    1  UNL1        0.1578
     11 C          -7.1932  -21.9307   19.0939 C.ar    1  UNL1        0.0401
     12 C          -6.4150  -21.1436   20.1062 C.ar    1  UNL1        0.0224
     13 C          -6.8014  -19.7272   20.4132 C.ar    1  UNL1        0.0845
     14 N          -7.9661  -19.0978   19.7079 N.ar    1  UNL1       -0.2406
     15 C          -8.7443  -19.8849   18.6955 C.ar    1  UNL1        0.1356
     16 C          -9.4424  -21.4903   16.0352 C.3     1  UNL1        0.2525
     17 O          -9.1360  -22.0885   17.3762 O.3     1  UNL1       -0.4699
     18 C          -8.0631  -17.8537   22.7687 C.ar    1  UNL1        0.0221
     19 C          -8.7416  -18.5664   23.9008 C.ar    1  UNL1        0.0223
     20 C         -10.2016  -18.3412   24.1612 C.ar    1  UNL1        0.1004
     21 N         -10.9830  -17.4034   23.2895 N.ar    1  UNL1       -0.2273
     22 C         -10.3045  -16.6908   22.1574 C.ar    1  UNL1        0.1545
     23 C          -8.8445  -16.9160   21.8970 C.ar    1  UNL1        0.0377
     24 N         -11.0859  -15.7529   21.2856 N.am    1  UNL1       -0.1604
     25 C         -11.4948  -16.1765   19.9060 C.2     1  UNL1        0.2474
     26 C         -11.4598  -17.6270   19.5255 C.3     1  UNL1        0.0968
     27 O         -11.9387  -15.1495   18.9068 O.2     1  UNL1       -0.2729
@<TRIPOS>BOND
     1    16    17    1
     2    17    10    1
     3    10    11   ar
     4    11    12   ar
     5    12    13   ar
     6    13     1    1
     7     1     2    2
     8     2    18    1
     9    18    19   ar
    10    19    20   ar
    11    20    21   ar
    12    21    22   ar
    13    22    24    1
    14    24    25   am
    15    25    26    1
    16    25    27    2
    17    22    23   ar
    18     2     3    1
    19     3     4    2
    20     4     5    1
    21     5     6    1
    22     6     7    2
    23     7     8    1
    24     8     9    2
    25    13    14   ar
    26    14    15   ar
    27    15    10   ar
    28     9     1    1
    29    23    18   ar
    30     9     4    1
@<TRIPOS>MOLECULE
*****
 27 30 0 0 0
SMALL
GASTEIGER

@<TRIPOS>ATOM
      1 C           6.9698   -4.1300   23.3158 C.2     1  UNL1        0.0541
      2 C           7.6511   -4.4211   22.0115 C.2     1  UNL1        0.0840
      3 N           8.3903   -5.7184   22.1541 N.2     1  UNL1       -0.2477
      4 C           8.1659   -6.2292   23.5465 C.2     1  UNL1        0.0810
      5 C           8.6475   -7.4614   24.2534 C.3     1  UNL1        0.0749
      6 C           8.2512   -7.7119   25.6782 C.2     1  UNL1        0.0009
      7 C           7.3733   -6.7302   26.3961 C.2     1  UNL1        0.0947
      8 N           6.8916   -5.4980   25.6893 N.2     1  UNL1       -0.2429
      9 C           7.2879   -5.2475   24.2645 C.2     1  UNL1        0.0980
     10 C           4.4192   -0.5354   24.2234 C.ar    1  UNL1        0.1578
     11 C           3.8619   -1.6636   23.4069 C.ar    1  UNL1        0.0401
     12 C           4.7122   -2.8618   23.1044 C.ar    1  UNL1        0.0224
     13 C           6.1196   -2.9319   23.6183 C.ar    1  UNL1        0.0845
     14 N           6.6768   -1.8036   24.4348 N.ar    1  UNL1       -0.2406
     15 C           5.8266   -0.6054   24.7374 C.ar    1  UNL1        0.1356
     16 C           2.0832    0.5968   24.3303 C.3     1  UNL1        0.2525
     17 O           3.5690    0.6627   24.5259 O.3     1  UNL1       -0.4699
     18 C           7.6018   -3.5650   20.7808 C.ar    1  UNL1        0.0221
     19 C           8.7747   -2.7026   20.4195 C.ar    1  UNL1        0.0223
     20 C           8.7255   -1.8466   19.1888 C.ar    1  UNL1        0.1004
     21 N           7.5033   -1.8529   18.3192 N.ar    1  UNL1       -0.2273
     22 C           6.3304   -2.7153   18.6804 C.ar    1  UNL1        0.1545
     23 C           6.3796   -3.5714   19.9112 C.ar    1  UNL1        0.0377
     24 N           5.1081   -2.7217   17.8109 N.am    1  UNL1       -0.1604
     25 C           4.2948   -1.4714   17.6511 C.2     1  UNL1        0.2474
     26 C           3.8235   -0.7234   18.8628 C.3     1  UNL1        0.0968
     27 O           3.9529   -0.9693   16.2796 O.2     1  UNL1       -0.2729
@<TRIPOS>BOND
     1    16    17    1
     2    17    10    1
     3    10    11   ar
     4    11    12   ar
     5    12    13   ar
     6    13     1    1
     7     1     2    2
     8     2    18    1
     9    18    19   ar
    10    19    20   ar
    11    20    21   ar
    12    21    22   ar
    13    22    24    1
    14    24    25   am
    15    25    26    1
    16    25    27    2
    17    22    23   ar
    18     2     3    1
    19     3     4    2
    20     4     5    1
    21     5     6    1
    22     6     7    2
    23     7     8    1
    24     8     9    2
    25    13    14   ar
    26    14    15   ar
    27    15    10   ar
    28     9     1    1
    29    23    18   ar
    30     9     4    1
@<TRIPOS>MOLECULE
*****
 27 30 0 0 0
SMALL
GASTEIGER

@<TRIPOS>ATOM
      1 C          -8.0263  -16.8745   24.1633 C.2     1  UNL1        0.0541
      2 C          -6.8806  -17.3259   23.3068 C.2     1  UNL1        0.0840
      3 N          -5.6198  -16.7458   23.8759 N.2     1  UNL1       -0.2477
      4 C          -5.9862  -15.9360   25.0842 C.2     1  UNL1        0.0810
      5 C          -5.1578  -15.1364   26.0456 C.3     1  UNL1        0.0749
      6 C          -5.8167  -14.4164   27.1846 C.2     1  UNL1        0.0009
      7 C          -7.3040  -14.4960   27.3622 C.2     1  UNL1        0.0947
      8 N          -8.1324  -15.2955   26.4008 N.2     1  UNL1       -0.2429
      9 C          -7.4736  -16.0155   25.2618 C.2     1  UNL1        0.0980
     10 C         -12.3607  -17.9147   23.5458 C.ar    1  UNL1        0.1578
     11 C         -11.5052  -18.7643   24.4382 C.ar    1  UNL1        0.0401
     12 C         -10.0604  -18.4175   24.6440 C.ar    1  UNL1        0.0224
     13 C          -9.4711  -17.2213   23.9575 C.ar    1  UNL1        0.0845
     14 N         -10.3265  -16.3716   23.0651 N.ar    1  UNL1       -0.2406
     15 C         -11.7713  -16.7183   22.8593 C.ar    1  UNL1        0.1356
     16 C         -14.7195  -18.3988   24.5214 C.3     1  UNL1        0.2525
     17 O         -13.8055  -18.2614   23.3400 O.3     1  UNL1       -0.4699
     18 C          -6.9785  -18.2032   22.0941 C.ar    1  UNL1        0.0221
     19 C          -5.8348  -19.1000   21.7228 C.ar    1  UNL1        0.0223
     20 C          -5.9327  -19.9773   20.5101 C.ar    1  UNL1        0.1004
     21 N          -7.1743  -19.9579   19.6686 N.ar    1  UNL1       -0.2273
     22 C          -8.3179  -19.0612   20.0399 C.ar    1  UNL1        0.1545
     23 C          -8.2200  -18.1838   21.2526 C.ar    1  UNL1        0.0377
     24 N          -9.5596  -19.0418   19.1984 N.am    1  UNL1       -0.1604
     25 C         -10.8971  -18.8200   19.8402 C.2     1  UNL1        0.2474
     26 C         -11.4150  -19.7988   20.8520 C.3     1  UNL1        0.0968
     27 O         -11.7168  -17.6195   19.4700 O.2     1  UNL1       -0.2729
@<TRIPOS>BOND
     1    16    17    1
     2    17    10    1
     3    10    11   ar
     4    11    12   ar
     5    12    13   ar
     6    13     1    1
     7     1     2    2
     8     2    18    1
     9    18    19   ar
    10    19    20   ar
    11    20    21   ar
    12    21    22   ar
    13    22    24    1
    14    24    25   am
    15    25    26    1
    16    25    27    2
    17    22    23   ar
    18     2     3    1
    19     3     4    2
    20     4     5    1
    21     5     6    1
    22     6     7    2
    23     7     8    1
    24     8     9    2
    25    13    14   ar
    26    14    15   ar
    27    15    10   ar
    28     9     1    1
    29    23    18   ar
    30     9     4    1
@<TRIPOS>MOLECULE
*****
 27 30 0 0 0
SMALL
GASTEIGER

@<TRIPOS>ATOM
      1 C           3.3051   -0.8128   22.4607 C.2     1  UNL1        0.0541
      2 C           4.1927   -2.0054   22.2608 C.2     1  UNL1        0.0840
      3 N           4.6742   -2.4558   23.6081 N.2     1  UNL1       -0.2477
      4 C           4.0842   -1.5416   24.6407 C.2     1  UNL1        0.0810
      5 C           4.2080   -1.5027   26.1350 C.3     1  UNL1        0.0749
      6 C           3.4858   -0.4482   26.9202 C.2     1  UNL1        0.0009
      7 C           2.6397    0.5672   26.2110 C.2     1  UNL1        0.0947
      8 N           2.5158    0.5283   24.7166 N.2     1  UNL1       -0.2429
      9 C           3.2380   -0.5262   23.9315 C.2     1  UNL1        0.0980
     10 C           1.2113    1.4994   19.2172 C.ar    1  UNL1        0.1578
     11 C           0.8683    0.0581   19.4518 C.ar    1  UNL1        0.0401
     12 C           1.5663   -0.7126   20.5329 C.ar    1  UNL1        0.0224
     13 C           2.6072   -0.0421   21.3795 C.ar    1  UNL1        0.0845
     14 N           2.9502    1.3993   21.1449 N.ar    1  UNL1       -0.2406
     15 C           2.2522    2.1700   20.0638 C.ar    1  UNL1        0.1356
     16 C           0.5102    3.7697   18.1665 C.3     1  UNL1        0.2525
     17 O           0.5133    2.2701   18.1360 O.3     1  UNL1       -0.4699
     18 C           4.5382   -2.6367   20.9447 C.ar    1  UNL1        0.0221
     19 C           4.0112   -3.9994   20.6052 C.ar    1  UNL1        0.0223
     20 C           4.3567   -4.6307   19.2891 C.ar    1  UNL1        0.1004
     21 N           5.2291   -3.8993   18.3125 N.ar    1  UNL1       -0.2273
     22 C           5.7561   -2.5366   18.6519 C.ar    1  UNL1        0.1545
     23 C           5.4106   -1.9053   19.9680 C.ar    1  UNL1        0.0377
     24 N           6.6285   -1.8051   17.6753 N.am    1  UNL1       -0.1604
     25 C           6.2428   -0.4336   17.2060 C.2     1  UNL1        0.2474
     26 C           4.7965   -0.0401   17.1475 C.3     1  UNL1        0.0968
     27 O           7.3033    0.5445   16.7952 O.2     1  UNL1       -0.2729
@<TRIPOS>BOND
     1    16    17    1
     2    17    10    1
     3    10    11   ar
     4    11    12   ar
     5    12    13   ar
     6    13     1    1
     7     1     2    2
     8     2    18    1
     9    18    19   ar
    10    19    20   ar
    11    20    21   ar
    12    21    22   ar
    13    22    24    1
    14    24    25   am
    15    25    26    1
    16    25    27    2
    17    22    23   ar
    18     2     3    1
    19     3     4    2
    20     4     5    1
    21     5     6    1
    22     6     7    2
    23     7     8    1
    24     8     9    2
    25    13    14   ar
    26    14    15   ar
    27    15    10   ar
    28     9     1    1
    29    23    18   ar
    30     9     4    1
@<TRIPOS>MOLECULE
*****
 27 30 0 0 0
SMALL
GASTEIGER

@<TRIPOS>ATOM
      1 C           6.8419   -4.2267   23.2131 C.2     1  UNL1        0.0541
      2 C           6.2723   -3.6605   24.4799 C.2     1  UNL1        0.0840
      3 N           6.7501   -4.5074   25.6220 N.2     1  UNL1       -0.2477
      4 C           7.6149   -5.5971   25.0611 C.2     1  UNL1        0.0810
      5 C           8.3581   -6.7248   25.7136 C.3     1  UNL1        0.0749
      6 C           9.1580   -7.6791   24.8773 C.2     1  UNL1        0.0009
      7 C           9.2147   -7.5057   23.3884 C.2     1  UNL1        0.0947
      8 N           8.4715   -6.3779   22.7359 N.2     1  UNL1       -0.2429
      9 C           7.6716   -5.4236   23.5722 C.2     1  UNL1        0.0980
     10 C           6.1777   -2.6176   19.0634 C.ar    1  UNL1        0.1578
     11 C           7.2050   -1.9877   19.9566 C.ar    1  UNL1        0.0401
     12 C           7.4263   -2.5241   21.3398 C.ar    1  UNL1        0.0224
     13 C           6.6205   -3.6903   21.8298 C.ar    1  UNL1        0.0845
     14 N           5.5932   -4.3204   20.9366 N.ar    1  UNL1       -0.2406
     15 C           5.3718   -3.7840   19.5534 C.ar    1  UNL1        0.1356
     16 C           5.1400   -0.8390   17.4792 C.3     1  UNL1        0.2525
     17 O           5.9563   -2.0812   17.6801 O.3     1  UNL1       -0.4699
     18 C           5.3815   -2.4583   24.5860 C.ar    1  UNL1        0.0221
     19 C           5.4313   -1.5937   25.8107 C.ar    1  UNL1        0.0223
     20 C           4.5404   -0.3916   25.9168 C.ar    1  UNL1        0.1004
     21 N           3.5997   -0.0541   24.7982 N.ar    1  UNL1       -0.2273
     22 C           3.5499   -0.9188   23.5736 C.ar    1  UNL1        0.1545
     23 C           4.4407   -2.1209   23.4675 C.ar    1  UNL1        0.0377
     24 N           2.6091   -0.5814   22.4550 N.am    1  UNL1       -0.1604
     25 C           3.1007   -0.5751   21.0378 C.2     1  UNL1        0.2474
     26 C           2.3610   -1.3447   19.9840 C.3     1  UNL1        0.0968
     27 O           4.3319    0.2008   20.6745 O.2     1  UNL1       -0.2729
@<TRIPOS>BOND
     1    16    17    1
     2    17    10    1
     3    10    11   ar
     4    11    12   ar
     5    12    13   ar
     6    13     1    1
     7     1     2    2
     8     2    18    1
     9    18    19   ar
    10    19    20   ar
    11    20    21   ar
    12    21    22   ar
    13    22    24    1
    14    24    25   am
    15    25    26    1
    16    25    27    2
    17    22    23   ar
    18     2     3    1
    19     3     4    2
    20     4     5    1
    21     5     6    1
    22     6     7    2
    23     7     8    1
    24     8     9    2
    25    13    14   ar
    26    14    15   ar
    27    15    10   ar
    28     9     1    1
    29    23    18   ar
    30     9     4    1
