@<TRIPOS>MOLECULE
*****
 24 26 0 0 0
SMALL
GASTEIGER

@<TRIPOS>ATOM
      1 C          -8.5880  -16.6399   23.4917 C.3     1  UNL1        0.0847
      2 N          -7.9290  -16.0818   24.7182 N.3     1  UNL1       -0.2676
      3 C          -6.4692  -15.7376   24.6944 C.3     1  UNL1        0.0896
      4 C          -5.8102  -15.1796   25.9209 C.3     1  UNL1        0.0862
      5 N          -6.6109  -14.9656   27.1710 N.3     1  UNL1       -0.2951
      6 C          -8.0707  -15.3098   27.1948 C.3     1  UNL1        0.0862
      7 C          -8.7297  -15.8679   25.9684 C.3     1  UNL1        0.0896
      8 H          -6.5383  -13.9746   27.4013 H       1  UNL1        0.1233
      9 C         -10.0052  -17.1271   23.5576 C.ar    1  UNL1       -0.0075
     10 C         -10.3536  -18.3068   24.4160 C.ar    1  UNL1       -0.0030
     11 C         -11.7708  -18.7939   24.4818 C.ar    1  UNL1       -0.0003
     12 C         -12.8395  -18.1014   23.6893 C.ar    1  UNL1       -0.0000
     13 C         -12.4911  -16.9217   22.8308 C.ar    1  UNL1       -0.0003
     14 C         -11.0739  -16.4345   22.7650 C.ar    1  UNL1       -0.0030
     15 C          -7.8299  -16.7109   22.1993 C.3     1  UNL1        0.0499
     16 C          -7.9505  -18.8042   20.6651 C.ar    1  UNL1        0.1346
     17 C          -7.3769  -20.1108   20.2029 C.ar    1  UNL1        0.0366
     18 C          -6.1089  -20.6308   20.8126 C.ar    1  UNL1        0.0031
     19 C          -5.4146  -19.8441   21.8846 C.ar    1  UNL1       -0.0001
     20 C          -5.9882  -18.5375   22.3468 C.ar    1  UNL1       -0.0012
     21 C          -7.2562  -18.0176   21.7371 C.ar    1  UNL1        0.0135
     22 O          -9.2186  -18.2841   20.0554 O.3     1  UNL1       -0.4758
     23 C         -10.9886  -19.9179   21.0289 C.3     1  UNL1        0.0512
     24 C         -10.3866  -19.2036   19.8553 C.3     1  UNL1        0.2055
@<TRIPOS>BOND
     1    23    24    1
     2    24    22    1
     3    22    16    1
     4    16    17   ar
     5    17    18   ar
     6    18    19   ar
     7    19    20   ar
     8    20    21   ar
     9    21    15    1
    10     1    15    1
    11     1     9    1
    12     9    10   ar
    13    10    11   ar
    14    11    12   ar
    15    12    13   ar
    16    13    14   ar
    17     1     2    1
    18     2     3    1
    19     3     4    1
    20     4     5    1
    21     5     6    1
    22     6     7    1
    23    21    16   ar
    24    14     9   ar
    25     7     2    1
    26     5     8    1
@<TRIPOS>MOLECULE
*****
 24 26 0 0 0
SMALL
GASTEIGER

@<TRIPOS>ATOM
      1 C          -8.7369  -17.1123   22.4962 C.3     1  UNL1        0.0847
      2 N          -8.0121  -18.1904   21.7459 N.3     1  UNL1       -0.2676
      3 C          -6.6908  -18.6939   22.2463 C.3     1  UNL1        0.0896
      4 C          -5.9660  -19.7718   21.4962 C.3     1  UNL1        0.0862
      5 N          -6.5627  -20.3462   20.2456 N.3     1  UNL1       -0.2951
      6 C          -7.8841  -19.8427   19.7452 C.3     1  UNL1        0.0862
      7 C          -8.6088  -18.7648   20.4953 C.3     1  UNL1        0.0896
      8 H          -6.6702  -21.3481   20.4039 H       1  UNL1        0.1233
      9 C         -10.1920  -17.2739   22.8222 C.ar    1  UNL1       -0.0075
     10 C         -11.2069  -16.3660   22.1931 C.ar    1  UNL1       -0.0030
     11 C         -12.6621  -16.5276   22.5193 C.ar    1  UNL1       -0.0003
     12 C         -13.1024  -17.5971   23.4744 C.ar    1  UNL1       -0.0000
     13 C         -12.0875  -18.5050   24.1035 C.ar    1  UNL1       -0.0003
     14 C         -10.6324  -18.3434   23.7774 C.ar    1  UNL1       -0.0030
     15 C          -8.0063  -15.8728   22.9203 C.3     1  UNL1        0.0499
     16 C          -6.0987  -15.6790   24.6734 C.ar    1  UNL1        0.1346
     17 C          -5.6540  -15.5206   26.0972 C.ar    1  UNL1        0.0366
     18 C          -6.6724  -15.3978   27.1917 C.ar    1  UNL1        0.0031
     19 C          -8.1353  -15.4333   26.8624 C.ar    1  UNL1       -0.0001
     20 C          -8.5800  -15.5916   25.4386 C.ar    1  UNL1       -0.0012
     21 C          -7.5617  -15.7145   24.3441 C.ar    1  UNL1        0.0135
     22 O          -5.0804  -15.8018   23.5789 O.3     1  UNL1       -0.4758
     23 C          -3.0160  -17.0019   22.5551 C.3     1  UNL1        0.0512
     24 C          -4.0953  -16.9329   23.5945 C.3     1  UNL1        0.2055
@<TRIPOS>BOND
     1    23    24    1
     2    24    22    1
     3    22    16    1
     4    16    17   ar
     5    17    18   ar
     6    18    19   ar
     7    19    20   ar
     8    20    21   ar
     9    21    15    1
    10     1    15    1
    11     1     9    1
    12     9    10   ar
    13    10    11   ar
    14    11    12   ar
    15    12    13   ar
    16    13    14   ar
    17     1     2    1
    18     2     3    1
    19     3     4    1
    20     4     5    1
    21     5     6    1
    22     6     7    1
    23    21    16   ar
    24    14     9   ar
    25     7     2    1
    26     5     8    1
@<TRIPOS>MOLECULE
*****
 24 26 0 0 0
SMALL
GASTEIGER

@<TRIPOS>ATOM
      1 C          -8.6319  -16.7031   23.4978 C.3     1  UNL1        0.0847
      2 N         -10.0566  -17.1691   23.5563 N.3     1  UNL1       -0.2676
      3 C         -10.4271  -18.3428   24.4138 C.3     1  UNL1        0.0896
      4 C         -11.8516  -18.8088   24.4724 C.3     1  UNL1        0.0862
      5 N         -12.9056  -18.1011   23.6736 N.3     1  UNL1       -0.2951
      6 C         -12.5351  -16.9275   22.8161 C.3     1  UNL1        0.0862
      7 C         -11.1106  -16.4614   22.7575 C.3     1  UNL1        0.0896
      8 H         -13.6063  -17.7713   24.3374 H       1  UNL1        0.1233
      9 C          -7.9578  -16.1939   24.7372 C.ar    1  UNL1       -0.0075
     10 C          -8.7178  -16.1213   26.0284 C.ar    1  UNL1       -0.0030
     11 C          -8.0436  -15.6121   27.2679 C.ar    1  UNL1       -0.0003
     12 C          -6.6096  -15.1754   27.2161 C.ar    1  UNL1       -0.0000
     13 C          -5.8496  -15.2480   25.9249 C.ar    1  UNL1       -0.0003
     14 C          -6.5237  -15.7572   24.6855 C.ar    1  UNL1       -0.0030
     15 C          -7.8815  -16.7463   22.1997 C.3     1  UNL1        0.0499
     16 C          -7.9371  -18.8186   20.6336 C.ar    1  UNL1        0.1346
     17 C          -7.3301  -20.1062   20.1607 C.ar    1  UNL1        0.0366
     18 C          -6.0605  -20.6091   20.7811 C.ar    1  UNL1        0.0031
     19 C          -5.3978  -19.8244   21.8744 C.ar    1  UNL1       -0.0001
     20 C          -6.0048  -18.5369   22.3472 C.ar    1  UNL1       -0.0012
     21 C          -7.2744  -18.0339   21.7268 C.ar    1  UNL1        0.0135
     22 O          -9.2069  -18.3156   20.0132 O.3     1  UNL1       -0.4758
     23 C         -11.0006  -19.8906   21.0387 C.3     1  UNL1        0.0512
     24 C         -10.3749  -19.2407   19.8404 C.3     1  UNL1        0.2055
@<TRIPOS>BOND
     1    23    24    1
     2    24    22    1
     3    22    16    1
     4    16    17   ar
     5    17    18   ar
     6    18    19   ar
     7    19    20   ar
     8    20    21   ar
     9    21    15    1
    10     1    15    1
    11     1     9    1
    12     9    10   ar
    13    10    11   ar
    14    11    12   ar
    15    12    13   ar
    16    13    14   ar
    17     1     2    1
    18     2     3    1
    19     3     4    1
    20     4     5    1
    21     5     6    1
    22     6     7    1
    23    21    16   ar
    24    14     9   ar
    25     7     2    1
    26     5     8    1
@<TRIPOS>MOLECULE
*****
 24 26 0 0 0
SMALL
GASTEIGER

@<TRIPOS>ATOM
      1 C          -9.1617  -17.9692   23.6249 C.3     1  UNL1        0.0847
      2 N          -8.3122  -16.8789   24.2078 N.3     1  UNL1       -0.2676
      3 C          -7.1417  -16.3462   23.4357 C.3     1  UNL1        0.0896
      4 C          -6.2922  -15.2560   24.0186 C.3     1  UNL1        0.0862
      5 N          -6.6133  -14.6985   25.3736 N.3     1  UNL1       -0.2951
      6 C          -7.7837  -15.2312   26.1457 C.3     1  UNL1        0.0862
      7 C          -8.6332  -16.3214   25.5628 C.3     1  UNL1        0.0896
      8 H          -6.7722  -13.6985   25.2504 H       1  UNL1        0.1233
      9 C         -10.6569  -17.8554   23.6611 C.ar    1  UNL1       -0.0075
     10 C         -11.3495  -16.8082   22.8403 C.ar    1  UNL1       -0.0030
     11 C         -12.8448  -16.6945   22.8765 C.ar    1  UNL1       -0.0003
     12 C         -13.6474  -17.6279   23.7334 C.ar    1  UNL1       -0.0000
     13 C         -12.9548  -18.6751   24.5542 C.ar    1  UNL1       -0.0003
     14 C         -11.4596  -18.7889   24.5181 C.ar    1  UNL1       -0.0030
     15 C          -8.5159  -19.1732   23.0058 C.3     1  UNL1        0.0499
     16 C          -7.4685  -19.6393   20.6743 C.ar    1  UNL1        0.1346
     17 C          -7.6307  -19.9064   19.2073 C.ar    1  UNL1        0.0366
     18 C          -9.0025  -19.9742   18.6045 C.ar    1  UNL1        0.0031
     19 C         -10.2122  -19.7751   19.4689 C.ar    1  UNL1       -0.0001
     20 C         -10.0500  -19.5081   20.9359 C.ar    1  UNL1       -0.0012
     21 C          -8.6781  -19.4402   21.5387 C.ar    1  UNL1        0.0135
     22 O          -6.0966  -19.5714   21.2772 O.3     1  UNL1       -0.4758
     23 C          -4.0065  -20.4122   19.9831 C.3     1  UNL1        0.0512
     24 C          -4.9079  -19.2905   20.4065 C.3     1  UNL1        0.2055
@<TRIPOS>BOND
     1    23    24    1
     2    24    22    1
     3    22    16    1
     4    16    17   ar
     5    17    18   ar
     6    18    19   ar
     7    19    20   ar
     8    20    21   ar
     9    21    15    1
    10     1    15    1
    11     1     9    1
    12     9    10   ar
    13    10    11   ar
    14    11    12   ar
    15    12    13   ar
    16    13    14   ar
    17     1     2    1
    18     2     3    1
    19     3     4    1
    20     4     5    1
    21     5     6    1
    22     6     7    1
    23    21    16   ar
    24    14     9   ar
    25     7     2    1
    26     5     8    1
@<TRIPOS>MOLECULE
*****
 24 26 0 0 0
SMALL
GASTEIGER

@<TRIPOS>ATOM
      1 C          -8.5594  -16.6953   23.5720 C.3     1  UNL1        0.0847
      2 N          -9.9826  -17.1694   23.5657 N.3     1  UNL1       -0.2676
      3 C         -11.0219  -16.4124   22.7932 C.3     1  UNL1        0.0896
      4 C         -12.4449  -16.8864   22.7869 C.3     1  UNL1        0.0862
      5 N         -12.8287  -18.1175   23.5530 N.3     1  UNL1       -0.2951
      6 C         -11.7894  -18.8746   24.3255 C.3     1  UNL1        0.0862
      7 C         -10.3663  -18.4005   24.3318 C.3     1  UNL1        0.0896
      8 H         -13.2288  -18.7707   22.8795 H       1  UNL1        0.1233
      9 C          -7.9390  -16.2017   24.8453 C.ar    1  UNL1       -0.0075
     10 C          -8.6995  -16.2935   26.1350 C.ar    1  UNL1       -0.0030
     11 C          -8.0789  -15.7999   27.4083 C.ar    1  UNL1       -0.0003
     12 C          -6.6980  -15.2145   27.3920 C.ar    1  UNL1       -0.0000
     13 C          -5.9375  -15.1227   26.1023 C.ar    1  UNL1       -0.0003
     14 C          -6.5580  -15.6163   24.8290 C.ar    1  UNL1       -0.0030
     15 C          -7.7568  -16.7147   22.3049 C.3     1  UNL1        0.0499
     16 C          -5.8500  -18.4667   22.0939 C.ar    1  UNL1        0.1346
     17 C          -5.3348  -19.7672   21.5524 C.ar    1  UNL1        0.0366
     18 C          -6.2114  -20.6162   20.6802 C.ar    1  UNL1        0.0031
     19 C          -7.6031  -20.1648   20.3496 C.ar    1  UNL1       -0.0001
     20 C          -8.1183  -18.8643   20.8911 C.ar    1  UNL1       -0.0012
     21 C          -7.2417  -18.0153   21.7633 C.ar    1  UNL1        0.0135
     22 O          -4.9734  -17.6177   22.9662 O.3     1  UNL1       -0.4758
     23 C          -2.5134  -17.0841   22.3232 C.3     1  UNL1        0.0512
     24 C          -3.5078  -17.9179   23.0754 C.3     1  UNL1        0.2055
@<TRIPOS>BOND
     1    23    24    1
     2    24    22    1
     3    22    16    1
     4    16    17   ar
     5    17    18   ar
     6    18    19   ar
     7    19    20   ar
     8    20    21   ar
     9    21    15    1
    10     1    15    1
    11     1     9    1
    12     9    10   ar
    13    10    11   ar
    14    11    12   ar
    15    12    13   ar
    16    13    14   ar
    17     1     2    1
    18     2     3    1
    19     3     4    1
    20     4     5    1
    21     5     6    1
    22     6     7    1
    23    21    16   ar
    24    14     9   ar
    25     7     2    1
    26     5     8    1
@<TRIPOS>MOLECULE
*****
 24 26 0 0 0
SMALL
GASTEIGER

@<TRIPOS>ATOM
      1 C          -7.4347  -17.9537   21.9577 C.3     1  UNL1        0.0847
      2 N          -6.1494  -18.6091   21.5472 N.3     1  UNL1       -0.2676
      3 C          -5.8175  -18.7638   20.0926 C.3     1  UNL1        0.0896
      4 C          -4.5323  -19.4192   19.6821 C.3     1  UNL1        0.0862
      5 N          -3.5790  -19.9200   20.7262 N.3     1  UNL1       -0.2951
      6 C          -3.9108  -19.7654   22.1808 C.3     1  UNL1        0.0862
      7 C          -5.1960  -19.1099   22.5913 C.3     1  UNL1        0.0896
      8 H          -2.6940  -19.4365   20.5731 H       1  UNL1        0.1233
      9 C          -8.7137  -18.7373   21.9451 C.ar    1  UNL1       -0.0075
     10 C          -9.5153  -18.8443   20.6818 C.ar    1  UNL1       -0.0030
     11 C         -10.7943  -19.6280   20.6692 C.ar    1  UNL1       -0.0003
     12 C         -11.2716  -20.3045   21.9200 C.ar    1  UNL1       -0.0000
     13 C         -10.4700  -20.1975   23.1833 C.ar    1  UNL1       -0.0003
     14 C          -9.1911  -19.4139   23.1959 C.ar    1  UNL1       -0.0030
     15 C          -7.4410  -16.5146   22.3807 C.3     1  UNL1        0.0499
     16 C          -5.7736  -15.6437   24.1728 C.ar    1  UNL1        0.1346
     17 C          -5.4691  -15.2789   25.5955 C.ar    1  UNL1        0.0366
     18 C          -6.5275  -15.4202   26.6490 C.ar    1  UNL1        0.0031
     19 C          -7.8904  -15.9262   26.2797 C.ar    1  UNL1       -0.0001
     20 C          -8.1949  -16.2910   24.8570 C.ar    1  UNL1       -0.0012
     21 C          -7.1365  -16.1498   23.8035 C.ar    1  UNL1        0.0135
     22 O          -4.7151  -15.5025   23.1193 O.3     1  UNL1       -0.4758
     23 C          -2.4799  -16.2940   22.0576 C.3     1  UNL1        0.0512
     24 C          -3.5043  -16.3874   23.1493 C.3     1  UNL1        0.2055
@<TRIPOS>BOND
     1    23    24    1
     2    24    22    1
     3    22    16    1
     4    16    17   ar
     5    17    18   ar
     6    18    19   ar
     7    19    20   ar
     8    20    21   ar
     9    21    15    1
    10     1    15    1
    11     1     9    1
    12     9    10   ar
    13    10    11   ar
    14    11    12   ar
    15    12    13   ar
    16    13    14   ar
    17     1     2    1
    18     2     3    1
    19     3     4    1
    20     4     5    1
    21     5     6    1
    22     6     7    1
    23    21    16   ar
    24    14     9   ar
    25     7     2    1
    26     5     8    1
@<TRIPOS>MOLECULE
*****
 24 26 0 0 0
SMALL
GASTEIGER

@<TRIPOS>ATOM
      1 C          -7.8675  -16.7752   22.9967 C.3     1  UNL1        0.0847
      2 N          -7.4995  -16.1809   24.3240 N.3     1  UNL1       -0.2676
      3 C          -8.5297  -16.0729   25.4088 C.3     1  UNL1        0.0896
      4 C          -8.1618  -15.4786   26.7360 C.3     1  UNL1        0.0862
      5 N          -6.7637  -14.9923   26.9783 N.3     1  UNL1       -0.2951
      6 C          -5.7335  -15.1004   25.8934 C.3     1  UNL1        0.0862
      7 C          -6.1014  -15.6946   24.5662 C.3     1  UNL1        0.0896
      8 H          -6.4050  -15.5140   27.7780 H       1  UNL1        0.1233
      9 C          -7.2313  -18.0568   22.5466 C.ar    1  UNL1       -0.0075
     10 C          -5.8748  -18.0365   21.9067 C.ar    1  UNL1       -0.0030
     11 C          -5.2385  -19.3182   21.4565 C.ar    1  UNL1       -0.0003
     12 C          -5.9588  -20.6201   21.6463 C.ar    1  UNL1       -0.0000
     13 C          -7.3153  -20.6405   22.2862 C.ar    1  UNL1       -0.0003
     14 C          -7.9515  -19.3589   22.7364 C.ar    1  UNL1       -0.0030
     15 C          -8.8717  -16.0879   22.1197 C.3     1  UNL1        0.0499
     16 C         -10.6380  -17.5979   20.9577 C.ar    1  UNL1        0.1346
     17 C         -12.0397  -18.1241   20.8677 C.ar    1  UNL1        0.0366
     18 C         -13.0771  -17.6664   21.8497 C.ar    1  UNL1        0.0031
     19 C         -12.7126  -16.6825   22.9217 C.ar    1  UNL1       -0.0001
     20 C         -11.3109  -16.1564   23.0117 C.ar    1  UNL1       -0.0012
     21 C         -10.2735  -16.6141   22.0297 C.ar    1  UNL1        0.0135
     22 O          -9.6005  -18.0556   19.9757 O.3     1  UNL1       -0.4758
     23 C          -8.4245  -20.0617   18.8170 C.3     1  UNL1        0.0512
     24 C          -9.6511  -19.4507   19.4269 C.3     1  UNL1        0.2055
@<TRIPOS>BOND
     1    23    24    1
     2    24    22    1
     3    22    16    1
     4    16    17   ar
     5    17    18   ar
     6    18    19   ar
     7    19    20   ar
     8    20    21   ar
     9    21    15    1
    10     1    15    1
    11     1     9    1
    12     9    10   ar
    13    10    11   ar
    14    11    12   ar
    15    12    13   ar
    16    13    14   ar
    17     1     2    1
    18     2     3    1
    19     3     4    1
    20     4     5    1
    21     5     6    1
    22     6     7    1
    23    21    16   ar
    24    14     9   ar
    25     7     2    1
    26     5     8    1
@<TRIPOS>MOLECULE
*****
 24 26 0 0 0
SMALL
GASTEIGER

@<TRIPOS>ATOM
      1 C          -8.8905  -16.7624   23.1700 C.3     1  UNL1        0.0847
      2 N         -10.2309  -17.0913   22.5823 N.3     1  UNL1       -0.2676
      3 C         -11.3579  -16.1071   22.6880 C.3     1  UNL1        0.0896
      4 C         -12.6983  -16.4358   22.1003 C.3     1  UNL1        0.0862
      5 N         -12.9116  -17.7487   21.4070 N.3     1  UNL1       -0.2951
      6 C         -11.7845  -18.7329   21.3014 C.3     1  UNL1        0.0862
      7 C         -10.4442  -18.4042   21.8891 C.3     1  UNL1        0.0896
      8 H         -13.2054  -17.5342   20.4541 H       1  UNL1        0.1233
      9 C          -8.7387  -16.6137   24.6549 C.ar    1  UNL1       -0.0075
     10 C          -9.2629  -17.6780   25.5727 C.ar    1  UNL1       -0.0030
     11 C          -9.1110  -17.5292   27.0576 C.ar    1  UNL1       -0.0003
     12 C          -8.4350  -16.3162   27.6246 C.ar    1  UNL1       -0.0000
     13 C          -7.9108  -15.2519   26.7067 C.ar    1  UNL1       -0.0003
     14 C          -8.0626  -15.4006   25.2219 C.ar    1  UNL1       -0.0030
     15 C          -7.7020  -16.5824   22.2728 C.3     1  UNL1        0.0499
     16 C          -6.3078  -18.7614   22.0314 C.ar    1  UNL1        0.1346
     17 C          -5.0482  -19.5332   22.2914 C.ar    1  UNL1        0.0366
     18 C          -3.9229  -18.8976   23.0528 C.ar    1  UNL1        0.0031
     19 C          -4.0573  -17.4903   23.5542 C.ar    1  UNL1       -0.0001
     20 C          -5.3170  -16.7186   23.2942 C.ar    1  UNL1       -0.0012
     21 C          -6.4422  -17.3541   22.5328 C.ar    1  UNL1        0.0135
     22 O          -7.4332  -19.3970   21.2700 O.3     1  UNL1       -0.4758
     23 C          -8.6362  -19.7929   19.0015 C.3     1  UNL1        0.0512
     24 C          -7.4015  -19.4269   19.7706 C.3     1  UNL1        0.2055
@<TRIPOS>BOND
     1    23    24    1
     2    24    22    1
     3    22    16    1
     4    16    17   ar
     5    17    18   ar
     6    18    19   ar
     7    19    20   ar
     8    20    21   ar
     9    21    15    1
    10     1    15    1
    11     1     9    1
    12     9    10   ar
    13    10    11   ar
    14    11    12   ar
    15    12    13   ar
    16    13    14   ar
    17     1     2    1
    18     2     3    1
    19     3     4    1
    20     4     5    1
    21     5     6    1
    22     6     7    1
    23    21    16   ar
    24    14     9   ar
    25     7     2    1
    26     5     8    1
@<TRIPOS>MOLECULE
*****
 24 26 0 0 0
SMALL
GASTEIGER

@<TRIPOS>ATOM
      1 C          -8.8681  -16.6394   23.1403 C.3     1  UNL1        0.0847
      2 N         -10.1707  -16.9214   22.4520 N.3     1  UNL1       -0.2676
      3 C         -11.4289  -16.2564   22.9262 C.3     1  UNL1        0.0896
      4 C         -12.7315  -16.5384   22.2380 C.3     1  UNL1        0.0862
      5 N         -12.7759  -17.4854   21.0756 N.3     1  UNL1       -0.2951
      6 C         -11.5178  -18.1504   20.6014 C.3     1  UNL1        0.0862
      7 C         -10.2152  -17.8684   21.2897 C.3     1  UNL1        0.0896
      8 H         -13.1488  -16.9620   20.2835 H       1  UNL1        0.1233
      9 C          -8.8176  -16.5328   24.6357 C.ar    1  UNL1       -0.0075
     10 C          -9.1157  -17.7336   25.4837 C.ar    1  UNL1       -0.0030
     11 C          -9.0652  -17.6269   26.9791 C.ar    1  UNL1       -0.0003
     12 C          -8.7167  -16.3195   27.6264 C.ar    1  UNL1       -0.0000
     13 C          -8.4187  -15.1186   26.7784 C.ar    1  UNL1       -0.0003
     14 C          -8.4691  -15.2253   25.2830 C.ar    1  UNL1       -0.0030
     15 C          -7.6160  -16.4640   22.3332 C.3     1  UNL1        0.0499
     16 C          -5.1683  -17.0863   22.9431 C.ar    1  UNL1        0.1346
     17 C          -4.0703  -18.1043   23.0315 C.ar    1  UNL1        0.0366
     18 C          -4.3218  -19.5182   22.5985 C.ar    1  UNL1        0.0031
     19 C          -5.6714  -19.9141   22.0771 C.ar    1  UNL1       -0.0001
     20 C          -6.7695  -18.8961   21.9886 C.ar    1  UNL1       -0.0012
     21 C          -6.5179  -17.4822   22.4216 C.ar    1  UNL1        0.0135
     22 O          -4.9168  -15.6723   23.3761 O.3     1  UNL1       -0.4758
     23 C          -5.0379  -16.2515   25.9058 C.3     1  UNL1        0.0512
     24 C          -5.1959  -15.2604   24.7911 C.3     1  UNL1        0.2055
@<TRIPOS>BOND
     1    23    24    1
     2    24    22    1
     3    22    16    1
     4    16    17   ar
     5    17    18   ar
     6    18    19   ar
     7    19    20   ar
     8    20    21   ar
     9    21    15    1
    10     1    15    1
    11     1     9    1
    12     9    10   ar
    13    10    11   ar
    14    11    12   ar
    15    12    13   ar
    16    13    14   ar
    17     1     2    1
    18     2     3    1
    19     3     4    1
    20     4     5    1
    21     5     6    1
    22     6     7    1
    23    21    16   ar
    24    14     9   ar
    25     7     2    1
    26     5     8    1
