@<TRIPOS>MOLECULE
*****
 28 32 0 0 0
SMALL
GASTEIGER

@<TRIPOS>ATOM
      1 C          -6.9204  -16.6259   23.5848 C.ar    1  UNL1        0.1770
      2 N          -5.5602  -16.8560   22.9957 N.ar    1  UNL1       -0.2018
      3 C          -5.6175  -18.1089   22.1728 C.ar    1  UNL1        0.1806
      4 N          -4.5792  -18.8245   21.3605 N.ar    1  UNL1       -0.2238
      5 C          -4.9364  -20.0843   20.6289 C.ar    1  UNL1        0.1007
      6 C          -6.3319  -20.6284   20.7095 C.ar    1  UNL1        0.0223
      7 C          -7.3702  -19.9128   21.5217 C.ar    1  UNL1        0.0223
      8 C          -7.0130  -18.6530   22.2534 C.ar    1  UNL1        0.1016
      9 N          -7.8182  -17.7365   23.1261 N.ar    1  UNL1       -0.2839
     10 C          -9.2669  -17.9015   23.4782 C.ar    1  UNL1        0.0658
     11 C          -9.6569  -18.6533   24.7161 C.ar    1  UNL1        0.0173
     12 C         -11.1057  -18.8184   25.0683 C.ar    1  UNL1       -0.0028
     13 C         -12.1644  -18.2317   24.1824 C.ar    1  UNL1       -0.0224
     14 C         -11.7744  -17.4798   22.9443 C.ar    1  UNL1       -0.0026
     15 C         -12.8331  -16.8930   22.0585 C.ar    1  UNL1       -0.0003
     16 C         -12.4431  -16.1412   20.8205 C.ar    1  UNL1       -0.0000
     17 C         -10.9944  -15.9762   20.4684 C.ar    1  UNL1        0.0000
     18 C          -9.9357  -16.5629   21.3543 C.ar    1  UNL1        0.0014
     19 C         -10.3257  -17.3147   22.5922 C.ar    1  UNL1        0.0159
     20 C         -13.6131  -18.3967   24.5345 C.3     1  UNL1        0.0224
     21 C         -14.6895  -18.5497   25.5679 C.3     1  UNL1        0.0047
     22 C         -15.0459  -18.5296   24.1110 C.3     1  UNL1        0.0047
     23 S          -7.3136  -15.4854   24.4762 S.3     1  UNL1       -0.0722
     24 C          -5.5232  -15.3159   26.3513 C.3     1  UNL1        0.0181
     25 C          -6.9499  -15.5106   25.9312 C.3     1  UNL1        0.0910
     26 C          -8.0131  -15.7307   26.9663 C.2     1  UNL1        0.0605
     27 O          -8.5419  -14.5706   27.7567 O.co2   1  UNL1       -0.5483
     28 O          -8.5475  -17.1107   27.2109 O.co2   1  UNL1       -0.5483
@<TRIPOS>UNITY_ATOM_ATTR
27 1
charge -1
@<TRIPOS>BOND
     1    24    25    1
     2    25    23    1
     3    23     1    1
     4     1     2   ar
     5     2     3   ar
     6     3     4   ar
     7     4     5   ar
     8     5     6   ar
     9     6     7   ar
    10     7     8   ar
    11     8     9   ar
    12     9    10    1
    13    10    11   ar
    14    11    12   ar
    15    12    13   ar
    16    13    20    1
    17    20    21    1
    18    21    22    1
    19    13    14   ar
    20    14    15   ar
    21    15    16   ar
    22    16    17   ar
    23    17    18   ar
    24    18    19   ar
    25    25    26    1
    26    26    27   ar
    27    26    28   ar
    28     9     1   ar
    29    19    10   ar
    30     8     3   ar
    31    22    20    1
    32    19    14   ar
@<TRIPOS>MOLECULE
*****
 28 32 0 0 0
SMALL
GASTEIGER

@<TRIPOS>ATOM
      1 C          -7.2811  -18.9280   21.9926 C.ar    1  UNL1        0.1770
      2 N          -5.8574  -18.4745   21.8605 N.ar    1  UNL1       -0.2018
      3 C          -5.6542  -17.3102   22.7842 C.ar    1  UNL1        0.1806
      4 N          -4.4549  -16.4580   23.0761 N.ar    1  UNL1       -0.2238
      5 C          -4.5537  -15.3396   24.0708 C.ar    1  UNL1        0.1007
      6 C          -5.8518  -15.0735   24.7737 C.ar    1  UNL1        0.0223
      7 C          -7.0512  -15.9258   24.4818 C.ar    1  UNL1        0.0223
      8 C          -6.9524  -17.0441   23.4870 C.ar    1  UNL1        0.1016
      9 N          -7.9579  -18.0439   22.9978 N.ar    1  UNL1       -0.2839
     10 C          -9.3888  -18.1424   23.4367 C.ar    1  UNL1        0.0658
     11 C          -9.7542  -18.9911   24.6182 C.ar    1  UNL1        0.0173
     12 C         -11.1852  -19.0896   25.0571 C.ar    1  UNL1       -0.0028
     13 C         -12.2508  -18.3393   24.3145 C.ar    1  UNL1       -0.0224
     14 C         -11.8854  -17.4906   23.1328 C.ar    1  UNL1       -0.0026
     15 C         -12.9510  -16.7403   22.3901 C.ar    1  UNL1       -0.0003
     16 C         -12.5856  -15.8916   21.2086 C.ar    1  UNL1       -0.0000
     17 C         -11.1547  -15.7931   20.7697 C.ar    1  UNL1        0.0000
     18 C         -10.0891  -16.5434   21.5124 C.ar    1  UNL1        0.0014
     19 C         -10.4545  -17.3921   22.6939 C.ar    1  UNL1        0.0159
     20 C         -13.6818  -18.4378   24.7533 C.3     1  UNL1        0.0224
     21 C         -14.7008  -18.5267   25.8504 C.3     1  UNL1        0.0047
     22 C         -15.1411  -18.5195   24.4165 C.3     1  UNL1        0.0047
     23 S          -7.9165  -20.0657   21.2497 S.3     1  UNL1       -0.0722
     24 C          -8.1616  -19.5939   18.7066 C.3     1  UNL1        0.0181
     25 C          -8.7838  -19.7916   20.0570 C.3     1  UNL1        0.0910
     26 C         -10.2736  -19.7151   20.2148 C.2     1  UNL1        0.0605
     27 O         -10.9473  -20.4455   21.3385 O.co2   1  UNL1       -0.5483
     28 O         -11.0897  -18.9081   19.2490 O.co2   1  UNL1       -0.5483
@<TRIPOS>UNITY_ATOM_ATTR
27 1
charge -1
@<TRIPOS>BOND
     1    24    25    1
     2    25    23    1
     3    23     1    1
     4     1     2   ar
     5     2     3   ar
     6     3     4   ar
     7     4     5   ar
     8     5     6   ar
     9     6     7   ar
    10     7     8   ar
    11     8     9   ar
    12     9    10    1
    13    10    11   ar
    14    11    12   ar
    15    12    13   ar
    16    13    20    1
    17    20    21    1
    18    21    22    1
    19    13    14   ar
    20    14    15   ar
    21    15    16   ar
    22    16    17   ar
    23    17    18   ar
    24    18    19   ar
    25    25    26    1
    26    26    27   ar
    27    26    28   ar
    28     9     1   ar
    29    19    10   ar
    30     8     3   ar
    31    22    20    1
    32    19    14   ar
@<TRIPOS>MOLECULE
*****
 28 32 0 0 0
SMALL
GASTEIGER

@<TRIPOS>ATOM
      1 C          -7.2668  -18.4348   22.3902 C.ar    1  UNL1        0.1770
      2 N          -5.8553  -17.9352   22.4789 N.ar    1  UNL1       -0.2018
      3 C          -5.8045  -16.8752   23.5391 C.ar    1  UNL1        0.1806
      4 N          -4.6798  -16.0315   24.0618 N.ar    1  UNL1       -0.2238
      5 C          -4.9354  -15.0324   25.1510 C.ar    1  UNL1        0.1007
      6 C          -6.3156  -14.8769   25.7174 C.ar    1  UNL1        0.0223
      7 C          -7.4402  -15.7206   25.1947 C.ar    1  UNL1        0.0223
      8 C          -7.1847  -16.7198   24.1055 C.ar    1  UNL1        0.1016
      9 N          -8.0885  -17.6836   23.3955 N.ar    1  UNL1       -0.2839
     10 C          -9.5562  -17.8646   23.6467 C.ar    1  UNL1        0.0658
     11 C         -10.0227  -18.6212   24.8549 C.ar    1  UNL1        0.0173
     12 C         -11.4904  -18.8021   25.1061 C.ar    1  UNL1       -0.0028
     13 C         -12.4916  -18.2264   24.1490 C.ar    1  UNL1       -0.0224
     14 C         -12.0252  -17.4697   22.9407 C.ar    1  UNL1       -0.0026
     15 C         -13.0264  -16.8939   21.9837 C.ar    1  UNL1       -0.0003
     16 C         -12.5600  -16.1373   20.7755 C.ar    1  UNL1       -0.0000
     17 C         -11.0923  -15.9564   20.5243 C.ar    1  UNL1        0.0000
     18 C         -10.0910  -16.5321   21.4814 C.ar    1  UNL1        0.0014
     19 C         -10.5575  -17.2888   22.6896 C.ar    1  UNL1        0.0159
     20 C         -13.9593  -18.4073   24.4002 C.3     1  UNL1        0.0224
     21 C         -15.3567  -18.5659   23.8784 C.3     1  UNL1        0.0047
     22 C         -15.1041  -18.5621   25.3570 C.3     1  UNL1        0.0047
     23 S          -7.7686  -19.4988   21.4596 S.3     1  UNL1       -0.0722
     24 C          -8.1399  -19.5769   18.8894 C.3     1  UNL1        0.0181
     25 C          -7.2145  -19.6018   20.0695 C.3     1  UNL1        0.0910
     26 C          -5.7347  -19.7297   19.8597 C.2     1  UNL1        0.0605
     27 O          -4.9349  -18.5415   19.4141 O.co2   1  UNL1       -0.5483
     28 O          -5.0548  -21.0458   20.0953 O.co2   1  UNL1       -0.5483
@<TRIPOS>UNITY_ATOM_ATTR
27 1
charge -1
@<TRIPOS>BOND
     1    24    25    1
     2    25    23    1
     3    23     1    1
     4     1     2   ar
     5     2     3   ar
     6     3     4   ar
     7     4     5   ar
     8     5     6   ar
     9     6     7   ar
    10     7     8   ar
    11     8     9   ar
    12     9    10    1
    13    10    11   ar
    14    11    12   ar
    15    12    13   ar
    16    13    20    1
    17    20    21    1
    18    21    22    1
    19    13    14   ar
    20    14    15   ar
    21    15    16   ar
    22    16    17   ar
    23    17    18   ar
    24    18    19   ar
    25    25    26    1
    26    26    27   ar
    27    26    28   ar
    28     9     1   ar
    29    19    10   ar
    30     8     3   ar
    31    22    20    1
    32    19    14   ar
@<TRIPOS>MOLECULE
*****
 28 32 0 0 0
SMALL
GASTEIGER

@<TRIPOS>ATOM
      1 C          -5.5322  -16.3617   24.0583 C.ar    1  UNL1        0.1770
      2 N          -4.1182  -16.8472   24.1813 N.ar    1  UNL1       -0.2018
      3 C          -3.8980  -17.9022   23.1380 C.ar    1  UNL1        0.1806
      4 N          -2.6990  -18.7328   22.7879 N.ar    1  UNL1       -0.2238
      5 C          -2.7779  -19.7299   21.6701 C.ar    1  UNL1        0.1007
      6 C          -4.0557  -19.8965   20.9024 C.ar    1  UNL1        0.0223
      7 C          -5.2547  -19.0659   21.2525 C.ar    1  UNL1        0.0223
      8 C          -5.1759  -18.0688   22.3703 C.ar    1  UNL1        0.1016
      9 N          -6.1858  -17.1167   22.9391 N.ar    1  UNL1       -0.2839
     10 C          -7.6010  -16.9490   22.4708 C.ar    1  UNL1        0.0658
     11 C          -8.0197  -15.6810   21.7876 C.ar    1  UNL1        0.0173
     12 C          -9.4348  -15.5134   21.3193 C.ar    1  UNL1       -0.0028
     13 C         -10.4313  -16.6137   21.5343 C.ar    1  UNL1       -0.0224
     14 C         -10.0126  -17.8818   22.2175 C.ar    1  UNL1       -0.0026
     15 C         -11.0091  -18.9822   22.4324 C.ar    1  UNL1       -0.0003
     16 C         -10.5904  -20.2502   23.1157 C.ar    1  UNL1       -0.0000
     17 C          -9.1753  -20.4178   23.5839 C.ar    1  UNL1        0.0000
     18 C          -8.1788  -19.3175   23.3690 C.ar    1  UNL1        0.0014
     19 C          -8.5975  -18.0495   22.6858 C.ar    1  UNL1        0.0159
     20 C         -11.8464  -16.4460   21.0660 C.3     1  UNL1        0.0224
     21 C         -12.8248  -15.9839   20.0273 C.3     1  UNL1        0.0047
     22 C         -13.3190  -16.6178   21.2937 C.3     1  UNL1        0.0047
     23 S          -6.1789  -15.3065   24.9058 S.3     1  UNL1       -0.0722
     24 C          -6.5279  -15.6460   27.4578 C.3     1  UNL1        0.0181
     25 C          -7.0573  -15.7020   26.0556 C.3     1  UNL1        0.0910
     26 C          -8.4653  -16.1536   25.8029 C.2     1  UNL1        0.0605
     27 O          -9.3722  -15.3319   24.9354 O.co2   1  UNL1       -0.5483
     28 O          -8.9664  -17.4267   26.4177 O.co2   1  UNL1       -0.5483
@<TRIPOS>UNITY_ATOM_ATTR
27 1
charge -1
@<TRIPOS>BOND
     1    24    25    1
     2    25    23    1
     3    23     1    1
     4     1     2   ar
     5     2     3   ar
     6     3     4   ar
     7     4     5   ar
     8     5     6   ar
     9     6     7   ar
    10     7     8   ar
    11     8     9   ar
    12     9    10    1
    13    10    11   ar
    14    11    12   ar
    15    12    13   ar
    16    13    20    1
    17    20    21    1
    18    21    22    1
    19    13    14   ar
    20    14    15   ar
    21    15    16   ar
    22    16    17   ar
    23    17    18   ar
    24    18    19   ar
    25    25    26    1
    26    26    27   ar
    27    26    28   ar
    28     9     1   ar
    29    19    10   ar
    30     8     3   ar
    31    22    20    1
    32    19    14   ar
@<TRIPOS>MOLECULE
*****
 28 32 0 0 0
SMALL
GASTEIGER

@<TRIPOS>ATOM
      1 C          -9.8424  -16.6553   23.5434 C.ar    1  UNL1        0.1770
      2 N          -9.3273  -15.7251   24.6014 N.ar    1  UNL1       -0.2018
      3 C          -7.8374  -15.6343   24.4534 C.ar    1  UNL1        0.1806
      4 N          -6.7977  -14.8687   25.2168 N.ar    1  UNL1       -0.2238
      5 C          -5.3523  -14.9772   24.8307 C.ar    1  UNL1        0.1007
      6 C          -4.9466  -15.8513   23.6812 C.ar    1  UNL1        0.0223
      7 C          -5.9863  -16.6169   22.9178 C.ar    1  UNL1        0.0223
      8 C          -7.4317  -16.5084   23.3039 C.ar    1  UNL1        0.1016
      9 N          -8.6709  -17.1394   22.7414 N.ar    1  UNL1       -0.2839
     10 C          -8.7284  -18.0880   21.5809 C.ar    1  UNL1        0.0658
     11 C          -9.9329  -18.1076   20.6872 C.ar    1  UNL1        0.0173
     12 C          -9.9904  -19.0562   19.5267 C.ar    1  UNL1       -0.0028
     13 C          -8.8434  -19.9851   19.2597 C.ar    1  UNL1       -0.0224
     14 C          -7.6388  -19.9655   20.1534 C.ar    1  UNL1       -0.0026
     15 C          -6.4917  -20.8945   19.8864 C.ar    1  UNL1       -0.0003
     16 C          -5.2872  -20.8749   20.7801 C.ar    1  UNL1       -0.0000
     17 C          -5.2296  -19.9263   21.9406 C.ar    1  UNL1        0.0000
     18 C          -6.3767  -18.9974   22.2076 C.ar    1  UNL1        0.0014
     19 C          -7.5812  -19.0170   21.3140 C.ar    1  UNL1        0.0159
     20 C          -8.9009  -20.9337   18.0992 C.3     1  UNL1        0.0224
     21 C          -8.6332  -22.2889   17.5146 C.3     1  UNL1        0.0047
     22 C          -9.2683  -21.2214   16.6736 C.3     1  UNL1        0.0047
     23 S         -11.2772  -17.0347   23.3255 S.3     1  UNL1       -0.0722
     24 C         -13.2450  -18.3774   24.3621 C.3     1  UNL1        0.0181
     25 C         -11.8151  -18.3047   23.9152 C.3     1  UNL1        0.0910
     26 C         -10.9228  -19.5021   24.0579 C.2     1  UNL1        0.0605
     27 O         -10.1204  -19.6945   25.3105 O.co2   1  UNL1       -0.5483
     28 O         -10.8331  -20.5071   22.9479 O.co2   1  UNL1       -0.5483
@<TRIPOS>UNITY_ATOM_ATTR
27 1
charge -1
@<TRIPOS>BOND
     1    24    25    1
     2    25    23    1
     3    23     1    1
     4     1     2   ar
     5     2     3   ar
     6     3     4   ar
     7     4     5   ar
     8     5     6   ar
     9     6     7   ar
    10     7     8   ar
    11     8     9   ar
    12     9    10    1
    13    10    11   ar
    14    11    12   ar
    15    12    13   ar
    16    13    20    1
    17    20    21    1
    18    21    22    1
    19    13    14   ar
    20    14    15   ar
    21    15    16   ar
    22    16    17   ar
    23    17    18   ar
    24    18    19   ar
    25    25    26    1
    26    26    27   ar
    27    26    28   ar
    28     9     1   ar
    29    19    10   ar
    30     8     3   ar
    31    22    20    1
    32    19    14   ar
@<TRIPOS>MOLECULE
*****
 28 32 0 0 0
SMALL
GASTEIGER

@<TRIPOS>ATOM
      1 C           3.8715   -2.2300   20.3657 C.ar    1  UNL1        0.1770
      2 N           4.5646   -3.0289   21.4294 N.ar    1  UNL1       -0.2018
      3 C           4.3734   -2.3220   22.7385 C.ar    1  UNL1        0.1806
      4 N           4.8332   -2.6439   24.1296 N.ar    1  UNL1       -0.2238
      5 C           4.4816   -1.7302   25.2660 C.ar    1  UNL1        0.1007
      6 C           3.6703   -0.4945   25.0113 C.ar    1  UNL1        0.0223
      7 C           3.2105   -0.1726   23.6203 C.ar    1  UNL1        0.0223
      8 C           3.5620   -1.0864   22.4839 C.ar    1  UNL1        0.1016
      9 N           3.2519   -1.0295   21.0174 N.ar    1  UNL1       -0.2839
     10 C           2.4609    0.0401   20.3244 C.ar    1  UNL1        0.0658
     11 C           0.9652   -0.0541   20.2627 C.ar    1  UNL1        0.0173
     12 C           0.1743    1.0155   19.5696 C.ar    1  UNL1       -0.0028
     13 C           0.8790    2.1794   18.9382 C.ar    1  UNL1       -0.0224
     14 C           2.3749    2.2736   18.9999 C.ar    1  UNL1       -0.0026
     15 C           3.0797    3.4374   18.3685 C.ar    1  UNL1       -0.0003
     16 C           4.5754    3.5317   18.4301 C.ar    1  UNL1       -0.0000
     17 C           5.3663    2.4620   19.1232 C.ar    1  UNL1        0.0000
     18 C           4.6615    1.2982   19.7546 C.ar    1  UNL1        0.0014
     19 C           3.1658    1.2040   19.6929 C.ar    1  UNL1        0.0159
     20 C           0.0881    3.2490   18.2452 C.3     1  UNL1        0.0224
     21 C          -0.8436    3.6707   17.1479 C.3     1  UNL1        0.0047
     22 C          -0.3500    4.6798   18.1420 C.3     1  UNL1        0.0047
     23 S           3.8090   -2.5718   18.9065 S.3     1  UNL1       -0.0722
     24 C           3.7914   -0.9281   16.8946 C.3     1  UNL1        0.0181
     25 C           4.5499   -1.7335   17.9074 C.3     1  UNL1        0.0910
     26 C           6.0496   -1.7006   17.9211 C.2     1  UNL1        0.0605
     27 O           6.7857   -0.7035   17.0762 O.co2   1  UNL1       -0.5483
     28 O           6.8130   -2.6649   18.7798 O.co2   1  UNL1       -0.5483
@<TRIPOS>UNITY_ATOM_ATTR
27 1
charge -1
@<TRIPOS>BOND
     1    24    25    1
     2    25    23    1
     3    23     1    1
     4     1     2   ar
     5     2     3   ar
     6     3     4   ar
     7     4     5   ar
     8     5     6   ar
     9     6     7   ar
    10     7     8   ar
    11     8     9   ar
    12     9    10    1
    13    10    11   ar
    14    11    12   ar
    15    12    13   ar
    16    13    20    1
    17    20    21    1
    18    21    22    1
    19    13    14   ar
    20    14    15   ar
    21    15    16   ar
    22    16    17   ar
    23    17    18   ar
    24    18    19   ar
    25    25    26    1
    26    26    27   ar
    27    26    28   ar
    28     9     1   ar
    29    19    10   ar
    30     8     3   ar
    31    22    20    1
    32    19    14   ar
@<TRIPOS>MOLECULE
*****
 28 32 0 0 0
SMALL
GASTEIGER

@<TRIPOS>ATOM
      1 C           4.4291   -1.6682   18.7524 C.ar    1  UNL1        0.1770
      2 N           5.4400   -1.6407   17.6445 N.ar    1  UNL1       -0.2018
      3 C           5.9641   -0.2399   17.5299 C.ar    1  UNL1        0.1806
      4 N           6.9781    0.3806   16.6152 N.ar    1  UNL1       -0.2238
      5 C           7.3052    1.8394   16.7376 C.ar    1  UNL1        0.1007
      6 C           6.6182    2.6776   17.7746 C.ar    1  UNL1        0.0223
      7 C           5.6042    2.0571   18.6893 C.ar    1  UNL1        0.0223
      8 C           5.2771    0.5983   18.5669 C.ar    1  UNL1        0.1016
      9 N           4.3284   -0.2844   19.3225 N.ar    1  UNL1       -0.2839
     10 C           3.4358    0.1419   20.4501 C.ar    1  UNL1        0.0658
     11 C           3.7799   -0.2318   21.8614 C.ar    1  UNL1        0.0173
     12 C           2.8873    0.1944   22.9891 C.ar    1  UNL1       -0.0028
     13 C           1.6506    0.9944   22.7054 C.ar    1  UNL1       -0.0224
     14 C           1.3064    1.3681   21.2940 C.ar    1  UNL1       -0.0026
     15 C           0.0697    2.1681   21.0103 C.ar    1  UNL1       -0.0003
     16 C          -0.2744    2.5418   19.5990 C.ar    1  UNL1       -0.0000
     17 C           0.6182    2.1156   18.4713 C.ar    1  UNL1        0.0000
     18 C           1.8549    1.3156   18.7550 C.ar    1  UNL1        0.0014
     19 C           2.1990    0.9419   20.1664 C.ar    1  UNL1        0.0159
     20 C           0.7580    1.4206   23.8330 C.3     1  UNL1        0.0224
     21 C          -0.0917    2.4655   24.4934 C.3     1  UNL1        0.0047
     22 C           0.0617    1.1140   25.1257 C.3     1  UNL1        0.0047
     23 S           3.6548   -2.8687   19.2098 S.3     1  UNL1       -0.0722
     24 C           4.4729   -5.3099   18.8617 C.3     1  UNL1        0.0181
     25 C           4.3796   -4.0805   19.7159 C.3     1  UNL1        0.0910
     26 C           5.0110   -4.0629   21.0765 C.2     1  UNL1        0.0605
     27 O           4.1598   -3.8667   22.2959 O.co2   1  UNL1       -0.5483
     28 O           6.4936   -4.2415   21.2177 O.co2   1  UNL1       -0.5483
@<TRIPOS>UNITY_ATOM_ATTR
27 1
charge -1
@<TRIPOS>BOND
     1    24    25    1
     2    25    23    1
     3    23     1    1
     4     1     2   ar
     5     2     3   ar
     6     3     4   ar
     7     4     5   ar
     8     5     6   ar
     9     6     7   ar
    10     7     8   ar
    11     8     9   ar
    12     9    10    1
    13    10    11   ar
    14    11    12   ar
    15    12    13   ar
    16    13    20    1
    17    20    21    1
    18    21    22    1
    19    13    14   ar
    20    14    15   ar
    21    15    16   ar
    22    16    17   ar
    23    17    18   ar
    24    18    19   ar
    25    25    26    1
    26    26    27   ar
    27    26    28   ar
    28     9     1   ar
    29    19    10   ar
    30     8     3   ar
    31    22    20    1
    32    19    14   ar
@<TRIPOS>MOLECULE
*****
 28 32 0 0 0
SMALL
GASTEIGER

@<TRIPOS>ATOM
      1 C         -18.1912   -7.3200   16.9605 C.ar    1  UNL1        0.1770
      2 N         -19.5435   -6.7387   16.6717 N.ar    1  UNL1       -0.2018
      3 C         -19.3781   -5.2630   16.4596 C.ar    1  UNL1        0.1806
      4 N         -20.3639   -4.1777   16.1431 N.ar    1  UNL1       -0.2238
      5 C         -19.8952   -2.7617   15.9845 C.ar    1  UNL1        0.1007
      6 C         -18.4407   -2.4310   16.1422 C.ar    1  UNL1        0.0223
      7 C         -17.4548   -3.5163   16.4587 C.ar    1  UNL1        0.0223
      8 C         -17.9235   -4.9323   16.6173 C.ar    1  UNL1        0.1016
      9 N         -17.1900   -6.2036   16.9269 N.ar    1  UNL1       -0.2839
     10 C         -15.7143   -6.3353   17.1617 C.ar    1  UNL1        0.0658
     11 C         -14.8630   -7.0862   16.1813 C.ar    1  UNL1        0.0173
     12 C         -13.3873   -7.2179   16.4161 C.ar    1  UNL1       -0.0028
     13 C         -12.7631   -6.5987   17.6314 C.ar    1  UNL1       -0.0224
     14 C         -13.6144   -5.8478   18.6119 C.ar    1  UNL1       -0.0026
     15 C         -12.9902   -5.2287   19.8271 C.ar    1  UNL1       -0.0003
     16 C         -13.8415   -4.4778   20.8076 C.ar    1  UNL1       -0.0000
     17 C         -15.3172   -4.3460   20.5728 C.ar    1  UNL1        0.0000
     18 C         -15.9414   -4.9652   19.3575 C.ar    1  UNL1        0.0014
     19 C         -15.0901   -5.7161   18.3771 C.ar    1  UNL1        0.0159
     20 C         -11.2874   -6.7305   17.8662 C.3     1  UNL1        0.0224
     21 C          -9.9235   -6.1107   17.9409 C.3     1  UNL1        0.0047
     22 C         -10.0955   -7.5784   18.1981 C.3     1  UNL1        0.0047
     23 S         -17.8926   -8.7641   17.2348 S.3     1  UNL1       -0.0722
     24 C         -17.7397   -8.4770   19.8124 C.3     1  UNL1        0.0181
     25 C         -17.3087   -9.1718   18.5550 C.3     1  UNL1        0.0910
     26 C         -16.2936  -10.2745   18.6175 C.2     1  UNL1        0.0605
     27 O         -14.8550   -9.9882   18.3037 O.co2   1  UNL1       -0.5483
     28 O         -16.7171  -11.6633   18.9939 O.co2   1  UNL1       -0.5483
@<TRIPOS>UNITY_ATOM_ATTR
27 1
charge -1
@<TRIPOS>BOND
     1    24    25    1
     2    25    23    1
     3    23     1    1
     4     1     2   ar
     5     2     3   ar
     6     3     4   ar
     7     4     5   ar
     8     5     6   ar
     9     6     7   ar
    10     7     8   ar
    11     8     9   ar
    12     9    10    1
    13    10    11   ar
    14    11    12   ar
    15    12    13   ar
    16    13    20    1
    17    20    21    1
    18    21    22    1
    19    13    14   ar
    20    14    15   ar
    21    15    16   ar
    22    16    17   ar
    23    17    18   ar
    24    18    19   ar
    25    25    26    1
    26    26    27   ar
    27    26    28   ar
    28     9     1   ar
    29    19    10   ar
    30     8     3   ar
    31    22    20    1
    32    19    14   ar
@<TRIPOS>MOLECULE
*****
 28 32 0 0 0
SMALL
GASTEIGER

@<TRIPOS>ATOM
      1 C          -8.0698  -16.8719   23.0401 C.ar    1  UNL1        0.1770
      2 N          -9.0713  -16.4627   24.0791 N.ar    1  UNL1       -0.2018
      3 C          -8.3189  -16.0144   25.2969 C.ar    1  UNL1        0.1806
      4 N          -8.7797  -15.5029   26.6296 N.ar    1  UNL1       -0.2238
      5 C          -7.7740  -15.1235   27.6758 C.ar    1  UNL1        0.1007
      6 C          -6.3075  -15.2557   27.3894 C.ar    1  UNL1        0.0223
      7 C          -5.8468  -15.7672   26.0567 C.ar    1  UNL1        0.0223
      8 C          -6.8525  -16.1466   25.0105 C.ar    1  UNL1        0.1016
      9 N          -6.6985  -16.6766   23.6157 N.ar    1  UNL1       -0.2839
     10 C          -5.4010  -16.9612   22.9189 C.ar    1  UNL1        0.0658
     11 C          -4.2857  -15.9596   22.9719 C.ar    1  UNL1        0.0173
     12 C          -2.9883  -16.2443   22.2751 C.ar    1  UNL1       -0.0028
     13 C          -2.8061  -17.5305   21.5253 C.ar    1  UNL1       -0.0224
     14 C          -3.9214  -18.5322   21.4722 C.ar    1  UNL1       -0.0026
     15 C          -3.7392  -19.8184   20.7224 C.ar    1  UNL1       -0.0003
     16 C          -4.8545  -20.8200   20.6693 C.ar    1  UNL1       -0.0000
     17 C          -6.1520  -20.5354   21.3661 C.ar    1  UNL1        0.0000
     18 C          -6.3342  -19.2491   22.1160 C.ar    1  UNL1        0.0014
     19 C          -5.2189  -18.2475   22.1690 C.ar    1  UNL1        0.0159
     20 C          -1.5086  -17.8152   20.8285 C.3     1  UNL1        0.0224
     21 C          -0.5737  -18.7854   20.1692 C.3     1  UNL1        0.0047
     22 C          -0.1963  -17.3379   20.2808 C.3     1  UNL1        0.0047
     23 S          -8.3844  -17.3863   21.6666 S.3     1  UNL1       -0.0722
     24 C         -10.1137  -19.3252   21.6590 C.3     1  UNL1        0.0181
     25 C          -9.7587  -17.9000   21.3546 C.3     1  UNL1        0.0910
     26 C         -10.7781  -16.9884   20.7381 C.2     1  UNL1        0.0605
     27 O         -10.4059  -15.5799   20.3806 O.co2   1  UNL1       -0.5483
     28 O         -12.1695  -17.4852   20.4792 O.co2   1  UNL1       -0.5483
@<TRIPOS>UNITY_ATOM_ATTR
27 1
charge -1
@<TRIPOS>BOND
     1    24    25    1
     2    25    23    1
     3    23     1    1
     4     1     2   ar
     5     2     3   ar
     6     3     4   ar
     7     4     5   ar
     8     5     6   ar
     9     6     7   ar
    10     7     8   ar
    11     8     9   ar
    12     9    10    1
    13    10    11   ar
    14    11    12   ar
    15    12    13   ar
    16    13    20    1
    17    20    21    1
    18    21    22    1
    19    13    14   ar
    20    14    15   ar
    21    15    16   ar
    22    16    17   ar
    23    17    18   ar
    24    18    19   ar
    25    25    26    1
    26    26    27   ar
    27    26    28   ar
    28     9     1   ar
    29    19    10   ar
    30     8     3   ar
    31    22    20    1
    32    19    14   ar
