@<TRIPOS>MOLECULE
*****
 31 35 0 0 0
SMALL
GASTEIGER

@<TRIPOS>ATOM
      1 C          -5.4110  -16.0547   23.9938 C.3     1  UNL1        0.1128
      2 O          -5.1022  -14.7871   24.7339 O.3     1  UNL1       -0.3844
      3 H          -4.2228  -14.8546   25.1378 H       1  UNL1        0.2103
      4 O         -11.1382  -15.5599   20.2250 O.2     1  UNL1       -0.2745
      5 C         -10.6466  -16.6543   21.1252 C.2     1  UNL1        0.2301
      6 N          -9.3377  -16.5044   21.8424 N.am    1  UNL1       -0.2793
      7 C          -8.5204  -15.2600   21.6592 C.3     1  UNL1        0.0935
      8 C          -7.2115  -15.1101   22.3764 C.3     1  UNL1        0.0240
      9 C          -6.7199  -16.2046   23.2766 C.3     1  UNL1        0.0304
     10 C          -7.5372  -17.4490   23.4598 C.3     1  UNL1        0.0240
     11 C          -8.8461  -17.5989   22.7426 C.3     1  UNL1        0.0935
     12 C         -11.4639  -17.8987   21.3083 C.3     1  UNL1        0.1116
     13 C         -12.1870  -18.1377   22.6006 C.ar    1  UNL1       -0.0131
     14 C         -11.4684  -18.7682   23.7565 C.ar    1  UNL1       -0.0038
     15 C         -12.1914  -19.0073   25.0488 C.ar    1  UNL1       -0.0003
     16 C         -13.6330  -18.6158   25.1853 C.ar    1  UNL1       -0.0000
     17 C         -14.3516  -17.9852   24.0293 C.ar    1  UNL1       -0.0003
     18 C         -13.6285  -17.7462   22.7370 C.ar    1  UNL1       -0.0038
     19 C          -4.4110  -17.1726   23.9709 C.3     1  UNL1        0.0564
     20 C          -3.9589  -17.7478   22.6614 C.3     1  UNL1        0.1119
     21 C          -4.5811  -18.9113   21.9478 C.ar    1  UNL1       -0.0002
     22 C          -5.7485  -19.7895   22.2878 C.ar    1  UNL1       -0.0024
     23 C          -6.1469  -20.8996   21.3611 C.ar    1  UNL1       -0.0003
     24 C          -5.3779  -21.1314   20.0942 C.ar    1  UNL1        0.0000
     25 C          -4.2104  -20.2531   19.7542 C.ar    1  UNL1        0.0012
     26 C          -3.8121  -19.1431   20.6809 C.ar    1  UNL1        0.0152
     27 C          -2.7146  -18.1228   20.6117 C.ar    1  UNL1        0.0804
     28 C          -1.5610  -17.6356   19.7858 C.ar    1  UNL1        0.1177
     29 N          -0.9389  -16.4721   20.4995 N.ar    1  UNL1       -0.2223
     30 C          -1.7079  -16.2403   21.7664 C.ar    1  UNL1        0.1788
     31 N          -2.8054  -17.2605   21.8356 N.ar    1  UNL1       -0.3069
@<TRIPOS>BOND
     1     4     5    2
     2     5    12    1
     3    12    13    1
     4    13    14   ar
     5    14    15   ar
     6    15    16   ar
     7    16    17   ar
     8    17    18   ar
     9     5     6   am
    10     6     7    1
    11     7     8    1
    12     8     9    1
    13     9     1    1
    14     1     2    1
    15     1    19    1
    16    19    20    1
    17    20    21    1
    18    21    22   ar
    19    22    23   ar
    20    23    24   ar
    21    24    25   ar
    22    25    26   ar
    23    26    27    1
    24    27    28   ar
    25    28    29   ar
    26    29    30   ar
    27    30    31   ar
    28     9    10    1
    29    10    11    1
    30    18    13   ar
    31    11     6    1
    32    31    20    1
    33    26    21   ar
    34    31    27   ar
    35     2     3    1
@<TRIPOS>MOLECULE
*****
 31 35 0 0 0
SMALL
GASTEIGER

@<TRIPOS>ATOM
      1 C          -8.3893  -20.1460   19.6130 C.3     1  UNL1        0.1128
      2 O          -7.7990  -20.9537   18.4954 O.3     1  UNL1       -0.3844
      3 H          -8.5125  -21.3461   17.9682 H       1  UNL1        0.2103
      4 O          -3.5477  -17.9596   23.9751 O.2     1  UNL1       -0.2745
      5 C          -4.7934  -17.2903   23.4749 C.2     1  UNL1        0.2301
      6 N          -5.6924  -18.0043   22.5094 N.am    1  UNL1       -0.2793
      7 C          -5.3456  -19.3875   22.0442 C.3     1  UNL1        0.0935
      8 C          -6.2446  -20.1014   21.0787 C.3     1  UNL1        0.0240
      9 C          -7.4903  -19.4321   20.5785 C.3     1  UNL1        0.0304
     10 C          -7.8371  -18.0489   21.0437 C.3     1  UNL1        0.0240
     11 C          -6.9381  -17.3350   22.0092 C.3     1  UNL1        0.0935
     12 C          -5.1401  -15.9071   23.9401 C.3     1  UNL1        0.1116
     13 C          -6.1689  -15.7130   25.0143 C.ar    1  UNL1       -0.0131
     14 C          -5.7412  -15.5643   26.4443 C.ar    1  UNL1       -0.0038
     15 C          -6.7699  -15.3702   27.5186 C.ar    1  UNL1       -0.0003
     16 C          -8.2264  -15.3247   27.1627 C.ar    1  UNL1       -0.0000
     17 C          -8.6542  -15.4733   25.7327 C.ar    1  UNL1       -0.0003
     18 C          -7.6254  -15.6674   24.6585 C.ar    1  UNL1       -0.0038
     19 C          -9.8787  -20.0521   19.7651 C.3     1  UNL1        0.0564
     20 C         -10.4696  -19.2003   20.8493 C.3     1  UNL1        0.1119
     21 C         -10.3533  -19.4449   22.3246 C.ar    1  UNL1       -0.0002
     22 C          -9.6700  -20.5229   23.1125 C.ar    1  UNL1       -0.0024
     23 C          -9.7257  -20.5062   24.6114 C.ar    1  UNL1       -0.0003
     24 C         -10.4647  -19.4115   25.3223 C.ar    1  UNL1        0.0000
     25 C         -11.1481  -18.3335   24.5344 C.ar    1  UNL1        0.0012
     26 C         -11.0924  -18.3502   23.0356 C.ar    1  UNL1        0.0152
     27 C         -11.6655  -17.4291   21.9995 C.ar    1  UNL1        0.0804
     28 C         -12.4765  -16.1833   21.7987 C.ar    1  UNL1        0.1177
     29 N         -12.5927  -15.9388   20.3233 N.ar    1  UNL1       -0.2223
     30 C         -11.8536  -17.0335   19.6123 C.ar    1  UNL1        0.1788
     31 N         -11.2806  -17.9546   20.6483 N.ar    1  UNL1       -0.3069
@<TRIPOS>BOND
     1     4     5    2
     2     5    12    1
     3    12    13    1
     4    13    14   ar
     5    14    15   ar
     6    15    16   ar
     7    16    17   ar
     8    17    18   ar
     9     5     6   am
    10     6     7    1
    11     7     8    1
    12     8     9    1
    13     9     1    1
    14     1     2    1
    15     1    19    1
    16    19    20    1
    17    20    21    1
    18    21    22   ar
    19    22    23   ar
    20    23    24   ar
    21    24    25   ar
    22    25    26   ar
    23    26    27    1
    24    27    28   ar
    25    28    29   ar
    26    29    30   ar
    27    30    31   ar
    28     9    10    1
    29    10    11    1
    30    18    13   ar
    31    11     6    1
    32    31    20    1
    33    26    21   ar
    34    31    27   ar
    35     2     3    1
@<TRIPOS>MOLECULE
*****
 31 35 0 0 0
SMALL
GASTEIGER

@<TRIPOS>ATOM
      1 C          -8.4945  -19.9095   19.8430 C.3     1  UNL1        0.1128
      2 O          -8.0568  -20.3475   18.4768 O.3     1  UNL1       -0.3844
      3 H          -8.8007  -20.7690   18.0187 H       1  UNL1        0.2103
      4 O          -3.3166  -17.8474   23.8664 O.2     1  UNL1       -0.2745
      5 C          -4.6076  -17.1744   23.5052 C.2     1  UNL1        0.2301
      6 N          -5.5793  -17.8583   22.5896 N.am    1  UNL1       -0.2793
      7 C          -5.2600  -19.2150   22.0353 C.3     1  UNL1        0.0935
      8 C          -6.2318  -19.8987   21.1198 C.3     1  UNL1        0.0240
      9 C          -7.5227  -19.2257   20.7586 C.3     1  UNL1        0.0304
     10 C          -7.8420  -17.8690   21.3129 C.3     1  UNL1        0.0240
     11 C          -6.8703  -17.1853   22.2284 C.3     1  UNL1        0.0935
     12 C          -4.9268  -15.8177   24.0595 C.3     1  UNL1        0.1116
     13 C          -6.0168  -15.6611   25.0780 C.ar    1  UNL1       -0.0131
     14 C          -7.4386  -15.4851   24.6338 C.ar    1  UNL1       -0.0038
     15 C          -8.5287  -15.3285   25.6522 C.ar    1  UNL1       -0.0003
     16 C          -8.1969  -15.3479   27.1149 C.ar    1  UNL1       -0.0000
     17 C          -6.7750  -15.5239   27.5592 C.ar    1  UNL1       -0.0003
     18 C          -5.6850  -15.6805   26.5407 C.ar    1  UNL1       -0.0038
     19 C          -9.9040  -20.1552   20.2938 C.3     1  UNL1        0.0564
     20 C         -10.4505  -19.4201   21.4816 C.3     1  UNL1        0.1119
     21 C         -11.3057  -18.1885   21.4393 C.ar    1  UNL1       -0.0002
     22 C         -11.8376  -17.3746   20.2971 C.ar    1  UNL1       -0.0024
     23 C         -12.6853  -16.1671   20.5675 C.ar    1  UNL1       -0.0003
     24 C         -13.0011  -15.7734   21.9800 C.ar    1  UNL1        0.0000
     25 C         -12.4692  -16.5872   23.1222 C.ar    1  UNL1        0.0012
     26 C         -11.6215  -17.7947   22.8519 C.ar    1  UNL1        0.0152
     27 C         -10.9615  -18.7831   23.7671 C.ar    1  UNL1        0.0804
     28 C         -10.7487  -19.1505   25.2058 C.ar    1  UNL1        0.1177
     29 N          -9.8935  -20.3822   25.2480 N.ar    1  UNL1       -0.2223
     30 C          -9.5777  -20.7759   23.8355 C.ar    1  UNL1        0.1788
     31 N         -10.2377  -19.7876   22.9203 N.ar    1  UNL1       -0.3069
@<TRIPOS>BOND
     1     4     5    2
     2     5    12    1
     3    12    13    1
     4    13    14   ar
     5    14    15   ar
     6    15    16   ar
     7    16    17   ar
     8    17    18   ar
     9     5     6   am
    10     6     7    1
    11     7     8    1
    12     8     9    1
    13     9     1    1
    14     1     2    1
    15     1    19    1
    16    19    20    1
    17    20    21    1
    18    21    22   ar
    19    22    23   ar
    20    23    24   ar
    21    24    25   ar
    22    25    26   ar
    23    26    27    1
    24    27    28   ar
    25    28    29   ar
    26    29    30   ar
    27    30    31   ar
    28     9    10    1
    29    10    11    1
    30    18    13   ar
    31    11     6    1
    32    31    20    1
    33    26    21   ar
    34    31    27   ar
    35     2     3    1
@<TRIPOS>MOLECULE
*****
 31 35 0 0 0
SMALL
GASTEIGER

@<TRIPOS>ATOM
      1 C          -5.3586  -16.2631   24.1132 C.3     1  UNL1        0.1128
      2 O          -5.0791  -15.0763   24.9869 O.3     1  UNL1       -0.3844
      3 H          -4.2104  -15.1805   25.4057 H       1  UNL1        0.2103
      4 O         -10.9172  -15.4686   20.1484 O.2     1  UNL1       -0.2745
      5 C         -10.5110  -16.5913   21.0564 C.2     1  UNL1        0.2301
      6 N          -9.2229  -16.5092   21.8206 N.am    1  UNL1       -0.2793
      7 C          -8.3410  -15.3044   21.6768 C.3     1  UNL1        0.0935
      8 C          -7.0529  -15.2224   22.4410 C.3     1  UNL1        0.0240
      9 C          -6.6467  -16.3451   23.3490 C.3     1  UNL1        0.0304
     10 C          -7.5286  -17.5499   23.4929 C.3     1  UNL1        0.0240
     11 C          -8.8167  -17.6319   22.7286 C.3     1  UNL1        0.0935
     12 C         -11.3930  -17.7961   21.2002 C.3     1  UNL1        0.1116
     13 C         -12.0872  -18.0663   22.5021 C.ar    1  UNL1       -0.0131
     14 C         -11.3559  -18.7619   23.6117 C.ar    1  UNL1       -0.0038
     15 C         -12.0501  -19.0321   24.9137 C.ar    1  UNL1       -0.0003
     16 C         -13.4755  -18.6067   25.1060 C.ar    1  UNL1       -0.0000
     17 C         -14.2069  -17.9110   23.9964 C.ar    1  UNL1       -0.0003
     18 C         -13.5127  -17.6408   22.6944 C.ar    1  UNL1       -0.0038
     19 C          -4.3499  -17.3680   24.0038 C.3     1  UNL1        0.0564
     20 C          -4.0700  -17.9987   22.6719 C.3     1  UNL1        0.1119
     21 C          -2.9549  -17.6302   21.7388 C.ar    1  UNL1       -0.0002
     22 C          -1.8638  -16.6053   21.8339 C.ar    1  UNL1       -0.0024
     23 C          -0.8696  -16.4627   20.7199 C.ar    1  UNL1       -0.0003
     24 C          -0.9665  -17.3449   19.5106 C.ar    1  UNL1        0.0000
     25 C          -2.0576  -18.3698   19.4155 C.ar    1  UNL1        0.0012
     26 C          -3.0518  -18.5125   20.5295 C.ar    1  UNL1        0.0152
     27 C          -4.2268  -19.4262   20.7154 C.ar    1  UNL1        0.0804
     28 C          -5.0128  -20.5362   20.0828 C.ar    1  UNL1        0.1177
     29 N          -6.1279  -20.9047   21.0160 N.ar    1  UNL1       -0.2223
     30 C          -6.0310  -20.0225   22.2253 C.ar    1  UNL1        0.1788
     31 N          -4.8561  -19.1087   22.0394 N.ar    1  UNL1       -0.3069
@<TRIPOS>BOND
     1     4     5    2
     2     5    12    1
     3    12    13    1
     4    13    14   ar
     5    14    15   ar
     6    15    16   ar
     7    16    17   ar
     8    17    18   ar
     9     5     6   am
    10     6     7    1
    11     7     8    1
    12     8     9    1
    13     9     1    1
    14     1     2    1
    15     1    19    1
    16    19    20    1
    17    20    21    1
    18    21    22   ar
    19    22    23   ar
    20    23    24   ar
    21    24    25   ar
    22    25    26   ar
    23    26    27    1
    24    27    28   ar
    25    28    29   ar
    26    29    30   ar
    27    30    31   ar
    28     9    10    1
    29    10    11    1
    30    18    13   ar
    31    11     6    1
    32    31    20    1
    33    26    21   ar
    34    31    27   ar
    35     2     3    1
@<TRIPOS>MOLECULE
*****
 31 35 0 0 0
SMALL
GASTEIGER

@<TRIPOS>ATOM
      1 C          -5.6974  -16.0480   23.6491 C.3     1  UNL1        0.1128
      2 O          -5.5372  -14.5687   23.4597 O.3     1  UNL1       -0.3844
      3 H          -4.5935  -14.3484   23.4179 H       1  UNL1        0.2103
      4 O         -11.8326  -18.6234   25.3740 O.2     1  UNL1       -0.2745
      5 C         -11.1836  -18.4467   24.0333 C.2     1  UNL1        0.2301
      6 N          -9.8120  -17.8470   23.9373 N.am    1  UNL1       -0.2793
      7 C          -9.0896  -17.4240   25.1819 C.3     1  UNL1        0.0935
      8 C          -7.7180  -16.8244   25.0858 C.3     1  UNL1        0.0240
      9 C          -7.0690  -16.6477   23.7452 C.3     1  UNL1        0.0304
     10 C          -7.7914  -17.0706   22.5005 C.3     1  UNL1        0.0240
     11 C          -9.1629  -17.6703   22.5966 C.3     1  UNL1        0.0935
     12 C         -11.9061  -18.8697   22.7887 C.3     1  UNL1        0.1116
     13 C         -11.8848  -17.9904   21.5736 C.ar    1  UNL1       -0.0131
     14 C         -12.5463  -16.6447   21.6100 C.ar    1  UNL1       -0.0038
     15 C         -12.5250  -15.7653   20.3950 C.ar    1  UNL1       -0.0003
     16 C         -11.8422  -16.2318   19.1435 C.ar    1  UNL1       -0.0000
     17 C         -11.1806  -17.5777   19.1070 C.ar    1  UNL1       -0.0003
     18 C         -11.2020  -18.4569   20.3221 C.ar    1  UNL1       -0.0038
     19 C          -4.4859  -16.9277   23.7424 C.3     1  UNL1        0.0564
     20 C          -3.9851  -17.6460   22.5245 C.3     1  UNL1        0.1119
     21 C          -4.6132  -18.8523   21.8918 C.ar    1  UNL1       -0.0002
     22 C          -5.8326  -19.6510   22.2455 C.ar    1  UNL1       -0.0024
     23 C          -6.2233  -20.8333   21.4092 C.ar    1  UNL1       -0.0003
     24 C          -5.3946  -21.2169   20.2192 C.ar    1  UNL1        0.0000
     25 C          -4.1752  -20.4183   19.8655 C.ar    1  UNL1        0.0012
     26 C          -3.7845  -19.2360   20.7018 C.ar    1  UNL1        0.0152
     27 C          -2.6442  -18.2668   20.5991 C.ar    1  UNL1        0.0804
     28 C          -1.4273  -17.9049   19.8001 C.ar    1  UNL1        0.1177
     29 N          -0.7993  -16.6986   20.4329 N.ar    1  UNL1       -0.2223
     30 C          -1.6280  -16.3149   21.6229 C.ar    1  UNL1        0.1788
     31 N          -2.7682  -17.2841   21.7256 N.ar    1  UNL1       -0.3069
@<TRIPOS>BOND
     1     4     5    2
     2     5    12    1
     3    12    13    1
     4    13    14   ar
     5    14    15   ar
     6    15    16   ar
     7    16    17   ar
     8    17    18   ar
     9     5     6   am
    10     6     7    1
    11     7     8    1
    12     8     9    1
    13     9     1    1
    14     1     2    1
    15     1    19    1
    16    19    20    1
    17    20    21    1
    18    21    22   ar
    19    22    23   ar
    20    23    24   ar
    21    24    25   ar
    22    25    26   ar
    23    26    27    1
    24    27    28   ar
    25    28    29   ar
    26    29    30   ar
    27    30    31   ar
    28     9    10    1
    29    10    11    1
    30    18    13   ar
    31    11     6    1
    32    31    20    1
    33    26    21   ar
    34    31    27   ar
    35     2     3    1
@<TRIPOS>MOLECULE
*****
 31 35 0 0 0
SMALL
GASTEIGER

@<TRIPOS>ATOM
      1 C          -8.6915  -19.8199   19.8022 C.3     1  UNL1        0.1128
      2 O          -8.3732  -20.1112   18.3657 O.3     1  UNL1       -0.3844
      3 H          -9.1542  -20.4884   17.9315 H       1  UNL1        0.2103
      4 O          -4.8441  -16.2986   24.2797 O.2     1  UNL1       -0.2745
      5 C          -4.5003  -17.4508   23.3829 C.2     1  UNL1        0.2301
      6 N          -5.5482  -18.0430   22.4877 N.am    1  UNL1       -0.2793
      7 C          -6.9397  -17.4831   22.4894 C.3     1  UNL1        0.0935
      8 C          -7.9875  -18.0754   21.5942 C.3     1  UNL1        0.0240
      9 C          -7.6437  -19.2276   20.6974 C.3     1  UNL1        0.0304
     10 C          -6.2522  -19.7875   20.6958 C.3     1  UNL1        0.0240
     11 C          -5.2044  -19.1952   21.5909 C.3     1  UNL1        0.0935
     12 C          -3.1087  -18.0107   23.3813 C.3     1  UNL1        0.1116
     13 C          -2.2497  -17.8815   22.1584 C.ar    1  UNL1       -0.0131
     14 C          -1.8098  -16.5258   21.6909 C.ar    1  UNL1       -0.0038
     15 C          -0.9507  -16.3965   20.4680 C.ar    1  UNL1       -0.0003
     16 C          -0.5316  -17.6229   19.7128 C.ar    1  UNL1       -0.0000
     17 C          -0.9716  -18.9786   20.1804 C.ar    1  UNL1       -0.0003
     18 C          -1.8306  -19.1078   21.4032 C.ar    1  UNL1       -0.0038
     19 C         -10.0576  -20.1209   20.3437 C.3     1  UNL1        0.0564
     20 C         -10.5617  -19.3928   21.5544 C.3     1  UNL1        0.1119
     21 C         -11.4035  -18.1513   21.5496 C.ar    1  UNL1       -0.0002
     22 C         -11.9581  -17.3190   20.4318 C.ar    1  UNL1       -0.0024
     23 C         -12.7838  -16.1050   20.7390 C.ar    1  UNL1       -0.0003
     24 C         -13.0549  -15.7233   22.1640 C.ar    1  UNL1        0.0000
     25 C         -12.5003  -16.5556   23.2819 C.ar    1  UNL1        0.0012
     26 C         -11.6745  -17.7696   22.9747 C.ar    1  UNL1        0.0152
     27 C         -11.0003  -18.7752   23.8602 C.ar    1  UNL1        0.0804
     28 C         -10.7512  -19.1609   25.2883 C.ar    1  UNL1        0.1177
     29 N          -9.9095  -20.4025   25.2930 N.ar    1  UNL1       -0.2223
     30 C          -9.6384  -20.7842   23.8679 C.ar    1  UNL1        0.1788
     31 N         -10.3126  -19.7785   22.9824 N.ar    1  UNL1       -0.3069
@<TRIPOS>BOND
     1     4     5    2
     2     5    12    1
     3    12    13    1
     4    13    14   ar
     5    14    15   ar
     6    15    16   ar
     7    16    17   ar
     8    17    18   ar
     9     5     6   am
    10     6     7    1
    11     7     8    1
    12     8     9    1
    13     9     1    1
    14     1     2    1
    15     1    19    1
    16    19    20    1
    17    20    21    1
    18    21    22   ar
    19    22    23   ar
    20    23    24   ar
    21    24    25   ar
    22    25    26   ar
    23    26    27    1
    24    27    28   ar
    25    28    29   ar
    26    29    30   ar
    27    30    31   ar
    28     9    10    1
    29    10    11    1
    30    18    13   ar
    31    11     6    1
    32    31    20    1
    33    26    21   ar
    34    31    27   ar
    35     2     3    1
@<TRIPOS>MOLECULE
*****
 31 35 0 0 0
SMALL
GASTEIGER

@<TRIPOS>ATOM
      1 C          -5.7227  -16.1446   23.6612 C.3     1  UNL1        0.1128
      2 O          -5.5264  -14.6635   23.5273 O.3     1  UNL1       -0.3844
      3 H          -4.5776  -14.4651   23.4912 H       1  UNL1        0.2103
      4 O         -11.9327  -18.5925   25.3024 O.2     1  UNL1       -0.2745
      5 C         -11.2657  -18.4205   23.9699 C.2     1  UNL1        0.2301
      6 N          -9.8799  -17.8515   23.8928 N.am    1  UNL1       -0.2793
      7 C          -9.1612  -17.4545   25.1481 C.3     1  UNL1        0.0935
      8 C          -7.7755  -16.8855   25.0709 C.3     1  UNL1        0.0240
      9 C          -7.1085  -16.7136   23.7384 C.3     1  UNL1        0.0304
     10 C          -7.8271  -17.1105   22.4831 C.3     1  UNL1        0.0240
     11 C          -9.2129  -17.6795   22.5603 C.3     1  UNL1        0.0935
     12 C         -11.9844  -18.8175   22.7146 C.3     1  UNL1        0.1116
     13 C         -11.9436  -17.9222   21.5118 C.ar    1  UNL1       -0.0131
     14 C         -11.2264  -18.3653   20.2711 C.ar    1  UNL1       -0.0038
     15 C         -11.1855  -17.4700   19.0683 C.ar    1  UNL1       -0.0003
     16 C         -11.8618  -16.1316   19.1062 C.ar    1  UNL1       -0.0000
     17 C         -12.5789  -15.6885   20.3470 C.ar    1  UNL1       -0.0003
     18 C         -12.6198  -16.5838   21.5498 C.ar    1  UNL1       -0.0038
     19 C          -4.5332  -17.0567   23.7180 C.3     1  UNL1        0.0564
     20 C          -4.1347  -17.8459   22.5062 C.3     1  UNL1        0.1119
     21 C          -2.9453  -17.5790   21.6320 C.ar    1  UNL1       -0.0002
     22 C          -1.8734  -16.5313   21.6883 C.ar    1  UNL1       -0.0024
     23 C          -0.7873  -16.5133   20.6539 C.ar    1  UNL1       -0.0003
     24 C          -0.7732  -17.5430   19.5632 C.ar    1  UNL1        0.0000
     25 C          -1.8452  -18.5907   19.5070 C.ar    1  UNL1        0.0012
     26 C          -2.9312  -18.6087   20.5414 C.ar    1  UNL1        0.0152
     27 C          -4.1119  -19.5120   20.7415 C.ar    1  UNL1        0.0804
     28 C          -4.8329  -20.7068   20.1911 C.ar    1  UNL1        0.1177
     29 N          -6.0223  -20.9737   21.0653 N.ar    1  UNL1       -0.2223
     30 C          -6.0364  -19.9439   22.1560 C.ar    1  UNL1        0.1788
     31 N          -4.8557  -19.0406   21.9558 N.ar    1  UNL1       -0.3069
@<TRIPOS>BOND
     1     4     5    2
     2     5    12    1
     3    12    13    1
     4    13    14   ar
     5    14    15   ar
     6    15    16   ar
     7    16    17   ar
     8    17    18   ar
     9     5     6   am
    10     6     7    1
    11     7     8    1
    12     8     9    1
    13     9     1    1
    14     1     2    1
    15     1    19    1
    16    19    20    1
    17    20    21    1
    18    21    22   ar
    19    22    23   ar
    20    23    24   ar
    21    24    25   ar
    22    25    26   ar
    23    26    27    1
    24    27    28   ar
    25    28    29   ar
    26    29    30   ar
    27    30    31   ar
    28     9    10    1
    29    10    11    1
    30    18    13   ar
    31    11     6    1
    32    31    20    1
    33    26    21   ar
    34    31    27   ar
    35     2     3    1
@<TRIPOS>MOLECULE
*****
 31 35 0 0 0
SMALL
GASTEIGER

@<TRIPOS>ATOM
      1 C          -5.8932  -20.3671   21.1040 C.3     1  UNL1        0.1128
      2 O          -5.5309  -21.4525   20.1341 O.3     1  UNL1       -0.3844
      3 H          -4.6648  -21.8204   20.3694 H       1  UNL1        0.2103
      4 O         -11.8419  -17.4841   19.2196 O.2     1  UNL1       -0.2745
      5 C         -11.0951  -17.4349   20.5196 C.2     1  UNL1        0.2301
      6 N          -9.7946  -18.1679   20.6656 N.am    1  UNL1       -0.2793
      7 C          -9.2409  -18.9502   19.5117 C.3     1  UNL1        0.0935
      8 C          -7.9404  -19.6833   19.6579 C.3     1  UNL1        0.0240
      9 C          -7.1937  -19.6340   20.9579 C.3     1  UNL1        0.0304
     10 C          -7.7474  -18.8518   22.1117 C.3     1  UNL1        0.0240
     11 C          -9.0479  -18.1187   21.9656 C.3     1  UNL1        0.0935
     12 C         -11.6489  -16.6526   21.6734 C.3     1  UNL1        0.1116
     13 C         -12.2239  -17.3698   22.8587 C.ar    1  UNL1       -0.0131
     14 C         -11.3182  -18.1015   23.8043 C.ar    1  UNL1       -0.0038
     15 C         -11.8932  -18.8187   24.9897 C.ar    1  UNL1       -0.0003
     16 C         -13.3739  -18.8042   25.2293 C.ar    1  UNL1       -0.0000
     17 C         -14.2796  -18.0725   24.2836 C.ar    1  UNL1       -0.0003
     18 C         -13.7046  -17.3553   23.0983 C.ar    1  UNL1       -0.0038
     19 C          -4.9549  -20.0147   22.2201 C.3     1  UNL1        0.0564
     20 C          -4.2634  -18.6836   22.2265 C.3     1  UNL1        0.1119
     21 C          -2.9990  -18.3434   21.4945 C.ar    1  UNL1       -0.0002
     22 C          -2.1057  -19.1548   20.6036 C.ar    1  UNL1       -0.0024
     23 C          -0.8823  -18.5313   19.9999 C.ar    1  UNL1       -0.0003
     24 C          -0.5523  -17.0965   20.2870 C.ar    1  UNL1        0.0000
     25 C          -1.4456  -16.2852   21.1778 C.ar    1  UNL1        0.0012
     26 C          -2.6690  -16.9086   21.7816 C.ar    1  UNL1        0.0152
     27 C          -3.7293  -16.3621   22.6910 C.ar    1  UNL1        0.0804
     28 C          -4.1806  -15.1375   23.4305 C.ar    1  UNL1        0.1177
     29 N          -5.4450  -15.4778   24.1625 N.ar    1  UNL1       -0.2223
     30 C          -5.7750  -16.9126   23.8754 C.ar    1  UNL1        0.1788
     31 N          -4.7147  -17.4591   22.9660 N.ar    1  UNL1       -0.3069
@<TRIPOS>BOND
     1     4     5    2
     2     5    12    1
     3    12    13    1
     4    13    14   ar
     5    14    15   ar
     6    15    16   ar
     7    16    17   ar
     8    17    18   ar
     9     5     6   am
    10     6     7    1
    11     7     8    1
    12     8     9    1
    13     9     1    1
    14     1     2    1
    15     1    19    1
    16    19    20    1
    17    20    21    1
    18    21    22   ar
    19    22    23   ar
    20    23    24   ar
    21    24    25   ar
    22    25    26   ar
    23    26    27    1
    24    27    28   ar
    25    28    29   ar
    26    29    30   ar
    27    30    31   ar
    28     9    10    1
    29    10    11    1
    30    18    13   ar
    31    11     6    1
    32    31    20    1
    33    26    21   ar
    34    31    27   ar
    35     2     3    1
@<TRIPOS>MOLECULE
*****
 31 35 0 0 0
SMALL
GASTEIGER

@<TRIPOS>ATOM
      1 C           4.8840   -3.3818   21.9760 C.3     1  UNL1        0.1128
      2 O           6.0441   -4.3187   21.8133 O.3     1  UNL1       -0.3844
      3 H           5.9702   -4.7802   20.9634 H       1  UNL1        0.2103
      4 O           5.2445   -0.3476   28.1333 O.2     1  UNL1       -0.2745
      5 C           4.4042   -0.0330   26.9313 C.2     1  UNL1        0.2301
      6 N           4.5242   -0.8703   25.6925 N.am    1  UNL1       -0.2793
      7 C           5.4844   -2.0220   25.6557 C.3     1  UNL1        0.0935
      8 C           5.6044   -2.8592   24.4169 C.3     1  UNL1        0.0240
      9 C           4.7641   -2.5446   23.2149 C.3     1  UNL1        0.0304
     10 C           3.8038   -1.3929   23.2516 C.3     1  UNL1        0.0240
     11 C           3.6839   -0.5557   24.4904 C.3     1  UNL1        0.0935
     12 C           3.4439    1.1187   26.9681 C.3     1  UNL1        0.1116
     13 C           2.0176    0.8933   27.3741 C.ar    1  UNL1       -0.0131
     14 C           0.9092    1.5787   26.6312 C.ar    1  UNL1       -0.0038
     15 C          -0.5172    1.3533   27.0371 C.ar    1  UNL1       -0.0003
     16 C          -0.8351    0.4427   28.1858 C.ar    1  UNL1       -0.0000
     17 C           0.2733   -0.2427   28.9287 C.ar    1  UNL1       -0.0003
     18 C           1.6997   -0.0173   28.5228 C.ar    1  UNL1       -0.0038
     19 C           3.8438   -3.2821   20.8998 C.3     1  UNL1        0.0564
     20 C           3.8857   -2.1478   19.9190 C.3     1  UNL1        0.1119
     21 C           2.8172   -1.1139   19.7206 C.ar    1  UNL1       -0.0002
     22 C           1.4869   -0.9058   20.3816 C.ar    1  UNL1       -0.0024
     23 C           0.6140    0.2408   19.9655 C.ar    1  UNL1       -0.0003
     24 C           1.0713    1.1793   18.8883 C.ar    1  UNL1        0.0000
     25 C           2.4016    0.9711   18.2274 C.ar    1  UNL1        0.0012
     26 C           3.2745   -0.1755   18.6435 C.ar    1  UNL1        0.0152
     27 C           4.6257   -0.6295   18.1762 C.ar    1  UNL1        0.0804
     28 C           5.7434   -0.3300   17.2217 C.ar    1  UNL1        0.1177
     29 N           6.8119   -1.3640   17.4201 N.ar    1  UNL1       -0.2223
     30 C           6.3546   -2.3024   18.4973 C.ar    1  UNL1        0.1788
     31 N           5.0034   -1.8484   18.9645 N.ar    1  UNL1       -0.3069
@<TRIPOS>BOND
     1     4     5    2
     2     5    12    1
     3    12    13    1
     4    13    14   ar
     5    14    15   ar
     6    15    16   ar
     7    16    17   ar
     8    17    18   ar
     9     5     6   am
    10     6     7    1
    11     7     8    1
    12     8     9    1
    13     9     1    1
    14     1     2    1
    15     1    19    1
    16    19    20    1
    17    20    21    1
    18    21    22   ar
    19    22    23   ar
    20    23    24   ar
    21    24    25   ar
    22    25    26   ar
    23    26    27    1
    24    27    28   ar
    25    28    29   ar
    26    29    30   ar
    27    30    31   ar
    28     9    10    1
    29    10    11    1
    30    18    13   ar
    31    11     6    1
    32    31    20    1
    33    26    21   ar
    34    31    27   ar
    35     2     3    1
