@<TRIPOS>MOLECULE
*****
 38 40 0 0 0
SMALL
GASTEIGER

@<TRIPOS>ATOM
      1 O          -9.7443  -17.8705   19.5708 O.3     1  UNL1       -0.3492
      2 C          -9.3383  -19.2415   20.0240 C.3     1  UNL1        0.1376
      3 C          -8.6637  -20.1787   19.0666 C.3     1  UNL1        0.0370
      4 C          -8.4638  -19.9900   22.3531 C.ar    1  UNL1       -0.0017
      5 C          -8.7325  -20.4238   23.7636 C.ar    1  UNL1       -0.0002
      6 C         -10.1445  -20.5432   24.2555 C.ar    1  UNL1       -0.0000
      7 C         -11.2878  -20.2286   23.3369 C.ar    1  UNL1       -0.0002
      8 C         -11.0191  -19.7947   21.9264 C.ar    1  UNL1       -0.0019
      9 C          -9.6071  -19.6754   21.4345 C.ar    1  UNL1        0.0045
     10 C          -3.8120  -17.6824   22.5438 C.3     1  UNL1        0.0311
     11 C          -4.7258  -18.7169   21.9566 C.ar    1  UNL1       -0.0207
     12 C          -6.1379  -18.8362   22.4484 C.ar    1  UNL1       -0.0042
     13 C          -7.0517  -19.8707   21.8612 C.ar    1  UNL1       -0.0005
     14 C          -6.5535  -20.7858   20.7822 C.ar    1  UNL1        0.0000
     15 C          -5.1415  -20.6665   20.2904 C.ar    1  UNL1        0.0008
     16 C          -4.2277  -19.6320   20.8776 C.ar    1  UNL1        0.0100
     17 C          -2.8156  -19.5127   20.3857 C.2     1  UNL1        0.0726
     18 O          -1.6919  -20.1102   21.1796 O.co2   1  UNL1       -0.5446
     19 O          -2.5273  -18.7959   19.1000 O.co2   1  UNL1       -0.5446
     20 C         -11.1890  -17.5647   19.3074 C.3     1  UNL1        0.1729
     21 C         -11.7968  -16.3001   19.8377 C.3     1  UNL1        0.1556
     22 O         -12.6940  -15.4751   18.9633 O.3     1  UNL1       -0.3805
     23 H         -12.9994  -14.6973   19.4560 H       1  UNL1        0.2105
     24 C         -11.5073  -15.8604   21.2423 C.3     1  UNL1        0.1007
     25 N         -10.1146  -15.4614   21.6314 N.3     1  UNL1       -0.2972
     26 H         -10.1597  -14.4867   21.9285 H       1  UNL1        0.1233
     27 C          -9.3943  -16.2110   22.7127 C.3     1  UNL1        0.0461
     28 C          -8.0791  -15.8350   22.0971 C.3     1  UNL1        0.0161
     29 C         -10.7095  -16.5869   23.3283 C.3     1  UNL1        0.0161
     30 C          -8.6739  -16.9605   23.7941 C.3     1  UNL1        0.0408
     31 C          -8.0938  -16.2190   24.9619 C.ar    1  UNL1       -0.0186
     32 C          -8.9415  -15.9360   26.1666 C.ar    1  UNL1       -0.0032
     33 C          -8.3614  -15.1945   27.3345 C.ar    1  UNL1        0.0133
     34 C          -6.9336  -14.7361   27.2975 C.ar    1  UNL1        0.0850
     35 CL         -6.3535  -13.9947   28.4653 Cl      1  UNL1       -0.0799
     36 C          -6.0860  -15.0191   26.0927 C.ar    1  UNL1        0.1503
     37 F          -4.6582  -14.5607   26.0558 F       1  UNL1       -0.2033
     38 C          -6.6661  -15.7606   24.9250 C.ar    1  UNL1        0.0263
@<TRIPOS>UNITY_ATOM_ATTR
18 1
charge -1
@<TRIPOS>BOND
     1    10    11    1
     2    11    12   ar
     3    12    13   ar
     4    13     4    1
     5     4     5   ar
     6     5     6   ar
     7     6     7   ar
     8     7     8   ar
     9     8     9   ar
    10     9     2    1
    11     2     3    1
    12     2     1    1
    13     1    20    1
    14    20    21    1
    15    21    22    1
    16    21    24    1
    17    24    25    1
    18    25    27    1
    19    27    28    1
    20    27    29    1
    21    27    30    1
    22    30    31    1
    23    31    32   ar
    24    32    33   ar
    25    33    34   ar
    26    34    35    1
    27    34    36   ar
    28    36    37    1
    29    36    38   ar
    30    13    14   ar
    31    14    15   ar
    32    15    16   ar
    33    16    17    1
    34    17    18   ar
    35    17    19   ar
    36    16    11   ar
    37     9     4   ar
    38    38    31   ar
    39    22    23    1
    40    25    26    1
@<TRIPOS>MOLECULE
*****
 38 40 0 0 0
SMALL
GASTEIGER

@<TRIPOS>ATOM
      1 O          -9.5545  -20.1020   22.4607 O.3     1  UNL1       -0.3492
      2 C         -10.2446  -19.2898   23.5161 C.3     1  UNL1        0.1376
      3 C         -10.0402  -19.6152   24.9661 C.3     1  UNL1        0.0370
      4 C         -10.6825  -16.7368   23.3157 C.ar    1  UNL1       -0.0017
      5 C         -11.5771  -15.5992   22.9212 C.ar    1  UNL1       -0.0002
      6 C         -12.9285  -15.8772   22.3327 C.ar    1  UNL1       -0.0000
      7 C         -13.3854  -17.2927   22.1386 C.ar    1  UNL1       -0.0002
      8 C         -12.4907  -18.4303   22.5331 C.ar    1  UNL1       -0.0019
      9 C         -11.1393  -18.1523   23.1216 C.ar    1  UNL1        0.0045
     10 C          -7.7121  -15.5881   27.4215 C.3     1  UNL1        0.0311
     11 C          -7.8458  -15.8845   25.9571 C.ar    1  UNL1       -0.0207
     12 C          -9.1972  -16.1624   25.3686 C.ar    1  UNL1       -0.0042
     13 C          -9.3310  -16.4588   23.9043 C.ar    1  UNL1       -0.0005
     14 C          -8.1134  -16.4772   23.0285 C.ar    1  UNL1        0.0000
     15 C          -6.7620  -16.1993   23.6170 C.ar    1  UNL1        0.0008
     16 C          -6.6282  -15.9029   25.0814 C.ar    1  UNL1        0.0100
     17 C          -5.2767  -15.6249   25.6699 C.2     1  UNL1        0.0726
     18 O          -4.8813  -14.2182   26.0090 O.co2   1  UNL1       -0.5446
     19 O          -4.3208  -16.7535   25.9194 O.co2   1  UNL1       -0.5446
     20 C         -10.1941  -20.2832   21.1160 C.3     1  UNL1        0.1729
     21 C          -9.9010  -19.3141   20.0094 C.3     1  UNL1        0.1556
     22 O         -11.0069  -18.4861   19.4250 O.3     1  UNL1       -0.3805
     23 H         -10.6497  -17.9168   18.7256 H       1  UNL1        0.2105
     24 C          -8.5020  -19.1728   19.4870 C.3     1  UNL1        0.1007
     25 N          -7.5169  -20.2892   19.6697 N.3     1  UNL1       -0.2972
     26 H          -7.0874  -20.4548   18.7595 H       1  UNL1        0.1233
     27 C          -6.3970  -20.1470   20.6575 C.3     1  UNL1        0.0461
     28 C          -5.9901  -21.5678   20.4006 C.3     1  UNL1        0.0161
     29 C          -6.8039  -18.7263   20.9143 C.3     1  UNL1        0.0161
     30 C          -5.2771  -20.0049   21.6452 C.3     1  UNL1        0.0408
     31 C          -4.1027  -19.1278   21.3264 C.ar    1  UNL1       -0.0186
     32 C          -3.5272  -18.2318   22.3828 C.ar    1  UNL1       -0.0032
     33 C          -2.3528  -17.3546   22.0641 C.ar    1  UNL1        0.0133
     34 C          -1.7540  -17.3735   20.6889 C.ar    1  UNL1        0.0850
     35 CL         -0.5797  -16.4964   20.3701 Cl      1  UNL1       -0.0799
     36 C          -2.3296  -18.2696   19.6325 C.ar    1  UNL1        0.1503
     37 F          -1.7308  -18.2885   18.2573 F       1  UNL1       -0.2033
     38 C          -3.5039  -19.1467   19.9513 C.ar    1  UNL1        0.0263
@<TRIPOS>UNITY_ATOM_ATTR
18 1
charge -1
@<TRIPOS>BOND
     1    10    11    1
     2    11    12   ar
     3    12    13   ar
     4    13     4    1
     5     4     5   ar
     6     5     6   ar
     7     6     7   ar
     8     7     8   ar
     9     8     9   ar
    10     9     2    1
    11     2     3    1
    12     2     1    1
    13     1    20    1
    14    20    21    1
    15    21    22    1
    16    21    24    1
    17    24    25    1
    18    25    27    1
    19    27    28    1
    20    27    29    1
    21    27    30    1
    22    30    31    1
    23    31    32   ar
    24    32    33   ar
    25    33    34   ar
    26    34    35    1
    27    34    36   ar
    28    36    37    1
    29    36    38   ar
    30    13    14   ar
    31    14    15   ar
    32    15    16   ar
    33    16    17    1
    34    17    18   ar
    35    17    19   ar
    36    16    11   ar
    37     9     4   ar
    38    38    31   ar
    39    22    23    1
    40    25    26    1
@<TRIPOS>MOLECULE
*****
 38 40 0 0 0
SMALL
GASTEIGER

@<TRIPOS>ATOM
      1 O          -7.1764  -17.6023   22.1084 O.3     1  UNL1       -0.3492
      2 C          -7.3733  -16.2520   22.7312 C.3     1  UNL1        0.1376
      3 C          -7.9954  -15.1426   21.9359 C.3     1  UNL1        0.0370
      4 C          -5.5084  -16.1719   24.5383 C.ar    1  UNL1       -0.0017
      5 C          -5.0831  -15.9309   25.9565 C.ar    1  UNL1       -0.0002
      6 C          -6.0976  -15.5288   26.9856 C.ar    1  UNL1       -0.0000
      7 C          -7.5374  -15.3678   26.5966 C.ar    1  UNL1       -0.0002
      8 C          -7.9626  -15.6088   25.1785 C.ar    1  UNL1       -0.0019
      9 C          -6.9480  -16.0109   24.1493 C.ar    1  UNL1        0.0045
     10 C          -3.1075  -19.8724   21.7919 C.3     1  UNL1        0.0311
     11 C          -3.2934  -18.4243   22.1360 C.ar    1  UNL1       -0.0207
     12 C          -4.3079  -18.0221   23.1651 C.ar    1  UNL1       -0.0042
     13 C          -4.4938  -16.5740   23.5092 C.ar    1  UNL1       -0.0005
     14 C          -3.6653  -15.5280   22.8241 C.ar    1  UNL1        0.0000
     15 C          -2.6508  -15.9301   21.7950 C.ar    1  UNL1        0.0008
     16 C          -2.4649  -17.3783   21.4510 C.ar    1  UNL1        0.0100
     17 C          -1.4503  -17.7803   20.4218 C.2     1  UNL1        0.0726
     18 O          -0.0926  -18.2518   20.8513 O.co2   1  UNL1       -0.5446
     19 O          -1.7935  -17.7110   18.9633 O.co2   1  UNL1       -0.5446
     20 C          -8.1892  -18.6860   22.3316 C.3     1  UNL1        0.1729
     21 C          -7.7394  -20.0683   22.7014 C.3     1  UNL1        0.1556
     22 O          -6.4426  -20.6025   22.1694 O.3     1  UNL1       -0.3805
     23 H          -6.3029  -21.5028   22.5024 H       1  UNL1        0.2105
     24 C          -8.5863  -20.9164   23.6033 C.3     1  UNL1        0.1007
     25 N          -9.3548  -20.2828   24.7249 N.3     1  UNL1       -0.2972
     26 H          -8.6998  -19.6866   25.2307 H       1  UNL1        0.1233
     27 C         -10.5623  -19.4442   24.4269 C.3     1  UNL1        0.0461
     28 C          -9.9936  -18.3308   25.2557 C.3     1  UNL1        0.0161
     29 C         -11.1310  -20.5576   23.5981 C.3     1  UNL1        0.0161
     30 C         -11.7697  -18.6056   24.1288 C.3     1  UNL1        0.0408
     31 C         -11.8440  -17.8257   22.8496 C.ar    1  UNL1       -0.0186
     32 C         -12.2924  -16.3945   22.8687 C.ar    1  UNL1       -0.0032
     33 C         -12.3667  -15.6146   21.5895 C.ar    1  UNL1        0.0133
     34 C         -11.9926  -16.2660   20.2912 C.ar    1  UNL1        0.0850
     35 CL        -12.0669  -15.4863   19.0120 Cl      1  UNL1       -0.0799
     36 C         -11.5442  -17.6974   20.2721 C.ar    1  UNL1        0.1503
     37 F         -11.1701  -18.3488   18.9738 F       1  UNL1       -0.2033
     38 C         -11.4699  -18.4772   21.5513 C.ar    1  UNL1        0.0263
@<TRIPOS>UNITY_ATOM_ATTR
18 1
charge -1
@<TRIPOS>BOND
     1    10    11    1
     2    11    12   ar
     3    12    13   ar
     4    13     4    1
     5     4     5   ar
     6     5     6   ar
     7     6     7   ar
     8     7     8   ar
     9     8     9   ar
    10     9     2    1
    11     2     3    1
    12     2     1    1
    13     1    20    1
    14    20    21    1
    15    21    22    1
    16    21    24    1
    17    24    25    1
    18    25    27    1
    19    27    28    1
    20    27    29    1
    21    27    30    1
    22    30    31    1
    23    31    32   ar
    24    32    33   ar
    25    33    34   ar
    26    34    35    1
    27    34    36   ar
    28    36    37    1
    29    36    38   ar
    30    13    14   ar
    31    14    15   ar
    32    15    16   ar
    33    16    17    1
    34    17    18   ar
    35    17    19   ar
    36    16    11   ar
    37     9     4   ar
    38    38    31   ar
    39    22    23    1
    40    25    26    1
@<TRIPOS>MOLECULE
*****
 38 40 0 0 0
SMALL
GASTEIGER

@<TRIPOS>ATOM
      1 O          -5.8190  -17.1599   22.7727 O.3     1  UNL1       -0.3492
      2 C          -6.6898  -16.0377   23.2546 C.3     1  UNL1        0.1376
      3 C          -7.5095  -15.2507   22.2752 C.3     1  UNL1        0.0370
      4 C          -8.0199  -15.8753   25.4804 C.ar    1  UNL1       -0.0017
      5 C          -8.0712  -15.5400   26.9416 C.ar    1  UNL1       -0.0002
      6 C          -6.8438  -15.0317   27.6380 C.ar    1  UNL1       -0.0000
      7 C          -5.5649  -14.8587   26.8733 C.ar    1  UNL1       -0.0002
      8 C          -5.5136  -15.1940   25.4121 C.ar    1  UNL1       -0.0019
      9 C          -6.7411  -15.7023   24.7157 C.ar    1  UNL1        0.0045
     10 C         -11.2467  -19.7811   24.3261 C.3     1  UNL1        0.0311
     11 C         -10.8608  -18.3365   24.2069 C.ar    1  UNL1       -0.0207
     12 C          -9.6333  -17.8282   24.9033 C.ar    1  UNL1       -0.0042
     13 C          -9.2474  -16.3836   24.7840 C.ar    1  UNL1       -0.0005
     14 C         -10.0889  -15.4473   23.9685 C.ar    1  UNL1        0.0000
     15 C         -11.3164  -15.9556   23.2721 C.ar    1  UNL1        0.0008
     16 C         -11.7023  -17.4002   23.3914 C.ar    1  UNL1        0.0100
     17 C         -12.9298  -17.9085   22.6949 C.2     1  UNL1        0.0726
     18 O         -12.9415  -18.0474   21.2014 O.co2   1  UNL1       -0.5446
     19 O         -14.1456  -18.2780   23.4921 O.co2   1  UNL1       -0.5446
     20 C          -4.4185  -17.2984   23.2918 C.3     1  UNL1        0.1729
     21 C          -3.2801  -16.6512   22.5603 C.3     1  UNL1        0.1556
     22 O          -3.3418  -15.1923   22.2169 O.3     1  UNL1       -0.3805
     23 H          -2.5319  -14.9358   21.7487 H       1  UNL1        0.2105
     24 C          -2.0799  -17.4629   22.1721 C.3     1  UNL1        0.1007
     25 N          -2.0385  -18.1504   20.8394 N.3     1  UNL1       -0.2972
     26 H          -1.1088  -18.5601   20.7483 H       1  UNL1        0.1233
     27 C          -3.0234  -19.2372   20.5252 C.3     1  UNL1        0.0461
     28 C          -3.5194  -18.4479   19.3501 C.3     1  UNL1        0.0161
     29 C          -2.5274  -20.0264   21.7004 C.3     1  UNL1        0.0161
     30 C          -4.0084  -20.3240   20.2111 C.3     1  UNL1        0.0408
     31 C          -5.4703  -20.1090   20.4697 C.ar    1  UNL1       -0.0186
     32 C          -6.0113  -20.2315   21.8633 C.ar    1  UNL1       -0.0032
     33 C          -7.4732  -20.0165   22.1219 C.ar    1  UNL1        0.0133
     34 C          -8.3939  -19.6791   20.9869 C.ar    1  UNL1        0.0850
     35 CL         -9.8557  -19.4641   21.2455 Cl      1  UNL1       -0.0799
     36 C          -7.8528  -19.5566   19.5932 C.ar    1  UNL1        0.1503
     37 F          -8.7736  -19.2191   18.4582 F       1  UNL1       -0.2033
     38 C          -6.3910  -19.7715   19.3346 C.ar    1  UNL1        0.0263
@<TRIPOS>UNITY_ATOM_ATTR
18 1
charge -1
@<TRIPOS>BOND
     1    10    11    1
     2    11    12   ar
     3    12    13   ar
     4    13     4    1
     5     4     5   ar
     6     5     6   ar
     7     6     7   ar
     8     7     8   ar
     9     8     9   ar
    10     9     2    1
    11     2     3    1
    12     2     1    1
    13     1    20    1
    14    20    21    1
    15    21    22    1
    16    21    24    1
    17    24    25    1
    18    25    27    1
    19    27    28    1
    20    27    29    1
    21    27    30    1
    22    30    31    1
    23    31    32   ar
    24    32    33   ar
    25    33    34   ar
    26    34    35    1
    27    34    36   ar
    28    36    37    1
    29    36    38   ar
    30    13    14   ar
    31    14    15   ar
    32    15    16   ar
    33    16    17    1
    34    17    18   ar
    35    17    19   ar
    36    16    11   ar
    37     9     4   ar
    38    38    31   ar
    39    22    23    1
    40    25    26    1
@<TRIPOS>MOLECULE
*****
 38 40 0 0 0
SMALL
GASTEIGER

@<TRIPOS>ATOM
      1 O          -5.1973  -17.3067   23.2019 O.3     1  UNL1       -0.3492
      2 C          -5.6773  -15.9822   23.7170 C.3     1  UNL1        0.1376
      3 C          -5.4275  -14.7338   22.9239 C.3     1  UNL1        0.0370
      4 C          -7.9063  -15.8634   25.0465 C.ar    1  UNL1       -0.0017
      5 C          -8.6360  -15.7874   26.3548 C.ar    1  UNL1       -0.0002
      6 C          -7.8666  -15.7541   27.6420 C.ar    1  UNL1       -0.0000
      7 C          -6.3673  -15.7968   27.6209 C.ar    1  UNL1       -0.0002
      8 C          -5.6375  -15.8729   26.3125 C.ar    1  UNL1       -0.0019
      9 C          -6.4070  -15.9062   25.0254 C.ar    1  UNL1        0.0045
     10 C         -12.3553  -16.6593   22.4828 C.3     1  UNL1        0.0311
     11 C         -10.9003  -16.2947   22.4775 C.ar    1  UNL1       -0.0207
     12 C         -10.1308  -16.2613   23.7646 C.ar    1  UNL1       -0.0042
     13 C          -8.6758  -15.8967   23.7593 C.ar    1  UNL1       -0.0005
     14 C          -7.9903  -15.5654   22.4669 C.ar    1  UNL1        0.0000
     15 C          -8.7599  -15.5987   21.1798 C.ar    1  UNL1        0.0008
     16 C         -10.2149  -15.9633   21.1851 C.ar    1  UNL1        0.0100
     17 C         -10.9844  -15.9966   19.8979 C.2     1  UNL1        0.0726
     18 O         -10.7427  -14.9486   18.8523 O.co2   1  UNL1       -0.5446
     19 O         -11.9956  -17.0778   19.6564 O.co2   1  UNL1       -0.5446
     20 C          -3.8186  -17.7892   23.5432 C.3     1  UNL1        0.1729
     21 C          -2.9934  -18.4948   22.5083 C.3     1  UNL1        0.1556
     22 O          -1.7375  -17.8593   21.9894 O.3     1  UNL1       -0.3805
     23 H          -1.3279  -18.4427   21.3316 H       1  UNL1        0.2105
     24 C          -3.4238  -19.8358   21.9923 C.3     1  UNL1        0.1007
     25 N          -3.8484  -19.9879   20.5616 N.3     1  UNL1       -0.2972
     26 H          -3.7003  -20.9659   20.3129 H       1  UNL1        0.1233
     27 C          -5.2511  -19.6453   20.1552 C.3     1  UNL1        0.0461
     28 C          -4.8119  -18.2524   19.8135 C.3     1  UNL1        0.0161
     29 C          -5.6903  -21.0383   20.4969 C.3     1  UNL1        0.0161
     30 C          -6.6538  -19.3028   19.7487 C.3     1  UNL1        0.0408
     31 C          -7.7756  -19.4421   20.7348 C.ar    1  UNL1       -0.0186
     32 C          -7.4863  -19.4300   22.2065 C.ar    1  UNL1       -0.0032
     33 C          -8.6081  -19.5693   23.1926 C.ar    1  UNL1        0.0133
     34 C         -10.0192  -19.7207   22.7068 C.ar    1  UNL1        0.0850
     35 CL        -11.1409  -19.8600   23.6927 Cl      1  UNL1       -0.0799
     36 C         -10.3084  -19.7328   21.2349 C.ar    1  UNL1        0.1503
     37 F         -11.7195  -19.8842   20.7491 F       1  UNL1       -0.2033
     38 C          -9.1866  -19.5935   20.2490 C.ar    1  UNL1        0.0263
@<TRIPOS>UNITY_ATOM_ATTR
18 1
charge -1
@<TRIPOS>BOND
     1    10    11    1
     2    11    12   ar
     3    12    13   ar
     4    13     4    1
     5     4     5   ar
     6     5     6   ar
     7     6     7   ar
     8     7     8   ar
     9     8     9   ar
    10     9     2    1
    11     2     3    1
    12     2     1    1
    13     1    20    1
    14    20    21    1
    15    21    22    1
    16    21    24    1
    17    24    25    1
    18    25    27    1
    19    27    28    1
    20    27    29    1
    21    27    30    1
    22    30    31    1
    23    31    32   ar
    24    32    33   ar
    25    33    34   ar
    26    34    35    1
    27    34    36   ar
    28    36    37    1
    29    36    38   ar
    30    13    14   ar
    31    14    15   ar
    32    15    16   ar
    33    16    17    1
    34    17    18   ar
    35    17    19   ar
    36    16    11   ar
    37     9     4   ar
    38    38    31   ar
    39    22    23    1
    40    25    26    1
@<TRIPOS>MOLECULE
*****
 38 40 0 0 0
SMALL
GASTEIGER

@<TRIPOS>ATOM
      1 O          -8.8984  -17.5147   23.3420 O.3     1  UNL1       -0.3492
      2 C          -8.1012  -16.2547   23.5052 C.3     1  UNL1        0.1376
      3 C          -7.8006  -15.3973   22.3115 C.3     1  UNL1        0.0370
      4 C          -6.1345  -15.8751   25.1599 C.ar    1  UNL1       -0.0017
      5 C          -5.6378  -15.4724   26.5168 C.ar    1  UNL1       -0.0002
      6 C          -6.6110  -15.0464   27.5757 C.ar    1  UNL1       -0.0000
      7 C          -8.0810  -15.0231   27.2779 C.ar    1  UNL1       -0.0002
      8 C          -8.5777  -15.4259   25.9210 C.ar    1  UNL1       -0.0019
      9 C          -7.6044  -15.8519   24.8620 C.ar    1  UNL1        0.0045
     10 C          -3.9043  -19.6316   22.3466 C.3     1  UNL1        0.0311
     11 C          -4.0462  -18.1794   22.6943 C.ar    1  UNL1       -0.0207
     12 C          -5.0194  -17.7534   23.7532 C.ar    1  UNL1       -0.0042
     13 C          -5.1613  -16.3011   24.1009 C.ar    1  UNL1       -0.0005
     14 C          -4.3300  -15.2749   23.3897 C.ar    1  UNL1        0.0000
     15 C          -3.3568  -15.7010   22.3308 C.ar    1  UNL1        0.0008
     16 C          -3.2149  -17.1532   21.9831 C.ar    1  UNL1        0.0100
     17 C          -2.2416  -17.5792   20.9241 C.2     1  UNL1        0.0726
     18 O          -1.1192  -18.5126   21.2689 O.co2   1  UNL1       -0.5446
     19 O          -2.3909  -17.0718   19.5205 O.co2   1  UNL1       -0.5446
     20 C          -9.7956  -17.9833   24.4490 C.3     1  UNL1        0.1729
     21 C         -10.8754  -18.9852   24.1660 C.3     1  UNL1        0.1556
     22 O         -10.6866  -20.4215   24.5555 O.3     1  UNL1       -0.3805
     23 H         -11.4726  -20.9309   24.3031 H       1  UNL1        0.2105
     24 C         -12.1439  -18.5510   23.4936 C.3     1  UNL1        0.1007
     25 N         -12.0957  -17.5559   22.3722 N.3     1  UNL1       -0.2972
     26 H         -11.6319  -16.7238   22.7366 H       1  UNL1        0.1233
     27 C         -11.4073  -17.9074   21.0867 C.3     1  UNL1        0.0461
     28 C         -11.0773  -16.4606   20.8678 C.3     1  UNL1        0.0161
     29 C         -11.7373  -19.3542   21.3056 C.3     1  UNL1        0.0161
     30 C         -10.7189  -18.2589   19.8012 C.3     1  UNL1        0.0408
     31 C          -9.4577  -19.0708   19.8234 C.ar    1  UNL1       -0.0186
     32 C          -8.3399  -18.6946   20.7502 C.ar    1  UNL1       -0.0032
     33 C          -7.0787  -19.5064   20.7725 C.ar    1  UNL1        0.0133
     34 C          -6.9354  -20.6944   19.8678 C.ar    1  UNL1        0.0850
     35 CL         -5.6743  -21.5061   19.8900 Cl      1  UNL1       -0.0799
     36 C          -8.0533  -21.0705   18.9410 C.ar    1  UNL1        0.1503
     37 F          -7.9099  -22.2584   18.0364 F       1  UNL1       -0.2033
     38 C          -9.3144  -20.2587   18.9188 C.ar    1  UNL1        0.0263
@<TRIPOS>UNITY_ATOM_ATTR
18 1
charge -1
@<TRIPOS>BOND
     1    10    11    1
     2    11    12   ar
     3    12    13   ar
     4    13     4    1
     5     4     5   ar
     6     5     6   ar
     7     6     7   ar
     8     7     8   ar
     9     8     9   ar
    10     9     2    1
    11     2     3    1
    12     2     1    1
    13     1    20    1
    14    20    21    1
    15    21    22    1
    16    21    24    1
    17    24    25    1
    18    25    27    1
    19    27    28    1
    20    27    29    1
    21    27    30    1
    22    30    31    1
    23    31    32   ar
    24    32    33   ar
    25    33    34   ar
    26    34    35    1
    27    34    36   ar
    28    36    37    1
    29    36    38   ar
    30    13    14   ar
    31    14    15   ar
    32    15    16   ar
    33    16    17    1
    34    17    18   ar
    35    17    19   ar
    36    16    11   ar
    37     9     4   ar
    38    38    31   ar
    39    22    23    1
    40    25    26    1
@<TRIPOS>MOLECULE
*****
 38 40 0 0 0
SMALL
GASTEIGER

@<TRIPOS>ATOM
      1 O          -6.8888  -17.3165   21.9551 O.3     1  UNL1       -0.3492
      2 C          -7.2787  -16.0949   22.7333 C.3     1  UNL1        0.1376
      3 C          -8.0782  -15.0098   22.0749 C.3     1  UNL1        0.0370
      4 C          -5.4455  -16.2078   24.5708 C.ar    1  UNL1       -0.0017
      5 C          -5.0360  -16.0712   26.0073 C.ar    1  UNL1       -0.0002
      6 C          -6.0501  -15.6851   27.0429 C.ar    1  UNL1       -0.0000
      7 C          -7.4739  -15.4357   26.6419 C.ar    1  UNL1       -0.0002
      8 C          -7.8834  -15.5722   25.2054 C.ar    1  UNL1       -0.0019
      9 C          -6.8692  -15.9583   24.1698 C.ar    1  UNL1        0.0045
     10 C          -2.9874  -19.8716   21.8259 C.3     1  UNL1        0.0311
     11 C          -3.2022  -18.4258   22.1628 C.ar    1  UNL1       -0.0207
     12 C          -4.2164  -18.0397   23.1983 C.ar    1  UNL1       -0.0042
     13 C          -4.4313  -16.5939   23.5352 C.ar    1  UNL1       -0.0005
     14 C          -3.6319  -15.5342   22.8366 C.ar    1  UNL1        0.0000
     15 C          -2.6178  -15.9203   21.8011 C.ar    1  UNL1        0.0008
     16 C          -2.4029  -17.3661   21.4642 C.ar    1  UNL1        0.0100
     17 C          -1.3887  -17.7522   20.4286 C.2     1  UNL1        0.0726
     18 O          -0.0125  -18.1764   20.8483 O.co2   1  UNL1       -0.5446
     19 O          -1.7506  -17.7140   18.9735 O.co2   1  UNL1       -0.5446
     20 C          -7.4069  -18.6635   22.3643 C.3     1  UNL1        0.1729
     21 C          -7.0275  -19.8834   21.5783 C.3     1  UNL1        0.1556
     22 O          -6.4361  -21.0718   22.2770 O.3     1  UNL1       -0.3805
     23 H          -6.2497  -21.7685   21.6284 H       1  UNL1        0.2105
     24 C          -7.2395  -19.9151   20.0937 C.3     1  UNL1        0.1007
     25 N          -8.1555  -18.9196   19.4455 N.3     1  UNL1       -0.2972
     26 H          -8.0083  -18.9958   18.4391 H       1  UNL1        0.1233
     27 C          -9.6356  -19.0025   19.6743 C.3     1  UNL1        0.0461
     28 C          -9.6315  -17.6009   20.2086 C.3     1  UNL1        0.0161
     29 C          -9.6397  -20.4041   19.1399 C.3     1  UNL1        0.0161
     30 C         -11.1158  -19.0854   19.9030 C.3     1  UNL1        0.0408
     31 C         -11.6736  -18.8914   21.2819 C.ar    1  UNL1       -0.0186
     32 C         -12.8589  -17.9966   21.4924 C.ar    1  UNL1       -0.0032
     33 C         -13.4167  -17.8026   22.8713 C.ar    1  UNL1        0.0133
     34 C         -12.7892  -18.5035   24.0396 C.ar    1  UNL1        0.0850
     35 CL        -13.3470  -18.3095   25.4184 Cl      1  UNL1       -0.0799
     36 C         -11.6039  -19.3983   23.8291 C.ar    1  UNL1        0.1503
     37 F         -10.9763  -20.0992   24.9974 F       1  UNL1       -0.2033
     38 C         -11.0461  -19.5923   22.4502 C.ar    1  UNL1        0.0263
@<TRIPOS>UNITY_ATOM_ATTR
18 1
charge -1
@<TRIPOS>BOND
     1    10    11    1
     2    11    12   ar
     3    12    13   ar
     4    13     4    1
     5     4     5   ar
     6     5     6   ar
     7     6     7   ar
     8     7     8   ar
     9     8     9   ar
    10     9     2    1
    11     2     3    1
    12     2     1    1
    13     1    20    1
    14    20    21    1
    15    21    22    1
    16    21    24    1
    17    24    25    1
    18    25    27    1
    19    27    28    1
    20    27    29    1
    21    27    30    1
    22    30    31    1
    23    31    32   ar
    24    32    33   ar
    25    33    34   ar
    26    34    35    1
    27    34    36   ar
    28    36    37    1
    29    36    38   ar
    30    13    14   ar
    31    14    15   ar
    32    15    16   ar
    33    16    17    1
    34    17    18   ar
    35    17    19   ar
    36    16    11   ar
    37     9     4   ar
    38    38    31   ar
    39    22    23    1
    40    25    26    1
@<TRIPOS>MOLECULE
*****
 38 40 0 0 0
SMALL
GASTEIGER

@<TRIPOS>ATOM
      1 O          -7.8418  -17.3014   21.7291 O.3     1  UNL1       -0.3492
      2 C          -7.5983  -15.9592   22.3528 C.3     1  UNL1        0.1376
      3 C          -7.7459  -14.7126   21.5316 C.3     1  UNL1        0.0370
      4 C          -8.1822  -16.2593   24.8665 C.ar    1  UNL1       -0.0017
      5 C          -7.7910  -16.1635   26.3114 C.ar    1  UNL1       -0.0002
      6 C          -6.4247  -15.6720   26.6875 C.ar    1  UNL1       -0.0000
      7 C          -5.4495  -15.2761   25.6187 C.ar    1  UNL1       -0.0002
      8 C          -5.8407  -15.3718   24.1738 C.ar    1  UNL1       -0.0019
      9 C          -7.2071  -15.8634   23.7977 C.ar    1  UNL1        0.0045
     10 C         -12.7255  -15.5183   22.4563 C.3     1  UNL1        0.0311
     11 C         -11.8202  -16.3803   23.2854 C.ar    1  UNL1       -0.0207
     12 C         -10.4539  -15.8888   23.6614 C.ar    1  UNL1       -0.0042
     13 C          -9.5486  -16.7509   24.4904 C.ar    1  UNL1       -0.0005
     14 C         -10.0096  -18.1045   24.9434 C.ar    1  UNL1        0.0000
     15 C         -11.3759  -18.5960   24.5673 C.ar    1  UNL1        0.0008
     16 C         -12.2813  -17.7339   23.7383 C.ar    1  UNL1        0.0100
     17 C         -13.6477  -18.2255   23.3622 C.2     1  UNL1        0.0726
     18 O         -13.9938  -18.4484   21.9198 O.co2   1  UNL1       -0.5446
     19 O         -14.6678  -18.4942   24.4285 O.co2   1  UNL1       -0.5446
     20 C          -9.1877  -17.6275   21.1527 C.3     1  UNL1        0.1729
     21 C          -9.3411  -18.7890   20.2161 C.3     1  UNL1        0.1556
     22 O         -10.6135  -18.9649   19.4414 O.3     1  UNL1       -0.3805
     23 H         -10.5479  -19.7587   18.8877 H       1  UNL1        0.2105
     24 C          -8.2220  -19.7746   20.0540 C.3     1  UNL1        0.1007
     25 N          -7.2558  -20.0038   21.1783 N.3     1  UNL1       -0.2972
     26 H          -7.6634  -20.7239   21.7747 H       1  UNL1        0.1233
     27 C          -5.8489  -20.4319   20.8825 C.3     1  UNL1        0.0461
     28 C          -5.3660  -19.6750   22.0842 C.3     1  UNL1        0.0161
     29 C          -6.3318  -21.1888   19.6809 C.3     1  UNL1        0.0161
     30 C          -4.4420  -20.8599   20.5868 C.3     1  UNL1        0.0408
     31 C          -3.3578  -19.8320   20.4528 C.ar    1  UNL1       -0.0186
     32 C          -2.3791  -19.6242   21.5704 C.ar    1  UNL1       -0.0032
     33 C          -1.2949  -18.5963   21.4364 C.ar    1  UNL1        0.0133
     34 C          -1.1894  -17.7762   20.1849 C.ar    1  UNL1        0.0850
     35 CL         -0.1052  -16.7483   20.0509 Cl      1  UNL1       -0.0799
     36 C          -2.1682  -17.9841   19.0673 C.ar    1  UNL1        0.1503
     37 F          -2.0627  -17.1640   17.8157 F       1  UNL1       -0.2033
     38 C          -3.2523  -19.0119   19.2013 C.ar    1  UNL1        0.0263
@<TRIPOS>UNITY_ATOM_ATTR
18 1
charge -1
@<TRIPOS>BOND
     1    10    11    1
     2    11    12   ar
     3    12    13   ar
     4    13     4    1
     5     4     5   ar
     6     5     6   ar
     7     6     7   ar
     8     7     8   ar
     9     8     9   ar
    10     9     2    1
    11     2     3    1
    12     2     1    1
    13     1    20    1
    14    20    21    1
    15    21    22    1
    16    21    24    1
    17    24    25    1
    18    25    27    1
    19    27    28    1
    20    27    29    1
    21    27    30    1
    22    30    31    1
    23    31    32   ar
    24    32    33   ar
    25    33    34   ar
    26    34    35    1
    27    34    36   ar
    28    36    37    1
    29    36    38   ar
    30    13    14   ar
    31    14    15   ar
    32    15    16   ar
    33    16    17    1
    34    17    18   ar
    35    17    19   ar
    36    16    11   ar
    37     9     4   ar
    38    38    31   ar
    39    22    23    1
    40    25    26    1
@<TRIPOS>MOLECULE
*****
 38 40 0 0 0
SMALL
GASTEIGER

@<TRIPOS>ATOM
      1 O          -6.2329  -18.4638   21.4392 O.3     1  UNL1       -0.3492
      2 C          -4.8677  -19.0122   21.7312 C.3     1  UNL1        0.1376
      3 C          -4.7210  -20.3806   22.3278 C.3     1  UNL1        0.0370
      4 C          -3.2952  -17.0229   22.2969 C.ar    1  UNL1       -0.0017
      5 C          -2.0766  -16.2030   21.9923 C.ar    1  UNL1       -0.0002
      6 C          -1.2120  -16.5523   20.8174 C.ar    1  UNL1       -0.0000
      7 C          -1.5659  -17.7217   19.9471 C.ar    1  UNL1       -0.0002
      8 C          -2.7845  -18.5416   20.2517 C.ar    1  UNL1       -0.0019
      9 C          -3.6491  -18.1922   21.4266 C.ar    1  UNL1        0.0045
     10 C          -7.4845  -14.6526   24.2542 C.3     1  UNL1        0.0311
     11 C          -6.2544  -15.4883   24.4505 C.ar    1  UNL1       -0.0207
     12 C          -5.3898  -15.8377   23.2756 C.ar    1  UNL1       -0.0042
     13 C          -4.1598  -16.6735   23.4718 C.ar    1  UNL1       -0.0005
     14 C          -3.7944  -17.1599   24.8429 C.ar    1  UNL1        0.0000
     15 C          -4.6590  -16.8105   26.0177 C.ar    1  UNL1        0.0008
     16 C          -5.8890  -15.9747   25.8215 C.ar    1  UNL1        0.0100
     17 C          -6.7537  -15.6253   26.9965 C.2     1  UNL1        0.0726
     18 O          -6.4530  -14.4026   27.8116 O.co2   1  UNL1       -0.5446
     19 O          -7.9189  -16.4987   27.3562 O.co2   1  UNL1       -0.5446
     20 C          -7.3193  -18.5691   22.4681 C.3     1  UNL1        0.1729
     21 C          -8.3085  -19.6947   22.4018 C.3     1  UNL1        0.1556
     22 O          -9.1633  -19.8711   21.1818 O.3     1  UNL1       -0.3805
     23 H          -9.7431  -20.6395   21.3015 H       1  UNL1        0.2105
     24 C          -8.4430  -20.6440   23.5554 C.3     1  UNL1        0.1007
     25 N          -9.5019  -20.4176   24.5935 N.3     1  UNL1       -0.2972
     26 H          -9.0181  -20.2114   25.4675 H       1  UNL1        0.1233
     27 C         -10.5239  -19.3370   24.3990 C.3     1  UNL1        0.0461
     28 C          -9.7416  -18.4339   25.3058 C.3     1  UNL1        0.0161
     29 C         -11.3062  -20.2401   23.4922 C.3     1  UNL1        0.0161
     30 C         -11.5459  -18.2564   24.2045 C.3     1  UNL1        0.0408
     31 C         -11.6190  -17.5191   22.9002 C.ar    1  UNL1       -0.0186
     32 C         -12.8054  -17.7019   22.0008 C.ar    1  UNL1       -0.0032
     33 C         -12.8784  -16.9646   20.6965 C.ar    1  UNL1        0.0133
     34 C         -11.7650  -16.0446   20.2917 C.ar    1  UNL1        0.0850
     35 CL        -11.8380  -15.3073   18.9874 Cl      1  UNL1       -0.0799
     36 C         -10.5786  -15.8618   21.1912 C.ar    1  UNL1        0.1503
     37 F          -9.4652  -14.9418   20.7864 F       1  UNL1       -0.2033
     38 C         -10.5056  -16.5991   22.4954 C.ar    1  UNL1        0.0263
@<TRIPOS>UNITY_ATOM_ATTR
18 1
charge -1
@<TRIPOS>BOND
     1    10    11    1
     2    11    12   ar
     3    12    13   ar
     4    13     4    1
     5     4     5   ar
     6     5     6   ar
     7     6     7   ar
     8     7     8   ar
     9     8     9   ar
    10     9     2    1
    11     2     3    1
    12     2     1    1
    13     1    20    1
    14    20    21    1
    15    21    22    1
    16    21    24    1
    17    24    25    1
    18    25    27    1
    19    27    28    1
    20    27    29    1
    21    27    30    1
    22    30    31    1
    23    31    32   ar
    24    32    33   ar
    25    33    34   ar
    26    34    35    1
    27    34    36   ar
    28    36    37    1
    29    36    38   ar
    30    13    14   ar
    31    14    15   ar
    32    15    16   ar
    33    16    17    1
    34    17    18   ar
    35    17    19   ar
    36    16    11   ar
    37     9     4   ar
    38    38    31   ar
    39    22    23    1
    40    25    26    1
