@<TRIPOS>MOLECULE
*****
 39 43 0 0 0
SMALL
GASTEIGER

@<TRIPOS>ATOM
      1 C         -12.9746   -6.6435   18.0168 C.3     1  UNL1        0.0162
      2 C         -13.0649   -5.9768   19.3575 C.3     1  UNL1        0.0028
      3 C         -12.2676   -4.7366   19.6336 C.3     1  UNL1        0.0158
      4 C         -11.3801   -4.1630   18.5690 C.3     1  UNL1        0.0543
      5 C         -11.2898   -4.8297   17.2283 C.3     1  UNL1        0.0158
      6 C         -12.0870   -6.0699   16.9522 C.3     1  UNL1        0.0028
      7 C         -13.7718   -7.8837   17.7407 C.3     1  UNL1        0.0737
      8 N         -13.8636   -8.4206   16.3430 N.3     1  UNL1       -0.3206
      9 H         -13.3283   -7.8229   15.7133 H       1  UNL1        0.1189
     10 H         -14.8400   -8.4366   16.0484 H       1  UNL1        0.1189
     11 C         -14.4772   -8.5870   18.8621 C.3     1  UNL1        0.1244
     12 C         -20.2719  -10.0443   18.3160 C.3     1  UNL1        0.0312
     13 C         -18.8232   -9.6800   18.4526 C.ar    1  UNL1       -0.0157
     14 C         -17.7636  -10.7118   18.2028 C.ar    1  UNL1        0.0565
     15 C         -16.3149  -10.3475   18.3393 C.ar    1  UNL1        0.2607
     16 O         -15.2553  -11.3795   18.0895 O.2     1  UNL1       -0.2670
     17 N         -15.9259   -8.9513   18.7256 N.ar    1  UNL1       -0.2941
     18 C         -16.9855   -7.9194   18.9754 C.ar    1  UNL1        0.0644
     19 C         -16.5965   -6.5232   19.3617 C.ar    1  UNL1        0.0469
     20 C         -17.6561   -5.4914   19.6115 C.ar    1  UNL1        0.1416
     21 F         -17.2670   -4.0951   19.9979 F       1  UNL1       -0.2041
     22 C         -19.1047   -5.8557   19.4750 C.ar    1  UNL1        0.0297
     23 C         -19.4938   -7.2518   19.0887 C.ar    1  UNL1        0.0034
     24 C         -18.4342   -8.2837   18.8389 C.ar    1  UNL1        0.0122
     25 N         -10.5828   -2.9228   18.8451 N.3     1  UNL1       -0.2935
     26 H          -9.7332   -2.9880   18.2844 H       1  UNL1        0.1236
     27 C         -11.1780   -1.5728   18.5741 C.3     1  UNL1        0.1152
     28 C         -12.6340   -1.4493   18.2355 C.ar    1  UNL1        0.0765
     29 C         -13.0748   -1.4671   16.8018 C.ar    1  UNL1        0.0193
     30 C         -14.5309   -1.3437   16.4632 C.ar    1  UNL1        0.0411
     31 C         -15.5462   -1.2025   17.5583 C.ar    1  UNL1        0.1708
     32 C         -15.1054   -1.1847   18.9920 C.ar    1  UNL1        0.1682
     33 N         -13.6493   -1.3081   19.3306 N.ar    1  UNL1       -0.2304
     34 N         -16.1207   -1.0435   20.0870 N.am    1  UNL1       -0.2639
     35 C         -17.5768   -0.9201   19.7484 C.2     1  UNL1        0.2718
     36 O         -18.5921   -0.7789   20.8436 O.2     1  UNL1       -0.2707
     37 C         -18.0175   -0.9378   18.3148 C.3     1  UNL1        0.2898
     38 O         -17.0022   -1.0790   17.2198 O.3     1  UNL1       -0.4628
     39 H         -15.8314   -1.0319   21.0280 H       1  UNL1        0.1565
@<TRIPOS>BOND
     1    12    13    1
     2    13    14   ar
     3    14    15   ar
     4    15    16    2
     5    15    17   ar
     6    17    11    1
     7    11     7    1
     8     7     8    1
     9     7     1    1
    10     1     2    1
    11     2     3    1
    12     3     4    1
    13     4    25    1
    14    25    27    1
    15    27    28    1
    16    28    29   ar
    17    29    30   ar
    18    30    31   ar
    19    31    32   ar
    20    32    33   ar
    21    32    34    1
    22    34    35   am
    23    35    36    2
    24    35    37    1
    25    37    38    1
    26     4     5    1
    27     5     6    1
    28    17    18   ar
    29    18    19   ar
    30    19    20   ar
    31    20    21    1
    32    20    22   ar
    33    22    23   ar
    34    23    24   ar
    35    24    13   ar
    36     6     1    1
    37    24    18   ar
    38    33    28   ar
    39    38    31    1
    40     8     9    1
    41     8    10    1
    42    25    26    1
    43    34    39    1
@<TRIPOS>MOLECULE
*****
 39 43 0 0 0
SMALL
GASTEIGER

@<TRIPOS>ATOM
      1 C         -14.9020   -1.2104   19.5417 C.3     1  UNL1        0.0162
      2 C         -14.0409   -0.2389   18.7901 C.3     1  UNL1        0.0028
      3 C         -14.4737    1.1899   18.6441 C.3     1  UNL1        0.0158
      4 C         -15.7676    1.6472   19.2498 C.3     1  UNL1        0.0543
      5 C         -16.6286    0.6758   20.0014 C.3     1  UNL1        0.0158
      6 C         -16.1958   -0.7530   20.1474 C.3     1  UNL1        0.0028
      7 C         -14.4692   -2.6391   19.6877 C.3     1  UNL1        0.0737
      8 N         -14.2421   -3.2183   21.0527 N.3     1  UNL1       -0.3206
      9 H         -14.4270   -2.5062   21.7592 H       1  UNL1        0.1189
     10 H         -13.2751   -3.5329   21.1319 H       1  UNL1        0.1189
     11 C         -14.2635   -3.4887   18.4688 C.3     1  UNL1        0.1244
     12 C          -9.8793   -7.5838   18.3712 C.3     1  UNL1        0.0312
     13 C         -10.9753   -6.5600   18.3956 C.ar    1  UNL1       -0.0157
     14 C         -12.2990   -6.8931   19.0176 C.ar    1  UNL1        0.0565
     15 C         -13.3951   -5.8693   19.0419 C.ar    1  UNL1        0.2607
     16 O         -14.7188   -6.2024   19.6640 O.2     1  UNL1       -0.2670
     17 N         -13.1674   -4.5125   18.4444 N.ar    1  UNL1       -0.2941
     18 C         -11.8437   -4.1794   17.8223 C.ar    1  UNL1        0.0644
     19 C         -11.6160   -2.8225   17.2248 C.ar    1  UNL1        0.0469
     20 C         -10.2924   -2.4895   16.6028 C.ar    1  UNL1        0.1416
     21 F         -10.0647   -1.1326   16.0051 F       1  UNL1       -0.2041
     22 C          -9.1963   -3.5132   16.5784 C.ar    1  UNL1        0.0297
     23 C          -9.4240   -4.8701   17.1760 C.ar    1  UNL1        0.0034
     24 C         -10.7476   -5.2031   17.7979 C.ar    1  UNL1        0.0122
     25 N         -16.2003    3.0760   19.1039 N.3     1  UNL1       -0.2935
     26 H         -16.5820    3.1734   18.1630 H       1  UNL1        0.1236
     27 C         -17.2166    3.6517   20.0451 C.3     1  UNL1        0.1152
     28 C         -16.8172    4.0289   21.4409 C.ar    1  UNL1        0.0765
     29 C         -17.8602    4.1530   22.5118 C.ar    1  UNL1        0.0193
     30 C         -17.4608    4.5302   23.9076 C.ar    1  UNL1        0.0411
     31 C         -16.0183    4.7832   24.2324 C.ar    1  UNL1        0.1708
     32 C         -14.9754    4.6590   23.1615 C.ar    1  UNL1        0.1682
     33 N         -15.3748    4.2819   21.7658 N.ar    1  UNL1       -0.2304
     34 N         -13.5331    4.9121   23.4864 N.am    1  UNL1       -0.2639
     35 C         -13.1337    5.2892   24.8822 C.2     1  UNL1        0.2718
     36 O         -11.6912    5.5423   25.2071 O.2     1  UNL1       -0.2707
     37 C         -14.1766    5.4134   25.9531 C.3     1  UNL1        0.2898
     38 O         -15.6189    5.1604   25.6282 O.3     1  UNL1       -0.4628
     39 H         -12.8486    4.8306   22.7836 H       1  UNL1        0.1565
@<TRIPOS>BOND
     1    12    13    1
     2    13    14   ar
     3    14    15   ar
     4    15    16    2
     5    15    17   ar
     6    17    11    1
     7    11     7    1
     8     7     8    1
     9     7     1    1
    10     1     2    1
    11     2     3    1
    12     3     4    1
    13     4    25    1
    14    25    27    1
    15    27    28    1
    16    28    29   ar
    17    29    30   ar
    18    30    31   ar
    19    31    32   ar
    20    32    33   ar
    21    32    34    1
    22    34    35   am
    23    35    36    2
    24    35    37    1
    25    37    38    1
    26     4     5    1
    27     5     6    1
    28    17    18   ar
    29    18    19   ar
    30    19    20   ar
    31    20    21    1
    32    20    22   ar
    33    22    23   ar
    34    23    24   ar
    35    24    13   ar
    36     6     1    1
    37    24    18   ar
    38    33    28   ar
    39    38    31    1
    40     8     9    1
    41     8    10    1
    42    25    26    1
    43    34    39    1
@<TRIPOS>MOLECULE
*****
 39 43 0 0 0
SMALL
GASTEIGER

@<TRIPOS>ATOM
      1 C           2.8120   -0.1555   18.5410 C.3     1  UNL1        0.0162
      2 C           2.4885    1.2991   18.3692 C.3     1  UNL1        0.0028
      3 C           1.3798    1.9201   19.1662 C.3     1  UNL1        0.0158
      4 C           0.5947    1.0864   20.1350 C.3     1  UNL1        0.0543
      5 C           0.9182   -0.3681   20.3068 C.3     1  UNL1        0.0158
      6 C           2.0268   -0.9891   19.5098 C.3     1  UNL1        0.0028
      7 C           3.9207   -0.7765   17.7440 C.3     1  UNL1        0.0737
      8 N           3.6645   -1.2473   16.3429 N.3     1  UNL1       -0.3206
      9 H           2.6909   -1.0686   16.0969 H       1  UNL1        0.1189
     10 H           3.8528   -2.2479   16.2807 H       1  UNL1        0.1189
     11 C           5.2854   -0.9267   18.3479 C.3     1  UNL1        0.1244
     12 C           6.4862    1.5189   23.6937 C.3     1  UNL1        0.0312
     13 C           6.1860    0.9075   22.3572 C.ar    1  UNL1       -0.0157
     14 C           6.4200    1.6953   21.1025 C.ar    1  UNL1        0.0565
     15 C           6.1198    1.0839   19.7660 C.ar    1  UNL1        0.2607
     16 O           6.3538    1.8719   18.5112 O.2     1  UNL1       -0.2670
     17 N           5.5856   -0.3153   19.6844 N.ar    1  UNL1       -0.2941
     18 C           5.3516   -1.1033   20.9392 C.ar    1  UNL1        0.0644
     19 C           4.8175   -2.5025   20.8575 C.ar    1  UNL1        0.0469
     20 C           4.5836   -3.2904   22.1123 C.ar    1  UNL1        0.1416
     21 F           4.0494   -4.6897   22.0307 F       1  UNL1       -0.2041
     22 C           4.8837   -2.6790   23.4487 C.ar    1  UNL1        0.0297
     23 C           5.4179   -1.2797   23.5304 C.ar    1  UNL1        0.0034
     24 C           5.6518   -0.4919   22.2756 C.ar    1  UNL1        0.0122
     25 N          -0.5140    1.7074   20.9320 N.3     1  UNL1       -0.2935
     26 H          -1.0821    0.9410   21.2931 H       1  UNL1        0.1236
     27 C          -0.1934    2.5953   22.0978 C.3     1  UNL1        0.1152
     28 C           0.5748    2.0515   23.2657 C.ar    1  UNL1        0.0765
     29 C           2.0548    1.8336   23.1541 C.ar    1  UNL1        0.0193
     30 C           2.8230    1.2898   24.3220 C.ar    1  UNL1        0.0411
     31 C           2.1112    0.9639   25.6016 C.ar    1  UNL1        0.1708
     32 C           0.6314    1.1818   25.7132 C.ar    1  UNL1        0.1682
     33 N          -0.1368    1.7256   24.5453 N.ar    1  UNL1       -0.2304
     34 N          -0.0803    0.8559   26.9928 N.am    1  UNL1       -0.2639
     35 C           0.6880    0.3121   28.1607 C.2     1  UNL1        0.2718
     36 O          -0.0238   -0.0138   29.4404 O.2     1  UNL1       -0.2707
     37 C           2.1678    0.0942   28.0492 C.3     1  UNL1        0.2898
     38 O           2.8795    0.4201   26.7696 O.3     1  UNL1       -0.4628
     39 H          -1.0516    0.9989   27.0660 H       1  UNL1        0.1565
@<TRIPOS>BOND
     1    12    13    1
     2    13    14   ar
     3    14    15   ar
     4    15    16    2
     5    15    17   ar
     6    17    11    1
     7    11     7    1
     8     7     8    1
     9     7     1    1
    10     1     2    1
    11     2     3    1
    12     3     4    1
    13     4    25    1
    14    25    27    1
    15    27    28    1
    16    28    29   ar
    17    29    30   ar
    18    30    31   ar
    19    31    32   ar
    20    32    33   ar
    21    32    34    1
    22    34    35   am
    23    35    36    2
    24    35    37    1
    25    37    38    1
    26     4     5    1
    27     5     6    1
    28    17    18   ar
    29    18    19   ar
    30    19    20   ar
    31    20    21    1
    32    20    22   ar
    33    22    23   ar
    34    23    24   ar
    35    24    13   ar
    36     6     1    1
    37    24    18   ar
    38    33    28   ar
    39    38    31    1
    40     8     9    1
    41     8    10    1
    42    25    26    1
    43    34    39    1
@<TRIPOS>MOLECULE
*****
 39 43 0 0 0
SMALL
GASTEIGER

@<TRIPOS>ATOM
      1 C           2.8650   -0.2450   18.5718 C.3     1  UNL1        0.0162
      2 C           2.1542   -1.0604   19.6110 C.3     1  UNL1        0.0028
      3 C           1.0731   -0.4369   20.4431 C.3     1  UNL1        0.0158
      4 C           0.7028    1.0019   20.2361 C.3     1  UNL1        0.0543
      5 C           1.4137    1.8172   19.1969 C.3     1  UNL1        0.0158
      6 C           2.4948    1.1938   18.3648 C.3     1  UNL1        0.0028
      7 C           3.9462   -0.8684   17.7396 C.3     1  UNL1        0.0737
      8 N           3.6738   -1.2397   16.3120 N.3     1  UNL1       -0.3206
      9 H           2.7109   -0.9998   16.0761 H       1  UNL1        0.1189
     10 H           3.8143   -2.2424   16.1887 H       1  UNL1        0.1189
     11 C           5.2996   -1.1206   18.3350 C.3     1  UNL1        0.1244
     12 C           5.7675   -3.5669   23.7936 C.3     1  UNL1        0.0312
     13 C           5.6505   -2.9553   22.4289 C.ar    1  UNL1       -0.0157
     14 C           5.3754   -3.8252   21.2383 C.ar    1  UNL1        0.0565
     15 C           5.2584   -3.2136   19.8737 C.ar    1  UNL1        0.2607
     16 O           4.9833   -4.0835   18.6830 O.2     1  UNL1       -0.2670
     17 N           5.4166   -1.7322   19.6996 N.ar    1  UNL1       -0.2941
     18 C           5.6917   -0.8622   20.8903 C.ar    1  UNL1        0.0644
     19 C           5.8499    0.6192   20.7163 C.ar    1  UNL1        0.0469
     20 C           6.1250    1.4890   21.9069 C.ar    1  UNL1        0.1416
     21 F           6.2832    2.9705   21.7329 F       1  UNL1       -0.2041
     22 C           6.2420    0.8774   23.2715 C.ar    1  UNL1        0.0297
     23 C           6.0838   -0.6040   23.4456 C.ar    1  UNL1        0.0034
     24 C           5.8087   -1.4738   22.2549 C.ar    1  UNL1        0.0122
     25 N          -0.3783    1.6254   21.0683 N.3     1  UNL1       -0.2935
     26 H          -0.9061    0.8596   21.4871 H       1  UNL1        0.1236
     27 C          -0.0202    2.5644   22.1819 C.3     1  UNL1        0.1152
     28 C           0.6915    2.0492   23.3976 C.ar    1  UNL1        0.0765
     29 C           2.1878    1.9427   23.4019 C.ar    1  UNL1        0.0193
     30 C           2.8995    1.4275   24.6177 C.ar    1  UNL1        0.0411
     31 C           2.1150    1.0189   25.8291 C.ar    1  UNL1        0.1708
     32 C           0.6188    1.1254   25.8248 C.ar    1  UNL1        0.1682
     33 N          -0.0929    1.6406   24.6091 N.ar    1  UNL1       -0.2304
     34 N          -0.1656    0.7168   27.0363 N.am    1  UNL1       -0.2639
     35 C           0.5461    0.2016   28.2520 C.2     1  UNL1        0.2718
     36 O          -0.2384   -0.2070   29.4635 O.2     1  UNL1       -0.2707
     37 C           2.0423    0.0951   28.2563 C.3     1  UNL1        0.2898
     38 O           2.8267    0.5037   27.0449 O.3     1  UNL1       -0.4628
     39 H          -1.1476    0.7867   27.0334 H       1  UNL1        0.1565
@<TRIPOS>BOND
     1    12    13    1
     2    13    14   ar
     3    14    15   ar
     4    15    16    2
     5    15    17   ar
     6    17    11    1
     7    11     7    1
     8     7     8    1
     9     7     1    1
    10     1     2    1
    11     2     3    1
    12     3     4    1
    13     4    25    1
    14    25    27    1
    15    27    28    1
    16    28    29   ar
    17    29    30   ar
    18    30    31   ar
    19    31    32   ar
    20    32    33   ar
    21    32    34    1
    22    34    35   am
    23    35    36    2
    24    35    37    1
    25    37    38    1
    26     4     5    1
    27     5     6    1
    28    17    18   ar
    29    18    19   ar
    30    19    20   ar
    31    20    21    1
    32    20    22   ar
    33    22    23   ar
    34    23    24   ar
    35    24    13   ar
    36     6     1    1
    37    24    18   ar
    38    33    28   ar
    39    38    31    1
    40     8     9    1
    41     8    10    1
    42    25    26    1
    43    34    39    1
@<TRIPOS>MOLECULE
*****
 39 43 0 0 0
SMALL
GASTEIGER

@<TRIPOS>ATOM
      1 C           2.9909    1.0444   18.2243 C.3     1  UNL1        0.0162
      2 C           3.5639   -0.1432   17.5090 C.3     1  UNL1        0.0028
      3 C           4.9978   -0.1337   17.0690 C.3     1  UNL1        0.0158
      4 C           5.8589    1.0634   17.3442 C.3     1  UNL1        0.0543
      5 C           5.2860    2.2509   18.0594 C.3     1  UNL1        0.0158
      6 C           3.8520    2.2414   18.4995 C.3     1  UNL1        0.0028
      7 C           1.5570    1.0349   18.6643 C.3     1  UNL1        0.0737
      8 N           0.6129    2.0894   18.1673 N.3     1  UNL1       -0.3206
      9 H           1.1111    2.7257   17.5450 H       1  UNL1        0.1189
     10 H           0.2392    2.6119   18.9596 H       1  UNL1        0.1189
     11 C           1.0670   -0.0290   19.6012 C.3     1  UNL1        0.1244
     12 C           3.9434   -1.0310   24.7706 C.3     1  UNL1        0.0312
     13 C           3.2243   -0.7805   23.4783 C.ar    1  UNL1       -0.0157
     14 C           2.2655    0.3673   23.3637 C.ar    1  UNL1        0.0565
     15 C           1.5464    0.6178   22.0714 C.ar    1  UNL1        0.2607
     16 O           0.5875    1.7657   21.9569 O.2     1  UNL1       -0.2670
     17 N           1.7861   -0.2795   20.8936 N.ar    1  UNL1       -0.2941
     18 C           2.7449   -1.4274   21.0081 C.ar    1  UNL1        0.0644
     19 C           2.9846   -2.3248   19.8303 C.ar    1  UNL1        0.0469
     20 C           3.9434   -3.4726   19.9448 C.ar    1  UNL1        0.1416
     21 F           4.1832   -4.3700   18.7669 F       1  UNL1       -0.2041
     22 C           4.6625   -3.7230   21.2371 C.ar    1  UNL1        0.0297
     23 C           4.4229   -2.8257   22.4149 C.ar    1  UNL1        0.0034
     24 C           3.4640   -1.6779   22.3004 C.ar    1  UNL1        0.0122
     25 N           7.2929    1.0729   16.9042 N.3     1  UNL1       -0.2935
     26 H           7.4238    1.9160   16.3453 H       1  UNL1        0.1236
     27 C           8.3910    1.0558   17.9259 C.3     1  UNL1        0.1152
     28 C           8.2541    0.2143   19.1601 C.ar    1  UNL1        0.0765
     29 C           7.9456    0.8607   20.4781 C.ar    1  UNL1        0.0193
     30 C           7.8087    0.0192   21.7123 C.ar    1  UNL1        0.0411
     31 C           7.9803   -1.4686   21.6284 C.ar    1  UNL1        0.1708
     32 C           8.2888   -2.1149   20.3104 C.ar    1  UNL1        0.1682
     33 N           8.4257   -1.2734   19.0763 N.ar    1  UNL1       -0.2304
     34 N           8.4603   -3.6027   20.2266 N.am    1  UNL1       -0.2639
     35 C           8.3234   -4.4442   21.4608 C.2     1  UNL1        0.2718
     36 O           8.4950   -5.9320   21.3769 O.2     1  UNL1       -0.2707
     37 C           8.0150   -3.7979   22.7788 C.3     1  UNL1        0.2898
     38 O           7.8434   -2.3101   22.8626 O.3     1  UNL1       -0.4628
     39 H           8.6628   -4.0269   19.3616 H       1  UNL1        0.1565
@<TRIPOS>BOND
     1    12    13    1
     2    13    14   ar
     3    14    15   ar
     4    15    16    2
     5    15    17   ar
     6    17    11    1
     7    11     7    1
     8     7     8    1
     9     7     1    1
    10     1     2    1
    11     2     3    1
    12     3     4    1
    13     4    25    1
    14    25    27    1
    15    27    28    1
    16    28    29   ar
    17    29    30   ar
    18    30    31   ar
    19    31    32   ar
    20    32    33   ar
    21    32    34    1
    22    34    35   am
    23    35    36    2
    24    35    37    1
    25    37    38    1
    26     4     5    1
    27     5     6    1
    28    17    18   ar
    29    18    19   ar
    30    19    20   ar
    31    20    21    1
    32    20    22   ar
    33    22    23   ar
    34    23    24   ar
    35    24    13   ar
    36     6     1    1
    37    24    18   ar
    38    33    28   ar
    39    38    31    1
    40     8     9    1
    41     8    10    1
    42    25    26    1
    43    34    39    1
@<TRIPOS>MOLECULE
*****
 39 43 0 0 0
SMALL
GASTEIGER

@<TRIPOS>ATOM
      1 C         -13.4098   -1.2649   19.0278 C.3     1  UNL1        0.0162
      2 C         -14.8558   -1.1719   19.4157 C.3     1  UNL1        0.0028
      3 C         -15.6504    0.0499   19.0610 C.3     1  UNL1        0.0158
      4 C         -14.9989    1.1787   18.3184 C.3     1  UNL1        0.0543
      5 C         -13.5529    1.0857   17.9305 C.3     1  UNL1        0.0158
      6 C         -12.7584   -0.1361   18.2853 C.3     1  UNL1        0.0028
      7 C         -12.6152   -2.4867   19.3825 C.3     1  UNL1        0.0737
      8 N         -11.2201   -2.6528   18.8569 N.3     1  UNL1       -0.3206
      9 H         -10.9758   -1.8475   18.2806 H       1  UNL1        0.1189
     10 H         -11.1676   -3.5020   18.2942 H       1  UNL1        0.1189
     11 C         -13.2156   -3.5424   20.2629 C.3     1  UNL1        0.1244
     12 C         -14.6465   -8.9006   17.9733 C.3     1  UNL1        0.0312
     13 C         -14.2888   -7.5610   18.5457 C.ar    1  UNL1       -0.0157
     14 C         -12.8490   -7.1598   18.6724 C.ar    1  UNL1        0.0565
     15 C         -12.4913   -5.8203   19.2448 C.ar    1  UNL1        0.2607
     16 O         -11.0515   -5.4191   19.3716 O.2     1  UNL1       -0.2670
     17 N         -13.5733   -4.8819   19.6905 N.ar    1  UNL1       -0.2941
     18 C         -15.0132   -5.2831   19.5637 C.ar    1  UNL1        0.0644
     19 C         -16.0952   -4.3447   20.0093 C.ar    1  UNL1        0.0469
     20 C         -17.5350   -4.7459   19.8826 C.ar    1  UNL1        0.1416
     21 F         -18.6171   -3.8075   20.3282 F       1  UNL1       -0.2041
     22 C         -17.8927   -6.0855   19.3102 C.ar    1  UNL1        0.0297
     23 C         -16.8106   -7.0238   18.8645 C.ar    1  UNL1        0.0034
     24 C         -15.3709   -6.6226   18.9913 C.ar    1  UNL1        0.0122
     25 N         -15.7935    2.4006   17.9636 N.3     1  UNL1       -0.2935
     26 H         -16.7718    2.1799   18.1497 H       1  UNL1        0.1236
     27 C         -15.5067    3.7057   18.6453 C.3     1  UNL1        0.1152
     28 C         -15.6975    3.8355   20.1274 C.ar    1  UNL1        0.0765
     29 C         -16.9617    3.3425   20.7669 C.ar    1  UNL1        0.0193
     30 C         -17.1525    3.4724   22.2491 C.ar    1  UNL1        0.0411
     31 C         -16.0790    4.0952   23.0917 C.ar    1  UNL1        0.1708
     32 C         -14.8149    4.5881   22.4522 C.ar    1  UNL1        0.1682
     33 N         -14.6242    4.4583   20.9700 N.ar    1  UNL1       -0.2304
     34 N         -13.7416    5.2108   23.2948 N.am    1  UNL1       -0.2639
     35 C         -13.9324    5.3407   24.7770 C.2     1  UNL1        0.2718
     36 O         -12.8589    5.9635   25.6196 O.2     1  UNL1       -0.2707
     37 C         -15.1965    4.8477   25.4165 C.3     1  UNL1        0.2898
     38 O         -16.2698    4.2250   24.5738 O.3     1  UNL1       -0.4628
     39 H         -12.9119    5.5344   22.8751 H       1  UNL1        0.1565
@<TRIPOS>BOND
     1    12    13    1
     2    13    14   ar
     3    14    15   ar
     4    15    16    2
     5    15    17   ar
     6    17    11    1
     7    11     7    1
     8     7     8    1
     9     7     1    1
    10     1     2    1
    11     2     3    1
    12     3     4    1
    13     4    25    1
    14    25    27    1
    15    27    28    1
    16    28    29   ar
    17    29    30   ar
    18    30    31   ar
    19    31    32   ar
    20    32    33   ar
    21    32    34    1
    22    34    35   am
    23    35    36    2
    24    35    37    1
    25    37    38    1
    26     4     5    1
    27     5     6    1
    28    17    18   ar
    29    18    19   ar
    30    19    20   ar
    31    20    21    1
    32    20    22   ar
    33    22    23   ar
    34    23    24   ar
    35    24    13   ar
    36     6     1    1
    37    24    18   ar
    38    33    28   ar
    39    38    31    1
    40     8     9    1
    41     8    10    1
    42    25    26    1
    43    34    39    1
@<TRIPOS>MOLECULE
*****
 39 43 0 0 0
SMALL
GASTEIGER

@<TRIPOS>ATOM
      1 C         -15.3642   -5.2856   19.0679 C.3     1  UNL1        0.0162
      2 C         -15.9344   -4.4143   20.1477 C.3     1  UNL1        0.0028
      3 C         -17.2187   -3.6751   19.9149 C.3     1  UNL1        0.0158
      4 C         -17.9328   -3.8072   18.6024 C.3     1  UNL1        0.0543
      5 C         -17.3627   -4.6784   17.5227 C.3     1  UNL1        0.0158
      6 C         -16.0784   -5.4176   17.7554 C.3     1  UNL1        0.0028
      7 C         -14.0799   -6.0248   19.3006 C.3     1  UNL1        0.0737
      8 N         -14.0031   -7.4982   19.0302 N.3     1  UNL1       -0.3206
      9 H         -14.9079   -7.8304   18.6966 H       1  UNL1        0.1189
     10 H         -13.7565   -7.9892   19.8896 H       1  UNL1        0.1189
     11 C         -12.8725   -5.2906   19.8037 C.3     1  UNL1        0.1244
     12 C          -8.5395   -3.6694   15.9831 C.3     1  UNL1        0.0312
     13 C          -9.6228   -4.0747   16.9382 C.ar    1  UNL1       -0.0157
     14 C          -9.6953   -5.4885   17.4339 C.ar    1  UNL1        0.0565
     15 C         -10.7786   -5.8938   18.3890 C.ar    1  UNL1        0.2607
     16 O         -10.8511   -7.3078   18.8846 O.2     1  UNL1       -0.2670
     17 N         -11.7893   -4.8853   18.8485 N.ar    1  UNL1       -0.2941
     18 C         -11.7168   -3.4713   18.3529 C.ar    1  UNL1        0.0644
     19 C         -12.7275   -2.4627   18.8124 C.ar    1  UNL1        0.0469
     20 C         -12.6550   -1.0489   18.3168 C.ar    1  UNL1        0.1416
     21 F         -13.6657   -0.0402   18.7763 F       1  UNL1       -0.2041
     22 C         -11.5717   -0.6436   17.3616 C.ar    1  UNL1        0.0297
     23 C         -10.5610   -1.6521   16.9021 C.ar    1  UNL1        0.0034
     24 C         -10.6335   -3.0660   17.3978 C.ar    1  UNL1        0.0122
     25 N         -19.2171   -3.0680   18.3697 N.3     1  UNL1       -0.2935
     26 H         -19.9592   -3.7674   18.3453 H       1  UNL1        0.1236
     27 C         -19.6557   -2.0048   19.3327 C.3     1  UNL1        0.1152
     28 C         -18.8358   -0.7598   19.4998 C.ar    1  UNL1        0.0765
     29 C         -18.1641   -0.1389   18.3109 C.ar    1  UNL1        0.0193
     30 C         -17.3442    1.1060   18.4781 C.ar    1  UNL1        0.0411
     31 C         -17.1960    1.7300   19.8341 C.ar    1  UNL1        0.1708
     32 C         -17.8676    1.1091   21.0229 C.ar    1  UNL1        0.1682
     33 N         -18.6875   -0.1358   20.8558 N.ar    1  UNL1       -0.2304
     34 N         -17.7194    1.7331   22.3788 N.am    1  UNL1       -0.2639
     35 C         -16.8995    2.9781   22.5459 C.2     1  UNL1        0.2718
     36 O         -16.7513    3.6021   23.9019 O.2     1  UNL1       -0.2707
     37 C         -16.2279    3.5990   21.3571 C.3     1  UNL1        0.2898
     38 O         -16.3761    2.9750   20.0012 O.3     1  UNL1       -0.4628
     39 H         -18.1602    1.3256   23.1591 H       1  UNL1        0.1565
@<TRIPOS>BOND
     1    12    13    1
     2    13    14   ar
     3    14    15   ar
     4    15    16    2
     5    15    17   ar
     6    17    11    1
     7    11     7    1
     8     7     8    1
     9     7     1    1
    10     1     2    1
    11     2     3    1
    12     3     4    1
    13     4    25    1
    14    25    27    1
    15    27    28    1
    16    28    29   ar
    17    29    30   ar
    18    30    31   ar
    19    31    32   ar
    20    32    33   ar
    21    32    34    1
    22    34    35   am
    23    35    36    2
    24    35    37    1
    25    37    38    1
    26     4     5    1
    27     5     6    1
    28    17    18   ar
    29    18    19   ar
    30    19    20   ar
    31    20    21    1
    32    20    22   ar
    33    22    23   ar
    34    23    24   ar
    35    24    13   ar
    36     6     1    1
    37    24    18   ar
    38    33    28   ar
    39    38    31    1
    40     8     9    1
    41     8    10    1
    42    25    26    1
    43    34    39    1
@<TRIPOS>MOLECULE
*****
 39 43 0 0 0
SMALL
GASTEIGER

@<TRIPOS>ATOM
      1 C         -12.4133   -5.4545   18.2543 C.3     1  UNL1        0.0162
      2 C         -12.7381   -4.4885   19.3550 C.3     1  UNL1        0.0028
      3 C         -12.1632   -3.1033   19.3311 C.3     1  UNL1        0.0158
      4 C         -11.2634   -2.6840   18.2064 C.3     1  UNL1        0.0543
      5 C         -10.9386   -3.6500   17.1058 C.3     1  UNL1        0.0158
      6 C         -11.5135   -5.0352   17.1298 C.3     1  UNL1        0.0028
      7 C         -12.9882   -6.8397   18.2783 C.3     1  UNL1        0.0737
      8 N         -12.2765   -7.9345   19.0167 N.3     1  UNL1       -0.3206
      9 H         -11.4262   -7.5623   19.4395 H       1  UNL1        0.1189
     10 H         -12.0338   -8.6815   18.3659 H       1  UNL1        0.1189
     11 C         -14.2748   -7.1302   17.5640 C.3     1  UNL1        0.1244
     12 C         -19.3061   -8.0506   20.7006 C.3     1  UNL1        0.0312
     13 C         -18.0483   -7.8205   19.9164 C.ar    1  UNL1       -0.0157
     14 C         -17.0873   -8.9501   19.6918 C.ar    1  UNL1        0.0565
     15 C         -15.8295   -8.7200   18.9076 C.ar    1  UNL1        0.2607
     16 O         -14.8685   -9.8497   18.6830 O.2     1  UNL1       -0.2670
     17 N         -15.5326   -7.3603   18.3481 N.ar    1  UNL1       -0.2941
     18 C         -16.4936   -6.2306   18.5728 C.ar    1  UNL1        0.0644
     19 C         -16.1967   -4.8709   18.0133 C.ar    1  UNL1        0.0469
     20 C         -17.1577   -3.7414   18.2379 C.ar    1  UNL1        0.1416
     21 F         -16.8608   -2.3816   17.6784 F       1  UNL1       -0.2041
     22 C         -18.4155   -3.9714   19.0221 C.ar    1  UNL1        0.0297
     23 C         -18.7124   -5.3311   19.5816 C.ar    1  UNL1        0.0034
     24 C         -17.7514   -6.4607   19.3569 C.ar    1  UNL1        0.0122
     25 N         -10.6885   -1.2988   18.1825 N.3     1  UNL1       -0.2935
     26 H          -9.6896   -1.3977   18.0012 H       1  UNL1        0.1236
     27 C         -11.2082   -0.2879   17.2036 C.3     1  UNL1        0.1152
     28 C         -12.4574    0.4826   17.5133 C.ar    1  UNL1        0.0765
     29 C         -12.6868    1.8242   16.8827 C.ar    1  UNL1        0.0193
     30 C         -13.9360    2.5947   17.1923 C.ar    1  UNL1        0.0411
     31 C         -14.9557    2.0236   18.1326 C.ar    1  UNL1        0.1708
     32 C         -14.7263    0.6821   18.7631 C.ar    1  UNL1        0.1682
     33 N         -13.4771   -0.0884   18.4535 N.ar    1  UNL1       -0.2304
     34 N         -15.7460    0.1110   19.7033 N.am    1  UNL1       -0.2639
     35 C         -16.9952    0.8815   20.0130 C.2     1  UNL1        0.2718
     36 O         -18.0149    0.3104   20.9533 O.2     1  UNL1       -0.2707
     37 C         -17.2246    2.2230   19.3824 C.3     1  UNL1        0.2898
     38 O         -16.2049    2.7941   18.4422 O.3     1  UNL1       -0.4628
     39 H         -15.5954   -0.7695   20.1172 H       1  UNL1        0.1565
@<TRIPOS>BOND
     1    12    13    1
     2    13    14   ar
     3    14    15   ar
     4    15    16    2
     5    15    17   ar
     6    17    11    1
     7    11     7    1
     8     7     8    1
     9     7     1    1
    10     1     2    1
    11     2     3    1
    12     3     4    1
    13     4    25    1
    14    25    27    1
    15    27    28    1
    16    28    29   ar
    17    29    30   ar
    18    30    31   ar
    19    31    32   ar
    20    32    33   ar
    21    32    34    1
    22    34    35   am
    23    35    36    2
    24    35    37    1
    25    37    38    1
    26     4     5    1
    27     5     6    1
    28    17    18   ar
    29    18    19   ar
    30    19    20   ar
    31    20    21    1
    32    20    22   ar
    33    22    23   ar
    34    23    24   ar
    35    24    13   ar
    36     6     1    1
    37    24    18   ar
    38    33    28   ar
    39    38    31    1
    40     8     9    1
    41     8    10    1
    42    25    26    1
    43    34    39    1
@<TRIPOS>MOLECULE
*****
 39 43 0 0 0
SMALL
GASTEIGER

@<TRIPOS>ATOM
      1 C           7.4677   -5.0519   24.1755 C.3     1  UNL1        0.0162
      2 C           6.9187   -4.2705   25.3323 C.3     1  UNL1        0.0028
      3 C           6.8626   -4.8904   26.6970 C.3     1  UNL1        0.0158
      4 C           7.3555   -6.2919   26.9050 C.3     1  UNL1        0.0543
      5 C           7.9044   -7.0732   25.7482 C.3     1  UNL1        0.0158
      6 C           7.9605   -6.4533   24.3835 C.3     1  UNL1        0.0028
      7 C           7.5238   -4.4320   22.8108 C.3     1  UNL1        0.0737
      8 N           7.8185   -5.2837   21.6116 N.3     1  UNL1       -0.3206
      9 H           7.9528   -6.2509   21.9063 H       1  UNL1        0.1189
     10 H           8.6660   -4.9465   21.1551 H       1  UNL1        0.1189
     11 C           7.2852   -2.9604   22.6451 C.3     1  UNL1        0.1244
     12 C           2.0411   -0.9951   20.4918 C.3     1  UNL1        0.0312
     13 C           3.3521   -1.4864   21.0301 C.ar    1  UNL1       -0.0157
     14 C           4.3082   -2.2111   20.1299 C.ar    1  UNL1        0.0565
     15 C           5.6193   -2.7025   20.6682 C.ar    1  UNL1        0.2607
     16 O           6.5755   -3.4272   19.7679 O.2     1  UNL1       -0.2670
     17 N           5.9741   -2.4691   22.1068 N.ar    1  UNL1       -0.2941
     18 C           5.0180   -1.7443   23.0071 C.ar    1  UNL1        0.0644
     19 C           5.3728   -1.5109   24.4457 C.ar    1  UNL1        0.0469
     20 C           4.4167   -0.7862   25.3459 C.ar    1  UNL1        0.1416
     21 F           4.7715   -0.5527   26.7846 F       1  UNL1       -0.2041
     22 C           3.1056   -0.2948   24.8076 C.ar    1  UNL1        0.0297
     23 C           2.7508   -0.5282   23.3690 C.ar    1  UNL1        0.0034
     24 C           3.7069   -1.2530   22.4688 C.ar    1  UNL1        0.0122
     25 N           7.2994   -6.9118   28.2697 N.3     1  UNL1       -0.2935
     26 H           7.3751   -7.9205   28.1382 H       1  UNL1        0.1236
     27 C           8.3138   -6.5331   29.3078 C.3     1  UNL1        0.1152
     28 C           8.1361   -5.2758   30.1064 C.ar    1  UNL1        0.0765
     29 C           9.2302   -4.2503   30.1440 C.ar    1  UNL1        0.0193
     30 C           9.0525   -2.9930   30.9426 C.ar    1  UNL1        0.0411
     31 C           7.7808   -2.7613   31.7036 C.ar    1  UNL1        0.1708
     32 C           6.6868   -3.7869   31.6660 C.ar    1  UNL1        0.1682
     33 N           6.8645   -5.0441   30.8674 N.ar    1  UNL1       -0.2304
     34 N           5.4152   -3.5551   32.4270 N.am    1  UNL1       -0.2639
     35 C           5.2375   -2.2979   33.2256 C.2     1  UNL1        0.2718
     36 O           3.9658   -2.0662   33.9866 O.2     1  UNL1       -0.2707
     37 C           6.3315   -1.2724   33.2632 C.3     1  UNL1        0.2898
     38 O           7.6031   -1.5041   32.5022 O.3     1  UNL1       -0.4628
     39 H           4.6971   -4.2282   32.4023 H       1  UNL1        0.1565
@<TRIPOS>BOND
     1    12    13    1
     2    13    14   ar
     3    14    15   ar
     4    15    16    2
     5    15    17   ar
     6    17    11    1
     7    11     7    1
     8     7     8    1
     9     7     1    1
    10     1     2    1
    11     2     3    1
    12     3     4    1
    13     4    25    1
    14    25    27    1
    15    27    28    1
    16    28    29   ar
    17    29    30   ar
    18    30    31   ar
    19    31    32   ar
    20    32    33   ar
    21    32    34    1
    22    34    35   am
    23    35    36    2
    24    35    37    1
    25    37    38    1
    26     4     5    1
    27     5     6    1
    28    17    18   ar
    29    18    19   ar
    30    19    20   ar
    31    20    21    1
    32    20    22   ar
    33    22    23   ar
    34    23    24   ar
    35    24    13   ar
    36     6     1    1
    37    24    18   ar
    38    33    28   ar
    39    38    31    1
    40     8     9    1
    41     8    10    1
    42    25    26    1
    43    34    39    1
