@<TRIPOS>MOLECULE
*****
 33 37 0 0 0
SMALL
GASTEIGER

@<TRIPOS>ATOM
      1 N          -2.8478  -17.8986   21.9011 N.3     1  UNL1       -0.2726
      2 C          -1.7038  -18.7305   21.4022 C.3     1  UNL1        0.0721
      3 C          -2.2721  -19.8897   20.6384 C.3     1  UNL1        0.0190
      4 C          -3.7674  -19.7741   20.6653 C.3     1  UNL1        0.0201
      5 C          -4.0348  -21.0115   19.8607 C.3     1  UNL1        0.0061
      6 C          -5.1789  -20.1796   20.3596 C.3     1  UNL1        0.0237
      7 C          -4.1232  -18.5436   21.4457 C.3     1  UNL1        0.0724
      8 C          -6.6543  -19.9333   20.4712 C.ar    1  UNL1       -0.0225
      9 C          -7.3037  -19.8680   21.8218 C.ar    1  UNL1       -0.0043
     10 C          -8.7791  -19.6217   21.9334 C.ar    1  UNL1        0.0035
     11 C          -9.6051  -19.4408   20.6945 C.ar    1  UNL1        0.0714
     12 C          -8.9557  -19.5062   19.3439 C.ar    1  UNL1        0.0035
     13 C          -7.4803  -19.7525   19.2323 C.ar    1  UNL1       -0.0043
     14 C         -11.0805  -19.1946   20.8061 C.3     1  UNL1        0.4186
     15 F         -12.5560  -18.9484   20.9177 F       1  UNL1       -0.1659
     16 F         -10.9437  -17.9804   19.9361 F       1  UNL1       -0.1659
     17 F         -11.2174  -20.4088   21.6761 F       1  UNL1       -0.1659
     18 C          -2.7362  -16.6422   22.7129 C.3     1  UNL1        0.0730
     19 C          -3.9566  -15.8131   22.9834 C.3     1  UNL1        0.0294
     20 C          -4.6463  -15.9048   24.3123 C.3     1  UNL1        0.0666
     21 S          -5.9328  -15.1685   24.5420 S.3     1  UNL1       -0.0756
     22 C          -8.6771  -16.3463   25.8577 C.3     1  UNL1        0.1337
     23 N          -8.4307  -16.1089   24.3972 N.ar    1  UNL1       -0.2918
     24 C          -7.1693  -15.5676   23.7925 C.ar    1  UNL1        0.1930
     25 N          -7.3615  -15.4952   22.3066 N.ar    1  UNL1       -0.1224
     26 N          -8.7417  -15.9920   21.9930 N.ar    1  UNL1       -0.1328
     27 C          -9.4026  -16.3713   23.2851 C.ar    1  UNL1        0.1434
     28 C         -10.7913  -16.9170   23.4381 C.3     1  UNL1        0.0638
     29 C         -11.9463  -16.2247   22.7773 C.3     1  UNL1        0.0397
     30 C         -13.3351  -16.7704   22.9303 C.3     1  UNL1        0.1426
     31 O         -13.5688  -18.0086   23.7443 O.3     1  UNL1       -0.3538
     32 C         -12.4139  -18.7009   24.4051 C.3     1  UNL1        0.1426
     33 C         -11.0251  -18.1551   24.2520 C.3     1  UNL1        0.0397
@<TRIPOS>BOND
     1    22    23    1
     2    23    24   ar
     3    24    21    1
     4    21    20    1
     5    20    19    1
     6    19    18    1
     7    18     1    1
     8     1     2    1
     9     2     3    1
    10     4     3    1
    11     4     5    1
    12     5     6    1
    13     6     8    1
    14     8     9   ar
    15     9    10   ar
    16    10    11   ar
    17    11    14    1
    18    14    15    1
    19    14    16    1
    20    14    17    1
    21    11    12   ar
    22    12    13   ar
    23     4     7    1
    24    24    25   ar
    25    25    26   ar
    26    26    27   ar
    27    27    28    1
    28    28    29    1
    29    29    30    1
    30    30    31    1
    31    31    32    1
    32    32    33    1
    33    27    23   ar
    34    33    28    1
    35     7     1    1
    36     6     4    1
    37    13     8   ar
@<TRIPOS>MOLECULE
*****
 33 37 0 0 0
SMALL
GASTEIGER

@<TRIPOS>ATOM
      1 N          -3.1616  -19.3576   20.3992 N.3     1  UNL1       -0.2726
      2 C          -1.9002  -18.9056   19.7248 C.3     1  UNL1        0.0721
      3 C          -1.4804  -17.6079   20.3490 C.3     1  UNL1        0.0190
      4 C          -2.4823  -17.2578   21.4091 C.3     1  UNL1        0.0201
      5 C          -1.8242  -15.9773   21.8300 C.3     1  UNL1        0.0061
      6 C          -3.0856  -16.4292   22.5043 C.3     1  UNL1        0.0237
      7 C          -3.5213  -18.3392   21.4401 C.3     1  UNL1        0.0724
      8 C          -4.1621  -16.2118   23.5260 C.ar    1  UNL1       -0.0225
      9 C          -4.0986  -16.9227   24.8453 C.ar    1  UNL1       -0.0043
     10 C          -5.1752  -16.7053   25.8669 C.ar    1  UNL1        0.0035
     11 C          -6.3152  -15.7770   25.5692 C.ar    1  UNL1        0.0714
     12 C          -6.3787  -15.0662   24.2499 C.ar    1  UNL1        0.0035
     13 C          -5.3021  -15.2836   23.2283 C.ar    1  UNL1       -0.0043
     14 C          -7.3918  -15.5597   26.5909 C.3     1  UNL1        0.4186
     15 F          -8.4684  -15.3422   27.6125 F       1  UNL1       -0.1659
     16 F          -6.4285  -15.9202   27.6827 F       1  UNL1       -0.1659
     17 F          -8.3551  -15.1991   25.4991 F       1  UNL1       -0.1659
     18 C          -3.9286  -20.6083   20.0873 C.3     1  UNL1        0.0730
     19 C          -5.2303  -20.8824   20.7805 C.3     1  UNL1        0.0294
     20 C          -6.5267  -20.6133   20.0757 C.3     1  UNL1        0.0666
     21 S          -7.0900  -19.2234   20.0463 S.3     1  UNL1       -0.0756
     22 C         -10.3197  -19.5587   20.3721 C.3     1  UNL1        0.1337
     23 N          -9.4013  -18.8790   21.3440 N.ar    1  UNL1       -0.2918
     24 C          -7.9168  -18.7249   21.1943 C.ar    1  UNL1        0.1930
     25 N          -7.4042  -17.9847   22.3940 N.ar    1  UNL1       -0.1224
     26 N          -8.5720  -17.6814   23.2853 N.ar    1  UNL1       -0.1328
     27 C          -9.8063  -18.2340   22.6364 C.ar    1  UNL1        0.1434
     28 C         -11.2007  -18.1556   23.1837 C.3     1  UNL1        0.0638
     29 C         -12.2464  -17.3594   22.4609 C.3     1  UNL1        0.0397
     30 C         -13.6408  -17.2810   23.0082 C.3     1  UNL1        0.1426
     31 O         -13.9893  -17.9987   24.2785 O.3     1  UNL1       -0.3538
     32 C         -12.9436  -18.7949   25.0013 C.3     1  UNL1        0.1426
     33 C         -11.5492  -18.8733   24.4539 C.3     1  UNL1        0.0397
@<TRIPOS>BOND
     1    22    23    1
     2    23    24   ar
     3    24    21    1
     4    21    20    1
     5    20    19    1
     6    19    18    1
     7    18     1    1
     8     1     2    1
     9     2     3    1
    10     4     3    1
    11     4     5    1
    12     5     6    1
    13     6     8    1
    14     8     9   ar
    15     9    10   ar
    16    10    11   ar
    17    11    14    1
    18    14    15    1
    19    14    16    1
    20    14    17    1
    21    11    12   ar
    22    12    13   ar
    23     4     7    1
    24    24    25   ar
    25    25    26   ar
    26    26    27   ar
    27    27    28    1
    28    28    29    1
    29    29    30    1
    30    30    31    1
    31    31    32    1
    32    32    33    1
    33    27    23   ar
    34    33    28    1
    35     7     1    1
    36     6     4    1
    37    13     8   ar
@<TRIPOS>MOLECULE
*****
 33 37 0 0 0
SMALL
GASTEIGER

@<TRIPOS>ATOM
      1 N          -3.0141  -18.2236   22.6895 N.3     1  UNL1       -0.2726
      2 C          -1.8175  -18.7799   21.9762 C.3     1  UNL1        0.0721
      3 C          -2.3080  -19.6499   20.8571 C.3     1  UNL1        0.0190
      4 C          -3.8078  -19.6313   20.8787 C.3     1  UNL1        0.0201
      5 C          -3.9929  -20.5451   19.7037 C.3     1  UNL1        0.0061
      6 C          -5.1894  -19.9888   20.4169 C.3     1  UNL1        0.0237
      7 C          -4.2441  -18.7498   22.0112 C.3     1  UNL1        0.0724
      8 C          -6.6780  -19.8741   20.5622 C.ar    1  UNL1       -0.0225
      9 C          -7.5480  -19.8122   19.3419 C.ar    1  UNL1       -0.0043
     10 C          -9.0366  -19.6975   19.4871 C.ar    1  UNL1        0.0035
     11 C          -9.6550  -19.6446   20.8526 C.ar    1  UNL1        0.0714
     12 C          -8.7849  -19.7064   22.0730 C.ar    1  UNL1        0.0035
     13 C          -7.2964  -19.8212   21.9277 C.ar    1  UNL1       -0.0043
     14 C         -11.1435  -19.5299   20.9979 C.3     1  UNL1        0.4186
     15 F         -12.6321  -19.4151   21.1431 F       1  UNL1       -0.1659
     16 F         -11.0371  -19.9628   22.4301 F       1  UNL1       -0.1659
     17 F         -11.2499  -19.0969   19.5657 F       1  UNL1       -0.1659
     18 C          -2.9856  -17.3028   23.8733 C.3     1  UNL1        0.0730
     19 C          -4.2517  -17.0000   24.6185 C.3     1  UNL1        0.0294
     20 C          -5.0415  -15.7688   24.2861 C.3     1  UNL1        0.0666
     21 S          -6.2345  -15.3965   25.1156 S.3     1  UNL1       -0.0756
     22 C          -7.7751  -14.7837   22.3047 C.3     1  UNL1        0.1337
     23 N          -8.3063  -15.6080   23.4398 N.ar    1  UNL1       -0.2918
     24 C          -7.5982  -15.8897   24.7318 C.ar    1  UNL1        0.1930
     25 N          -8.4930  -16.7511   25.5727 N.ar    1  UNL1       -0.1224
     26 N          -9.7543  -17.0019   24.8004 N.ar    1  UNL1       -0.1328
     27 C          -9.6389  -16.2954   23.4822 C.ar    1  UNL1        0.1434
     28 C         -10.6743  -16.2792   22.3969 C.3     1  UNL1        0.0638
     29 C         -10.2707  -16.0004   20.9794 C.3     1  UNL1        0.0397
     30 C         -11.3061  -15.9842   19.8942 C.3     1  UNL1        0.1426
     31 O         -12.7451  -16.2468   20.2266 O.3     1  UNL1       -0.3538
     32 C         -13.1487  -16.5255   21.6441 C.3     1  UNL1        0.1426
     33 C         -12.1132  -16.5417   22.7293 C.3     1  UNL1        0.0397
@<TRIPOS>BOND
     1    22    23    1
     2    23    24   ar
     3    24    21    1
     4    21    20    1
     5    20    19    1
     6    19    18    1
     7    18     1    1
     8     1     2    1
     9     2     3    1
    10     4     3    1
    11     4     5    1
    12     5     6    1
    13     6     8    1
    14     8     9   ar
    15     9    10   ar
    16    10    11   ar
    17    11    14    1
    18    14    15    1
    19    14    16    1
    20    14    17    1
    21    11    12   ar
    22    12    13   ar
    23     4     7    1
    24    24    25   ar
    25    25    26   ar
    26    26    27   ar
    27    27    28    1
    28    28    29    1
    29    29    30    1
    30    30    31    1
    31    31    32    1
    32    32    33    1
    33    27    23   ar
    34    33    28    1
    35     7     1    1
    36     6     4    1
    37    13     8   ar
@<TRIPOS>MOLECULE
*****
 33 37 0 0 0
SMALL
GASTEIGER

@<TRIPOS>ATOM
      1 N          -4.5957  -16.5186   24.1217 N.3     1  UNL1       -0.2726
      2 C          -4.3445  -16.2747   25.5803 C.3     1  UNL1        0.0721
      3 C          -5.6516  -15.9138   26.2216 C.3     1  UNL1        0.0190
      4 C          -6.7106  -15.9347   25.1595 C.3     1  UNL1        0.0201
      5 C          -7.8458  -15.5527   26.0624 C.3     1  UNL1        0.0061
      6 C          -8.0970  -15.7966   24.6038 C.3     1  UNL1        0.0237
      7 C          -6.0580  -16.3085   23.8616 C.3     1  UNL1        0.0724
      8 C          -9.0425  -15.8578   23.4409 C.ar    1  UNL1       -0.0225
      9 C          -8.5710  -15.4728   22.0700 C.ar    1  UNL1       -0.0043
     10 C          -9.5164  -15.5340   20.9071 C.ar    1  UNL1        0.0035
     11 C         -10.9334  -15.9801   21.1151 C.ar    1  UNL1        0.0714
     12 C         -11.4048  -16.3650   22.4861 C.ar    1  UNL1        0.0035
     13 C         -10.4594  -16.3039   23.6490 C.ar    1  UNL1       -0.0043
     14 C         -11.8788  -16.0412   19.9523 C.3     1  UNL1        0.4186
     15 F         -12.8244  -16.1024   18.7893 F       1  UNL1       -0.1659
     16 F         -10.9187  -15.2345   19.1292 F       1  UNL1       -0.1659
     17 F         -12.8389  -16.8479   20.7753 F       1  UNL1       -0.1659
     18 C          -3.5655  -16.9049   23.1022 C.3     1  UNL1        0.0730
     19 C          -2.9430  -18.2690   23.1446 C.3     1  UNL1        0.0294
     20 C          -2.4168  -18.8928   21.8860 C.3     1  UNL1        0.0666
     21 S          -3.2925  -19.8035   21.0775 S.3     1  UNL1       -0.0756
     22 C          -5.9405  -20.8634   22.6631 C.3     1  UNL1        0.1337
     23 N          -5.9280  -19.9012   21.5125 N.ar    1  UNL1       -0.2918
     24 C          -4.7109  -19.4140   20.7837 C.ar    1  UNL1        0.1930
     25 N          -5.1612  -18.4688   19.7094 N.ar    1  UNL1       -0.1224
     26 N          -6.6566  -18.3719   19.7744 N.ar    1  UNL1       -0.1328
     27 C          -7.1306  -19.2571   20.8887 C.ar    1  UNL1        0.1434
     28 C          -8.5568  -19.4622   21.3060 C.3     1  UNL1        0.0638
     29 C          -9.6512  -19.4233   20.2809 C.3     1  UNL1        0.0397
     30 C         -11.0773  -19.6284   20.6982 C.3     1  UNL1        0.1426
     31 O         -11.4089  -19.8725   22.1406 O.3     1  UNL1       -0.3538
     32 C         -10.3145  -19.9114   23.1657 C.3     1  UNL1        0.1426
     33 C          -8.8884  -19.7063   22.7483 C.3     1  UNL1        0.0397
@<TRIPOS>BOND
     1    22    23    1
     2    23    24   ar
     3    24    21    1
     4    21    20    1
     5    20    19    1
     6    19    18    1
     7    18     1    1
     8     1     2    1
     9     2     3    1
    10     4     3    1
    11     4     5    1
    12     5     6    1
    13     6     8    1
    14     8     9   ar
    15     9    10   ar
    16    10    11   ar
    17    11    14    1
    18    14    15    1
    19    14    16    1
    20    14    17    1
    21    11    12   ar
    22    12    13   ar
    23     4     7    1
    24    24    25   ar
    25    25    26   ar
    26    26    27   ar
    27    27    28    1
    28    28    29    1
    29    29    30    1
    30    30    31    1
    31    31    32    1
    32    32    33    1
    33    27    23   ar
    34    33    28    1
    35     7     1    1
    36     6     4    1
    37    13     8   ar
@<TRIPOS>MOLECULE
*****
 33 37 0 0 0
SMALL
GASTEIGER

@<TRIPOS>ATOM
      1 N          -5.0393  -16.2358   24.4990 N.3     1  UNL1       -0.2726
      2 C          -4.5558  -15.6111   25.7741 C.3     1  UNL1        0.0721
      3 C          -5.7535  -15.3068   26.6243 C.3     1  UNL1        0.0190
      4 C          -6.9772  -15.7434   25.8747 C.3     1  UNL1        0.0201
      5 C          -7.9621  -15.3297   26.9277 C.3     1  UNL1        0.0061
      6 C          -8.4456  -15.9545   25.6525 C.3     1  UNL1        0.0237
      7 C          -6.5358  -16.3176   24.5611 C.3     1  UNL1        0.0724
      8 C          -9.5725  -16.4370   24.7881 C.ar    1  UNL1       -0.0225
      9 C         -10.0593  -15.5911   23.6491 C.ar    1  UNL1       -0.0043
     10 C         -11.1861  -16.0736   22.7846 C.ar    1  UNL1        0.0035
     11 C         -11.8262  -17.4021   23.0592 C.ar    1  UNL1        0.0714
     12 C         -11.3394  -18.2480   24.1983 C.ar    1  UNL1        0.0035
     13 C         -10.2125  -17.7655   25.0627 C.ar    1  UNL1       -0.0043
     14 C         -12.9531  -17.8846   22.1948 C.3     1  UNL1        0.4186
     15 F         -14.0801  -18.3672   21.3303 F       1  UNL1       -0.1659
     16 F         -12.1997  -17.4528   20.9717 F       1  UNL1       -0.1659
     17 F         -13.7064  -18.3164   23.4179 F       1  UNL1       -0.1659
     18 C          -4.1776  -16.6977   23.3614 C.3     1  UNL1        0.0730
     19 C          -3.1227  -17.7384   23.5940 C.3     1  UNL1        0.0294
     20 C          -2.1854  -18.1172   22.4859 C.3     1  UNL1        0.0666
     21 S          -2.5972  -19.1445   21.4734 S.3     1  UNL1       -0.0756
     22 C          -5.5109  -20.1928   22.5037 C.3     1  UNL1        0.1337
     23 N          -5.2367  -19.4776   21.2140 N.ar    1  UNL1       -0.2918
     24 C          -3.8975  -18.9958   20.7404 C.ar    1  UNL1        0.1930
     25 N          -4.0867  -18.3391   19.4051 N.ar    1  UNL1       -0.1224
     26 N          -5.5429  -18.4151   19.0534 N.ar    1  UNL1       -0.1328
     27 C          -6.2537  -19.1187   20.1714 C.ar    1  UNL1        0.1434
     28 C          -7.7234  -19.4120   20.2354 C.3     1  UNL1        0.0638
     29 C          -8.4246  -19.4445   21.5610 C.3     1  UNL1        0.0397
     30 C          -9.8943  -19.7378   21.6250 C.3     1  UNL1        0.1426
     31 O         -10.6626  -19.9985   20.3634 O.3     1  UNL1       -0.3538
     32 C          -9.9614  -19.9659   19.0378 C.3     1  UNL1        0.1426
     33 C          -8.4917  -19.6726   18.9738 C.3     1  UNL1        0.0397
@<TRIPOS>BOND
     1    22    23    1
     2    23    24   ar
     3    24    21    1
     4    21    20    1
     5    20    19    1
     6    19    18    1
     7    18     1    1
     8     1     2    1
     9     2     3    1
    10     4     3    1
    11     4     5    1
    12     5     6    1
    13     6     8    1
    14     8     9   ar
    15     9    10   ar
    16    10    11   ar
    17    11    14    1
    18    14    15    1
    19    14    16    1
    20    14    17    1
    21    11    12   ar
    22    12    13   ar
    23     4     7    1
    24    24    25   ar
    25    25    26   ar
    26    26    27   ar
    27    27    28    1
    28    28    29    1
    29    29    30    1
    30    30    31    1
    31    31    32    1
    32    32    33    1
    33    27    23   ar
    34    33    28    1
    35     7     1    1
    36     6     4    1
    37    13     8   ar
@<TRIPOS>MOLECULE
*****
 33 37 0 0 0
SMALL
GASTEIGER

@<TRIPOS>ATOM
      1 N          -2.5350    4.6653   18.1345 N.3     1  UNL1       -0.2726
      2 C          -3.2097    4.1449   16.9001 C.3     1  UNL1        0.0721
      3 C          -4.5600    3.6243   17.2945 C.3     1  UNL1        0.0190
      4 C          -4.7199    3.8230   18.7726 C.3     1  UNL1        0.0201
      5 C          -6.0970    3.2352   18.8618 C.3     1  UNL1        0.0061
      6 C          -5.4223    3.7556   20.0963 C.3     1  UNL1        0.0237
      7 C          -3.4683    4.4664   19.2918 C.3     1  UNL1        0.0724
      8 C          -5.4382    4.0172   21.5732 C.ar    1  UNL1       -0.0225
      9 C          -4.8853    2.9953   22.5219 C.ar    1  UNL1       -0.0043
     10 C          -4.9012    3.2569   23.9988 C.ar    1  UNL1        0.0035
     11 C          -5.4702    4.5404   24.5270 C.ar    1  UNL1        0.0714
     12 C          -6.0232    5.5622   23.5783 C.ar    1  UNL1        0.0035
     13 C          -6.0072    5.3006   22.1014 C.ar    1  UNL1       -0.0043
     14 C          -5.4862    4.8020   26.0039 C.3     1  UNL1        0.4186
     15 F          -5.5022    5.0636   27.4809 F       1  UNL1       -0.1659
     16 F          -4.4595    3.7271   26.2054 F       1  UNL1       -0.1659
     17 F          -6.5128    5.8769   25.8025 F       1  UNL1       -0.1659
     18 C          -1.1670    5.2773   18.2002 C.3     1  UNL1        0.0730
     19 C           0.0295    4.4885   17.7574 C.3     1  UNL1        0.0294
     20 C           0.1712    3.0506   18.1605 C.3     1  UNL1        0.0666
     21 S           1.5079    2.5191   18.5856 S.3     1  UNL1       -0.0756
     22 C           4.1869    0.6558   18.6120 C.3     1  UNL1        0.1337
     23 N           2.8481    0.2833   19.1769 N.ar    1  UNL1       -0.2918
     24 C           1.6168    1.1397   19.1647 C.ar    1  UNL1        0.1930
     25 N           0.5133    0.3746   19.8333 N.ar    1  UNL1       -0.1224
     26 N           1.0627   -0.9547   20.2588 N.ar    1  UNL1       -0.1328
     27 C           2.5058   -1.0112   19.8531 C.ar    1  UNL1        0.1434
     28 C           3.4420   -2.1604   20.0831 C.3     1  UNL1        0.0638
     29 C           3.7169   -3.1367   18.9780 C.3     1  UNL1        0.0397
     30 C           4.6531   -4.2858   19.2081 C.3     1  UNL1        0.1426
     31 O           5.3143   -4.4587   20.5434 O.3     1  UNL1       -0.3538
     32 C           5.0394   -3.4825   21.6485 C.3     1  UNL1        0.1426
     33 C           4.1032   -2.3333   21.4184 C.3     1  UNL1        0.0397
@<TRIPOS>BOND
     1    22    23    1
     2    23    24   ar
     3    24    21    1
     4    21    20    1
     5    20    19    1
     6    19    18    1
     7    18     1    1
     8     1     2    1
     9     2     3    1
    10     4     3    1
    11     4     5    1
    12     5     6    1
    13     6     8    1
    14     8     9   ar
    15     9    10   ar
    16    10    11   ar
    17    11    14    1
    18    14    15    1
    19    14    16    1
    20    14    17    1
    21    11    12   ar
    22    12    13   ar
    23     4     7    1
    24    24    25   ar
    25    25    26   ar
    26    26    27   ar
    27    27    28    1
    28    28    29    1
    29    29    30    1
    30    30    31    1
    31    31    32    1
    32    32    33    1
    33    27    23   ar
    34    33    28    1
    35     7     1    1
    36     6     4    1
    37    13     8   ar
@<TRIPOS>MOLECULE
*****
 33 37 0 0 0
SMALL
GASTEIGER

@<TRIPOS>ATOM
      1 N           8.3238   -5.0983   23.2990 N.3     1  UNL1       -0.2726
      2 C           8.7756   -6.3725   22.6492 C.3     1  UNL1        0.0721
      3 C           8.8441   -7.4334   23.7073 C.3     1  UNL1        0.0190
      4 C           8.4347   -6.8149   25.0111 C.3     1  UNL1        0.0201
      5 C           8.5959   -8.0595   25.8326 C.3     1  UNL1        0.0061
      6 C           8.1441   -6.7853   26.4824 C.3     1  UNL1        0.0237
      7 C           8.1132   -5.3716   24.7587 C.3     1  UNL1        0.0724
      8 C           7.7155   -6.0325   27.7070 C.ar    1  UNL1       -0.0225
      9 C           8.1130   -6.5245   29.0672 C.ar    1  UNL1       -0.0043
     10 C           7.6844   -5.7717   30.2918 C.ar    1  UNL1        0.0035
     11 C           6.8584   -4.5270   30.1562 C.ar    1  UNL1        0.0714
     12 C           6.4610   -4.0350   28.7960 C.ar    1  UNL1        0.0035
     13 C           6.8895   -4.7878   27.5714 C.ar    1  UNL1       -0.0043
     14 C           6.4298   -3.7742   31.3808 C.3     1  UNL1        0.4186
     15 F           6.0012   -3.0215   32.6054 F       1  UNL1       -0.1659
     16 F           6.2131   -2.5448   30.5492 F       1  UNL1       -0.1659
     17 F           6.6465   -5.0037   32.2123 F       1  UNL1       -0.1659
     18 C           8.1187   -3.7817   22.6100 C.3     1  UNL1        0.0730
     19 C           7.8576   -3.7406   21.1335 C.3     1  UNL1        0.0294
     20 C           8.8709   -3.1331   20.2092 C.3     1  UNL1        0.0666
     21 S           8.5110   -1.9309   19.3876 S.3     1  UNL1       -0.0756
     22 C           5.9851   -0.5005   20.8788 C.3     1  UNL1        0.1337
     23 N           5.9635   -1.1319   19.5183 N.ar    1  UNL1       -0.2918
     24 C           7.1245   -1.7894   18.8329 C.ar    1  UNL1        0.1930
     25 N           6.6557   -2.2805   17.4953 N.ar    1  UNL1       -0.1224
     26 N           5.2050   -1.9265   17.3540 N.ar    1  UNL1       -0.1328
     27 C           4.7771   -1.2167   18.6043 C.ar    1  UNL1        0.1434
     28 C           3.4040   -0.6849   18.8903 C.3     1  UNL1        0.0638
     29 C           2.8704    0.4758   18.1042 C.3     1  UNL1        0.0397
     30 C           1.4972    1.0075   18.3903 C.3     1  UNL1        0.1426
     31 O           0.6577    0.3784   19.4625 O.3     1  UNL1       -0.3538
     32 C           1.1913   -0.7824   20.2486 C.3     1  UNL1        0.1426
     33 C           2.5645   -1.3140   19.9625 C.3     1  UNL1        0.0397
@<TRIPOS>BOND
     1    22    23    1
     2    23    24   ar
     3    24    21    1
     4    21    20    1
     5    20    19    1
     6    19    18    1
     7    18     1    1
     8     1     2    1
     9     2     3    1
    10     4     3    1
    11     4     5    1
    12     5     6    1
    13     6     8    1
    14     8     9   ar
    15     9    10   ar
    16    10    11   ar
    17    11    14    1
    18    14    15    1
    19    14    16    1
    20    14    17    1
    21    11    12   ar
    22    12    13   ar
    23     4     7    1
    24    24    25   ar
    25    25    26   ar
    26    26    27   ar
    27    27    28    1
    28    28    29    1
    29    29    30    1
    30    30    31    1
    31    31    32    1
    32    32    33    1
    33    27    23   ar
    34    33    28    1
    35     7     1    1
    36     6     4    1
    37    13     8   ar
@<TRIPOS>MOLECULE
*****
 33 37 0 0 0
SMALL
GASTEIGER

@<TRIPOS>ATOM
      1 N          -0.9970    3.1936   23.1725 N.3     1  UNL1       -0.2726
      2 C          -2.2695    3.9718   23.0140 C.3     1  UNL1        0.0721
      3 C          -2.9225    4.0716   24.3608 C.3     1  UNL1        0.0190
      4 C          -2.0535    3.3552   25.3515 C.3     1  UNL1        0.0201
      5 C          -2.9262    3.6162   26.5432 C.3     1  UNL1        0.0061
      6 C          -1.6537    2.8381   26.7017 C.3     1  UNL1        0.0237
      7 C          -0.8634    2.8126   24.6171 C.3     1  UNL1        0.0724
      8 C          -0.6882    2.0903   27.5726 C.ar    1  UNL1       -0.0225
      9 C           0.5713    2.7572   28.0407 C.ar    1  UNL1       -0.0043
     10 C           1.5368    2.0095   28.9117 C.ar    1  UNL1        0.0035
     11 C           1.2429    0.5948   29.3145 C.ar    1  UNL1        0.0714
     12 C          -0.0165   -0.0721   28.8464 C.ar    1  UNL1        0.0035
     13 C          -0.9821    0.6757   27.9754 C.ar    1  UNL1       -0.0043
     14 C           2.2084   -0.1530   30.1854 C.3     1  UNL1        0.4186
     15 F           3.1740   -0.9009   31.0564 F       1  UNL1       -0.1659
     16 F           1.8978    0.7724   31.3243 F       1  UNL1       -0.1659
     17 F           2.5191   -1.0784   29.0465 F       1  UNL1       -0.1659
     18 C          -0.0280    2.8559   22.0784 C.3     1  UNL1        0.0730
     19 C          -0.2937    3.3114   20.6742 C.3     1  UNL1        0.0294
     20 C           0.8104    3.2958   19.6589 C.3     1  UNL1        0.0666
     21 S           0.8788    2.1952   18.6421 S.3     1  UNL1       -0.0756
     22 C           0.7811   -0.5388   20.4211 C.3     1  UNL1        0.1337
     23 N           1.9164   -0.0962   19.5463 N.ar    1  UNL1       -0.2918
     24 C           1.9613    1.1605   18.7286 C.ar    1  UNL1        0.1930
     25 N           3.2787    1.2008   18.0125 N.ar    1  UNL1       -0.1224
     26 N           4.0480   -0.0310   18.3877 N.ar    1  UNL1       -0.1328
     27 C           3.2061   -0.8327   19.3357 C.ar    1  UNL1        0.1434
     28 C           3.5870   -2.1409   19.9628 C.3     1  UNL1        0.0638
     29 C           3.4907   -3.4097   19.1684 C.3     1  UNL1        0.0397
     30 C           3.8716   -4.7180   19.7956 C.3     1  UNL1        0.1426
     31 O           4.3488   -4.7574   21.2172 O.3     1  UNL1       -0.3538
     32 C           4.4451   -3.4887   22.0115 C.3     1  UNL1        0.1426
     33 C           4.0642   -2.1804   21.3843 C.3     1  UNL1        0.0397
@<TRIPOS>BOND
     1    22    23    1
     2    23    24   ar
     3    24    21    1
     4    21    20    1
     5    20    19    1
     6    19    18    1
     7    18     1    1
     8     1     2    1
     9     2     3    1
    10     4     3    1
    11     4     5    1
    12     5     6    1
    13     6     8    1
    14     8     9   ar
    15     9    10   ar
    16    10    11   ar
    17    11    14    1
    18    14    15    1
    19    14    16    1
    20    14    17    1
    21    11    12   ar
    22    12    13   ar
    23     4     7    1
    24    24    25   ar
    25    25    26   ar
    26    26    27   ar
    27    27    28    1
    28    28    29    1
    29    29    30    1
    30    30    31    1
    31    31    32    1
    32    32    33    1
    33    27    23   ar
    34    33    28    1
    35     7     1    1
    36     6     4    1
    37    13     8   ar
@<TRIPOS>MOLECULE
*****
 33 37 0 0 0
SMALL
GASTEIGER

@<TRIPOS>ATOM
      1 N           7.1805   -1.5731   19.3276 N.3     1  UNL1       -0.2726
      2 C           6.7242   -2.4768   18.2208 C.3     1  UNL1        0.0721
      3 C           5.4793   -3.1776   18.6781 C.3     1  UNL1        0.0190
      4 C           5.1663   -2.7071   20.0676 C.3     1  UNL1        0.0201
      5 C           3.9329   -3.5428   20.2420 C.3     1  UNL1        0.0061
      6 C           4.3893   -2.6392   21.3489 C.3     1  UNL1        0.0237
      7 C           6.2177   -1.7155   20.4690 C.3     1  UNL1        0.0724
      8 C           4.2042   -2.0783   22.7276 C.ar    1  UNL1       -0.0225
      9 C           5.0336   -2.5956   23.8654 C.ar    1  UNL1       -0.0043
     10 C           4.8485   -2.0347   25.2442 C.ar    1  UNL1        0.0035
     11 C           3.8340   -0.9564   25.4852 C.ar    1  UNL1        0.0714
     12 C           3.0046   -0.4390   24.3474 C.ar    1  UNL1        0.0035
     13 C           3.1897   -1.0000   22.9686 C.ar    1  UNL1       -0.0043
     14 C           3.6489   -0.3954   26.8640 C.3     1  UNL1        0.4186
     15 F           3.4638    0.1656   28.2428 F       1  UNL1       -0.1659
     16 F           3.1848   -1.7373   27.3476 F       1  UNL1       -0.1659
     17 F           4.1130    0.9464   26.3804 F       1  UNL1       -0.1659
     18 C           8.3877   -0.6833   19.2983 C.3     1  UNL1        0.0730
     19 C           8.2422    0.7667   18.9433 C.3     1  UNL1        0.0294
     20 C           8.2721    1.1937   17.5056 C.3     1  UNL1        0.0666
     21 S           7.0310    1.7310   16.8569 S.3     1  UNL1       -0.0756
     22 C           4.7777    2.7464   18.9879 C.3     1  UNL1        0.1337
     23 N           4.6702    1.5447   18.0966 N.ar    1  UNL1       -0.2918
     24 C           5.7059    1.0780   17.1171 C.ar    1  UNL1        0.1930
     25 N           5.1840   -0.1564   16.4434 N.ar    1  UNL1       -0.1224
     26 N           3.8256   -0.4526   17.0066 N.ar    1  UNL1       -0.1328
     27 C           3.5080    0.5987   18.0283 C.ar    1  UNL1        0.1434
     28 C           2.2494    0.6884   18.8393 C.3     1  UNL1        0.0638
     29 C           1.8267   -0.4665   19.6982 C.3     1  UNL1        0.0397
     30 C           0.5681   -0.3769   20.5092 C.3     1  UNL1        0.1426
     31 O          -0.2679    0.8677   20.4613 O.3     1  UNL1       -0.3538
     32 C           0.1547    2.0226   19.6024 C.3     1  UNL1        0.1426
     33 C           1.4134    1.9328   18.7914 C.3     1  UNL1        0.0397
@<TRIPOS>BOND
     1    22    23    1
     2    23    24   ar
     3    24    21    1
     4    21    20    1
     5    20    19    1
     6    19    18    1
     7    18     1    1
     8     1     2    1
     9     2     3    1
    10     4     3    1
    11     4     5    1
    12     5     6    1
    13     6     8    1
    14     8     9   ar
    15     9    10   ar
    16    10    11   ar
    17    11    14    1
    18    14    15    1
    19    14    16    1
    20    14    17    1
    21    11    12   ar
    22    12    13   ar
    23     4     7    1
    24    24    25   ar
    25    25    26   ar
    26    26    27   ar
    27    27    28    1
    28    28    29    1
    29    29    30    1
    30    30    31    1
    31    31    32    1
    32    32    33    1
    33    27    23   ar
    34    33    28    1
    35     7     1    1
    36     6     4    1
    37    13     8   ar
