@<TRIPOS>MOLECULE
*****
 32 34 0 0 0
SMALL
GASTEIGER

@<TRIPOS>ATOM
      1 C          -8.0113  -18.7420   22.1819 C.2     1  UNL1        0.2270
      2 O          -7.9704  -17.3890   21.5357 O.2     1  UNL1       -0.2748
      3 N          -9.0848  -19.0651   23.1785 N.am    1  UNL1       -0.2794
      4 C          -9.2526  -20.3682   23.9025 C.3     1  UNL1        0.0935
      5 C         -10.4506  -20.2503   24.7975 C.3     1  UNL1        0.0233
      6 C         -11.0232  -18.8744   24.6267 C.3     1  UNL1        0.0233
      7 C         -10.1791  -18.1420   23.6261 C.3     1  UNL1        0.0949
      8 C          -6.9786  -19.7720   21.8316 C.3     1  UNL1        0.1010
      9 N          -7.0611  -19.1337   19.3145 N.3     1  UNL1       -0.3215
     10 C          -6.3471  -19.7683   20.4711 C.3     1  UNL1        0.0644
     11 H          -7.9547  -18.7576   19.6315 H       1  UNL1        0.1188
     12 H          -7.2242  -19.8332   18.5904 H       1  UNL1        0.1188
     13 C          -5.0017  -20.3992   20.2669 C.3     1  UNL1        0.0447
     14 C          -3.7647  -19.5510   20.2873 C.ar    1  UNL1        0.0090
     15 C          -3.1862  -19.0374   19.0022 C.ar    1  UNL1        0.0300
     16 C          -1.9492  -18.1892   19.0227 C.ar    1  UNL1        0.1672
     17 F          -1.3706  -17.6755   17.7376 F       1  UNL1       -0.2018
     18 C          -1.2906  -17.8547   20.3282 C.ar    1  UNL1        0.1696
     19 F          -0.0536  -17.0066   20.3487 F       1  UNL1       -0.2017
     20 C          -1.8691  -18.3684   21.6133 C.ar    1  UNL1        0.0612
     21 C          -3.1061  -19.2165   21.5929 C.ar    1  UNL1        0.1386
     22 F          -3.6846  -19.7302   22.8779 F       1  UNL1       -0.2044
     23 C         -10.3920  -16.7336   23.1557 C.3     1  UNL1        0.1082
     24 N          -9.9908  -15.5823   24.0294 N.pl3   1  UNL1       -0.3167
     25 H         -10.6274  -14.8520   24.2045 H       1  UNL1        0.1482
     26 C          -8.6196  -15.5437   24.6365 C.ar    1  UNL1        0.1287
     27 C          -8.4449  -15.7675   26.1094 C.ar    1  UNL1        0.0364
     28 C          -7.0738  -15.7289   26.7164 C.ar    1  UNL1        0.0341
     29 C          -5.8774  -15.4665   25.8505 C.ar    1  UNL1        0.1593
     30 F          -4.5062  -15.4278   26.4576 F       1  UNL1       -0.2025
     31 C          -6.0521  -15.2427   24.3776 C.ar    1  UNL1        0.1298
     32 N          -7.4232  -15.2813   23.7706 N.ar    1  UNL1       -0.2270
@<TRIPOS>BOND
     1    10     9    1
     2    10     8    1
     3     8     1    1
     4     1     2    2
     5     1     3   am
     6     3     4    1
     7     4     5    1
     8     5     6    1
     9     6     7    1
    10     7    23    1
    11    23    24    1
    12    24    26    1
    13    26    27   ar
    14    27    28   ar
    15    28    29   ar
    16    29    30    1
    17    29    31   ar
    18    31    32   ar
    19    10    13    1
    20    13    14    1
    21    14    15   ar
    22    15    16   ar
    23    16    17    1
    24    16    18   ar
    25    18    19    1
    26    18    20   ar
    27    20    21   ar
    28    21    22    1
    29     7     3    1
    30    32    26   ar
    31    21    14   ar
    32     9    11    1
    33     9    12    1
    34    24    25    1
@<TRIPOS>MOLECULE
*****
 32 34 0 0 0
SMALL
GASTEIGER

@<TRIPOS>ATOM
      1 C          -8.1468  -16.4135   23.9179 C.2     1  UNL1        0.2270
      2 O          -7.5225  -16.6798   22.5803 O.2     1  UNL1       -0.2748
      3 N          -7.3027  -15.9168   25.0540 N.am    1  UNL1       -0.2794
      4 C          -7.7841  -15.6080   26.4408 C.3     1  UNL1        0.0935
      5 C          -6.6079  -15.1420   27.2468 C.3     1  UNL1        0.0233
      6 C          -5.3997  -15.1628   26.3581 C.3     1  UNL1        0.0233
      7 C          -5.8291  -15.6416   25.0030 C.3     1  UNL1        0.0949
      8 C          -9.6153  -16.6438   24.1194 C.3     1  UNL1        0.1010
      9 N          -9.8517  -18.5777   25.8383 N.3     1  UNL1       -0.3215
     10 C         -10.1180  -18.0116   24.4749 C.3     1  UNL1        0.0644
     11 H          -9.3207  -17.9029   26.3888 H       1  UNL1        0.1188
     12 H          -9.3157  -19.4409   25.7493 H       1  UNL1        0.1188
     13 C         -10.8869  -18.8135   23.4671 C.3     1  UNL1        0.0447
     14 C         -10.3054  -19.0654   22.1076 C.ar    1  UNL1        0.0090
     15 C          -8.8902  -19.5443   21.9742 C.ar    1  UNL1        0.0300
     16 C          -8.3087  -19.7963   20.6146 C.ar    1  UNL1        0.1672
     17 F          -6.8935  -20.2752   20.4811 F       1  UNL1       -0.2018
     18 C          -9.1425  -19.5694   19.3885 C.ar    1  UNL1        0.1696
     19 F          -8.5610  -19.8214   18.0289 F       1  UNL1       -0.2017
     20 C         -10.5577  -19.0905   19.5219 C.ar    1  UNL1        0.0612
     21 C         -11.1392  -18.8385   20.8814 C.ar    1  UNL1        0.1386
     22 F         -12.5544  -18.3597   21.0149 F       1  UNL1       -0.2044
     23 C          -4.9408  -15.8148   23.8068 C.3     1  UNL1        0.1082
     24 N          -4.7510  -17.1753   23.2043 N.pl3   1  UNL1       -0.3167
     25 H          -5.4129  -17.8845   23.3718 H       1  UNL1        0.1482
     26 C          -3.5526  -17.4552   22.3465 C.ar    1  UNL1        0.1287
     27 C          -3.1941  -18.8691   21.9971 C.ar    1  UNL1        0.0364
     28 C          -1.9958  -19.1489   21.1394 C.ar    1  UNL1        0.0341
     29 C          -1.1561  -18.0148   20.6309 C.ar    1  UNL1        0.1593
     30 F           0.0422  -18.2947   19.7731 F       1  UNL1       -0.2025
     31 C          -1.5146  -16.6008   20.9803 C.ar    1  UNL1        0.1298
     32 N          -2.7129  -16.3210   21.8380 N.ar    1  UNL1       -0.2270
@<TRIPOS>BOND
     1    10     9    1
     2    10     8    1
     3     8     1    1
     4     1     2    2
     5     1     3   am
     6     3     4    1
     7     4     5    1
     8     5     6    1
     9     6     7    1
    10     7    23    1
    11    23    24    1
    12    24    26    1
    13    26    27   ar
    14    27    28   ar
    15    28    29   ar
    16    29    30    1
    17    29    31   ar
    18    31    32   ar
    19    10    13    1
    20    13    14    1
    21    14    15   ar
    22    15    16   ar
    23    16    17    1
    24    16    18   ar
    25    18    19    1
    26    18    20   ar
    27    20    21   ar
    28    21    22    1
    29     7     3    1
    30    32    26   ar
    31    21    14   ar
    32     9    11    1
    33     9    12    1
    34    24    25    1
@<TRIPOS>MOLECULE
*****
 32 34 0 0 0
SMALL
GASTEIGER

@<TRIPOS>ATOM
      1 C          -7.4808  -19.2846   21.7485 C.2     1  UNL1        0.2270
      2 O          -7.2887  -18.1141   20.8303 O.2     1  UNL1       -0.2748
      3 N          -8.6921  -19.3551   22.6304 N.am    1  UNL1       -0.2794
      4 C          -9.0178  -20.4571   23.5947 C.3     1  UNL1        0.0935
      5 C         -10.3174  -20.1190   24.2632 C.3     1  UNL1        0.0233
      6 C         -10.7949  -18.8081   23.7121 C.3     1  UNL1        0.0233
      7 C          -9.7904  -18.3360   22.7031 C.3     1  UNL1        0.0949
      8 C          -6.4617  -20.3846   21.7848 C.3     1  UNL1        0.1010
      9 N          -6.6501  -21.4406   19.4185 N.3     1  UNL1       -0.3215
     10 C          -5.8138  -20.8489   20.5141 C.3     1  UNL1        0.0644
     11 H          -7.6289  -21.4500   19.7053 H       1  UNL1        0.1188
     12 H          -6.3412  -22.3947   19.2324 H       1  UNL1        0.1188
     13 C          -4.3295  -20.7216   20.3390 C.3     1  UNL1        0.0447
     14 C          -3.6332  -19.4543   20.7377 C.ar    1  UNL1        0.0090
     15 C          -3.7262  -18.9602   22.1510 C.ar    1  UNL1        0.0300
     16 C          -3.0299  -17.6929   22.5497 C.ar    1  UNL1        0.1672
     17 F          -3.1229  -17.1987   23.9630 F       1  UNL1       -0.2018
     18 C          -2.2406  -16.9196   21.5353 C.ar    1  UNL1        0.1696
     19 F          -1.5442  -15.6523   21.9341 F       1  UNL1       -0.2017
     20 C          -2.1475  -17.4137   20.1221 C.ar    1  UNL1        0.0612
     21 C          -2.8438  -18.6811   19.7233 C.ar    1  UNL1        0.1386
     22 F          -2.7509  -19.1752   18.3101 F       1  UNL1       -0.2044
     23 C          -9.8702  -17.0675   21.9064 C.3     1  UNL1        0.1082
     24 N          -9.5508  -15.7533   22.5550 N.pl3   1  UNL1       -0.3167
     25 H         -10.1015  -14.9610   22.3592 H       1  UNL1        0.1482
     26 C          -8.3923  -15.6460   23.5018 C.ar    1  UNL1        0.1287
     27 C          -8.6270  -15.6943   24.9825 C.ar    1  UNL1        0.0364
     28 C          -7.4686  -15.5870   25.9293 C.ar    1  UNL1        0.0341
     29 C          -6.0755  -15.4315   25.3954 C.ar    1  UNL1        0.1593
     30 F          -4.9170  -15.3242   26.3423 F       1  UNL1       -0.2025
     31 C          -5.8408  -15.3832   23.9147 C.ar    1  UNL1        0.1298
     32 N          -6.9992  -15.4905   22.9679 N.ar    1  UNL1       -0.2270
@<TRIPOS>BOND
     1    10     9    1
     2    10     8    1
     3     8     1    1
     4     1     2    2
     5     1     3   am
     6     3     4    1
     7     4     5    1
     8     5     6    1
     9     6     7    1
    10     7    23    1
    11    23    24    1
    12    24    26    1
    13    26    27   ar
    14    27    28   ar
    15    28    29   ar
    16    29    30    1
    17    29    31   ar
    18    31    32   ar
    19    10    13    1
    20    13    14    1
    21    14    15   ar
    22    15    16   ar
    23    16    17    1
    24    16    18   ar
    25    18    19    1
    26    18    20   ar
    27    20    21   ar
    28    21    22    1
    29     7     3    1
    30    32    26   ar
    31    21    14   ar
    32     9    11    1
    33     9    12    1
    34    24    25    1
@<TRIPOS>MOLECULE
*****
 32 34 0 0 0
SMALL
GASTEIGER

@<TRIPOS>ATOM
      1 C          -8.6537  -17.1897   24.5242 C.2     1  UNL1        0.2270
      2 O          -8.2457  -17.5524   23.1270 O.2     1  UNL1       -0.2748
      3 N          -7.7283  -16.3891   25.3918 N.am    1  UNL1       -0.2794
      4 C          -7.9978  -15.9536   26.8017 C.3     1  UNL1        0.0935
      5 C          -6.8069  -15.1787   27.2831 C.3     1  UNL1        0.0233
      6 C          -5.8016  -15.1353   26.1707 C.3     1  UNL1        0.0233
      7 C          -6.3710  -15.8833   25.0019 C.3     1  UNL1        0.0949
      8 C          -9.9870  -17.6276   25.0538 C.3     1  UNL1        0.1010
      9 N          -9.8966  -20.1967   25.4294 N.3     1  UNL1       -0.3215
     10 C         -10.4998  -19.0038   24.7489 C.3     1  UNL1        0.0644
     11 H          -9.1569  -19.8899   26.0612 H       1  UNL1        0.1188
     12 H          -9.5056  -20.8263   24.7286 H       1  UNL1        0.1188
     13 C         -11.6158  -19.1872   23.7637 C.3     1  UNL1        0.0447
     14 C         -11.6162  -18.4141   22.4783 C.ar    1  UNL1        0.0090
     15 C         -10.7577  -18.8626   21.3330 C.ar    1  UNL1        0.0300
     16 C         -10.7581  -18.0895   20.0477 C.ar    1  UNL1        0.1672
     17 F          -9.8995  -18.5380   18.9023 F       1  UNL1       -0.2018
     18 C         -11.6170  -16.8677   19.9076 C.ar    1  UNL1        0.1696
     19 F         -11.6174  -16.0946   18.6222 F       1  UNL1       -0.2017
     20 C         -12.4756  -16.4192   21.0528 C.ar    1  UNL1        0.0612
     21 C         -12.4752  -17.1923   22.3382 C.ar    1  UNL1        0.1386
     22 F         -13.3337  -16.7438   23.4835 F       1  UNL1       -0.2044
     23 C          -5.7008  -16.0895   23.6758 C.3     1  UNL1        0.1082
     24 N          -5.0793  -17.4145   23.3475 N.pl3   1  UNL1       -0.3167
     25 H          -5.4954  -18.2467   23.6694 H       1  UNL1        0.1482
     26 C          -3.8237  -17.4717   22.5287 C.ar    1  UNL1        0.1287
     27 C          -3.3343  -18.7862   21.9970 C.ar    1  UNL1        0.0364
     28 C          -2.0788  -18.8433   21.1782 C.ar    1  UNL1        0.0341
     29 C          -1.3127  -17.5861   20.8912 C.ar    1  UNL1        0.1593
     30 F          -0.0572  -17.6433   20.0723 F       1  UNL1       -0.2025
     31 C          -1.8021  -16.2717   21.4229 C.ar    1  UNL1        0.1298
     32 N          -3.0576  -16.2145   22.2416 N.ar    1  UNL1       -0.2270
@<TRIPOS>BOND
     1    10     9    1
     2    10     8    1
     3     8     1    1
     4     1     2    2
     5     1     3   am
     6     3     4    1
     7     4     5    1
     8     5     6    1
     9     6     7    1
    10     7    23    1
    11    23    24    1
    12    24    26    1
    13    26    27   ar
    14    27    28   ar
    15    28    29   ar
    16    29    30    1
    17    29    31   ar
    18    31    32   ar
    19    10    13    1
    20    13    14    1
    21    14    15   ar
    22    15    16   ar
    23    16    17    1
    24    16    18   ar
    25    18    19    1
    26    18    20   ar
    27    20    21   ar
    28    21    22    1
    29     7     3    1
    30    32    26   ar
    31    21    14   ar
    32     9    11    1
    33     9    12    1
    34    24    25    1
@<TRIPOS>MOLECULE
*****
 32 34 0 0 0
SMALL
GASTEIGER

@<TRIPOS>ATOM
      1 C          -6.0865  -19.3526   21.5230 C.2     1  UNL1        0.2270
      2 O          -6.8086  -18.7485   22.6908 O.2     1  UNL1       -0.2748
      3 N          -4.6222  -19.0912   21.3298 N.am    1  UNL1       -0.2794
      4 C          -3.7709  -19.6239   20.2155 C.3     1  UNL1        0.0935
      5 C          -2.3746  -19.1131   20.4141 C.3     1  UNL1        0.0233
      6 C          -2.3629  -18.2647   21.6510 C.3     1  UNL1        0.0233
      7 C          -3.7519  -18.2511   22.2169 C.3     1  UNL1        0.0949
      8 C          -6.8288  -20.2180   20.5484 C.3     1  UNL1        0.1010
      9 N          -8.0874  -19.0196   18.6171 N.3     1  UNL1       -0.3215
     10 C          -8.1094  -19.7314   19.9373 C.3     1  UNL1        0.0644
     11 H          -7.1263  -18.9551   18.2816 H       1  UNL1        0.1188
     12 H          -8.4718  -18.0816   18.7301 H       1  UNL1        0.1188
     13 C          -9.4119  -19.9565   20.6463 C.3     1  UNL1        0.0447
     14 C         -10.1908  -18.7879   21.1731 C.ar    1  UNL1        0.0090
     15 C         -10.8733  -17.8510   20.2211 C.ar    1  UNL1        0.0300
     16 C         -11.6523  -16.6824   20.7479 C.ar    1  UNL1        0.1672
     17 F         -12.3349  -15.7454   19.7960 F       1  UNL1       -0.2018
     18 C         -11.7487  -16.4506   22.2268 C.ar    1  UNL1        0.1696
     19 F         -12.5276  -15.2820   22.7536 F       1  UNL1       -0.2017
     20 C         -11.0661  -17.3875   23.1788 C.ar    1  UNL1        0.0612
     21 C         -10.2872  -18.5562   22.6520 C.ar    1  UNL1        0.1386
     22 F          -9.6046  -19.4931   23.6039 F       1  UNL1       -0.2044
     23 C          -4.1933  -17.5250   23.4531 C.3     1  UNL1        0.1082
     24 N          -5.0539  -16.3020   23.3374 N.pl3   1  UNL1       -0.3167
     25 H          -4.9999  -15.7362   22.5335 H       1  UNL1        0.1482
     26 C          -5.9969  -15.9408   24.4467 C.ar    1  UNL1        0.1287
     27 C          -5.4668  -15.6704   25.8236 C.ar    1  UNL1        0.0364
     28 C          -6.4098  -15.3092   26.9327 C.ar    1  UNL1        0.0341
     29 C          -7.8829  -15.2185   26.6650 C.ar    1  UNL1        0.1593
     30 F          -8.8259  -14.8573   27.7743 F       1  UNL1       -0.2025
     31 C          -8.4131  -15.4889   25.2881 C.ar    1  UNL1        0.1298
     32 N          -7.4701  -15.8500   24.1790 N.ar    1  UNL1       -0.2270
@<TRIPOS>BOND
     1    10     9    1
     2    10     8    1
     3     8     1    1
     4     1     2    2
     5     1     3   am
     6     3     4    1
     7     4     5    1
     8     5     6    1
     9     6     7    1
    10     7    23    1
    11    23    24    1
    12    24    26    1
    13    26    27   ar
    14    27    28   ar
    15    28    29   ar
    16    29    30    1
    17    29    31   ar
    18    31    32   ar
    19    10    13    1
    20    13    14    1
    21    14    15   ar
    22    15    16   ar
    23    16    17    1
    24    16    18   ar
    25    18    19    1
    26    18    20   ar
    27    20    21   ar
    28    21    22    1
    29     7     3    1
    30    32    26   ar
    31    21    14   ar
    32     9    11    1
    33     9    12    1
    34    24    25    1
@<TRIPOS>MOLECULE
*****
 32 34 0 0 0
SMALL
GASTEIGER

@<TRIPOS>ATOM
      1 C          -8.7485  -18.5191   22.0807 C.2     1  UNL1        0.2270
      2 O          -7.3297  -18.3814   22.5478 O.2     1  UNL1       -0.2748
      3 N          -9.0438  -19.1660   20.7600 N.am    1  UNL1       -0.2794
      4 C         -10.4048  -19.3728   20.1641 C.3     1  UNL1        0.0935
      5 C         -10.2321  -20.0543   18.8391 C.3     1  UNL1        0.0233
      6 C          -8.7644  -20.2688   18.6160 C.3     1  UNL1        0.0233
      7 C          -8.0300  -19.7199   19.8031 C.3     1  UNL1        0.0949
      8 C          -9.8719  -18.0099   22.9342 C.3     1  UNL1        0.1010
      9 N         -10.8736  -15.9632   21.6861 N.3     1  UNL1       -0.3215
     10 C         -10.2340  -16.5545   22.9073 C.3     1  UNL1        0.0644
     11 H         -10.9872  -16.6877   20.9772 H       1  UNL1        0.1188
     12 H         -10.2814  -15.2182   21.3191 H       1  UNL1        0.1188
     13 C          -9.9565  -15.6904   24.1016 C.3     1  UNL1        0.0447
     14 C          -8.5659  -15.6023   24.6568 C.ar    1  UNL1        0.0090
     15 C          -8.3199  -15.8776   26.1106 C.ar    1  UNL1        0.0300
     16 C          -6.9292  -15.7895   26.6658 C.ar    1  UNL1        0.1672
     17 F          -6.6831  -16.0649   28.1197 F       1  UNL1       -0.2018
     18 C          -5.7845  -15.4260   25.7672 C.ar    1  UNL1        0.1696
     19 F          -4.3939  -15.3378   26.3224 F       1  UNL1       -0.2017
     20 C          -6.0305  -15.1506   24.3133 C.ar    1  UNL1        0.0612
     21 C          -7.4212  -15.2387   23.7581 C.ar    1  UNL1        0.1386
     22 F          -7.6672  -14.9634   22.3043 F       1  UNL1       -0.2044
     23 C          -6.5428  -19.7240   19.9991 C.3     1  UNL1        0.1082
     24 N          -5.7601  -18.4560   19.8267 N.pl3   1  UNL1       -0.3167
     25 H          -6.2305  -17.6007   19.6988 H       1  UNL1        0.1482
     26 C          -4.2606  -18.4913   19.8493 C.ar    1  UNL1        0.1287
     27 C          -3.5462  -19.4144   20.7913 C.ar    1  UNL1        0.0364
     28 C          -2.0468  -19.4496   20.8138 C.ar    1  UNL1        0.0341
     29 C          -1.2619  -18.5617   19.8943 C.ar    1  UNL1        0.1593
     30 F           0.2376  -18.5970   19.9168 F       1  UNL1       -0.2025
     31 C          -1.9763  -17.6386   18.9523 C.ar    1  UNL1        0.1298
     32 N          -3.4757  -17.6034   18.9298 N.ar    1  UNL1       -0.2270
@<TRIPOS>BOND
     1    10     9    1
     2    10     8    1
     3     8     1    1
     4     1     2    2
     5     1     3   am
     6     3     4    1
     7     4     5    1
     8     5     6    1
     9     6     7    1
    10     7    23    1
    11    23    24    1
    12    24    26    1
    13    26    27   ar
    14    27    28   ar
    15    28    29   ar
    16    29    30    1
    17    29    31   ar
    18    31    32   ar
    19    10    13    1
    20    13    14    1
    21    14    15   ar
    22    15    16   ar
    23    16    17    1
    24    16    18   ar
    25    18    19    1
    26    18    20   ar
    27    20    21   ar
    28    21    22    1
    29     7     3    1
    30    32    26   ar
    31    21    14   ar
    32     9    11    1
    33     9    12    1
    34    24    25    1
@<TRIPOS>MOLECULE
*****
 32 34 0 0 0
SMALL
GASTEIGER

@<TRIPOS>ATOM
      1 C          -8.4191  -17.3669   24.3405 C.2     1  UNL1        0.2270
      2 O          -7.8215  -17.6978   23.0050 O.2     1  UNL1       -0.2748
      3 N          -7.6626  -16.5059   25.3081 N.am    1  UNL1       -0.2794
      4 C          -8.1296  -16.0929   26.6725 C.3     1  UNL1        0.0935
      5 C          -7.0619  -15.2383   27.2889 C.3     1  UNL1        0.0233
      6 C          -5.9351  -15.1233   26.3055 C.3     1  UNL1        0.0233
      7 C          -6.3063  -15.9066   25.0814 C.3     1  UNL1        0.0949
      8 C          -9.7732  -17.8971   24.7083 C.3     1  UNL1        0.1010
      9 N          -9.9142  -20.3815   25.4553 N.3     1  UNL1       -0.3215
     10 C         -10.1255  -19.3247   24.4120 C.3     1  UNL1        0.0644
     11 H          -9.5272  -19.9553   26.2974 H       1  UNL1        0.1188
     12 H          -9.2653  -21.0842   25.1010 H       1  UNL1        0.1188
     13 C         -10.6892  -19.6956   23.0723 C.3     1  UNL1        0.0447
     14 C         -11.1209  -18.6227   22.1171 C.ar    1  UNL1        0.0090
     15 C         -11.9279  -17.4589   22.6113 C.ar    1  UNL1        0.0300
     16 C         -12.3597  -16.3860   21.6561 C.ar    1  UNL1        0.1672
     17 F         -13.1667  -15.2221   22.1503 F       1  UNL1       -0.2018
     18 C         -11.9845  -16.4770   20.2066 C.ar    1  UNL1        0.1696
     19 F         -12.4162  -15.4041   19.2514 F       1  UNL1       -0.2017
     20 C         -11.1775  -17.6408   19.7124 C.ar    1  UNL1        0.0612
     21 C         -10.7457  -18.7137   20.6676 C.ar    1  UNL1        0.1386
     22 F          -9.9388  -19.8776   20.1735 F       1  UNL1       -0.2044
     23 C          -5.4684  -16.0632   23.8470 C.3     1  UNL1        0.1082
     24 N          -4.6090  -17.2802   23.6735 N.pl3   1  UNL1       -0.3167
     25 H          -4.6204  -17.9920   24.3535 H       1  UNL1        0.1482
     26 C          -3.7320  -17.4128   22.4637 C.ar    1  UNL1        0.1287
     27 C          -2.5601  -16.4941   22.2826 C.ar    1  UNL1        0.0364
     28 C          -1.6832  -16.6267   21.0729 C.ar    1  UNL1        0.0341
     29 C          -1.9781  -17.6779   20.0444 C.ar    1  UNL1        0.1593
     30 F          -1.1012  -17.8105   18.8346 F       1  UNL1       -0.2025
     31 C          -3.1500  -18.5966   20.2255 C.ar    1  UNL1        0.1298
     32 N          -4.0269  -18.4640   21.4352 N.ar    1  UNL1       -0.2270
@<TRIPOS>BOND
     1    10     9    1
     2    10     8    1
     3     8     1    1
     4     1     2    2
     5     1     3   am
     6     3     4    1
     7     4     5    1
     8     5     6    1
     9     6     7    1
    10     7    23    1
    11    23    24    1
    12    24    26    1
    13    26    27   ar
    14    27    28   ar
    15    28    29   ar
    16    29    30    1
    17    29    31   ar
    18    31    32   ar
    19    10    13    1
    20    13    14    1
    21    14    15   ar
    22    15    16   ar
    23    16    17    1
    24    16    18   ar
    25    18    19    1
    26    18    20   ar
    27    20    21   ar
    28    21    22    1
    29     7     3    1
    30    32    26   ar
    31    21    14   ar
    32     9    11    1
    33     9    12    1
    34    24    25    1
@<TRIPOS>MOLECULE
*****
 32 34 0 0 0
SMALL
GASTEIGER

@<TRIPOS>ATOM
      1 C          -8.8608  -18.9633   22.2460 C.2     1  UNL1        0.2270
      2 O          -7.4843  -18.8057   22.8209 O.2     1  UNL1       -0.2748
      3 N          -9.0331  -19.4019   20.8219 N.am    1  UNL1       -0.2794
      4 C         -10.3399  -19.6020   20.1130 C.3     1  UNL1        0.0935
      5 C         -10.0433  -20.0412   18.7097 C.3     1  UNL1        0.0233
      6 C          -8.5534  -20.1124   18.5513 C.3     1  UNL1        0.0233
      7 C          -7.9291  -19.7173   19.8567 C.3     1  UNL1        0.0949
      8 C         -10.0649  -18.6824   23.0952 C.3     1  UNL1        0.1010
      9 N          -9.9256  -19.1147   25.6532 N.3     1  UNL1       -0.3215
     10 C          -9.8930  -18.1651   24.4926 C.3     1  UNL1        0.0644
     11 H         -10.0723  -20.0645   25.3114 H       1  UNL1        0.1188
     12 H         -10.6871  -18.8580   26.2813 H       1  UNL1        0.1188
     13 C          -9.6884  -16.6981   24.7295 C.3     1  UNL1        0.0447
     14 C          -8.3352  -16.1832   25.1215 C.ar    1  UNL1        0.0090
     15 C          -7.3702  -15.7308   24.0660 C.ar    1  UNL1        0.0300
     16 C          -6.0171  -15.2158   24.4581 C.ar    1  UNL1        0.1672
     17 F          -5.0519  -14.7634   23.4026 F       1  UNL1       -0.2018
     18 C          -5.6289  -15.1533   25.9057 C.ar    1  UNL1        0.1696
     19 F          -4.2757  -14.6383   26.2977 F       1  UNL1       -0.2017
     20 C          -6.5939  -15.6056   26.9612 C.ar    1  UNL1        0.0612
     21 C          -7.9471  -16.1206   26.5691 C.ar    1  UNL1        0.1386
     22 F          -8.9121  -16.5730   27.6245 F       1  UNL1       -0.2044
     23 C          -6.4588  -19.6496   20.1462 C.3     1  UNL1        0.1082
     24 N          -5.6654  -18.4495   19.7216 N.pl3   1  UNL1       -0.3167
     25 H          -6.1282  -17.6400   19.4058 H       1  UNL1        0.1482
     26 C          -4.1668  -18.4828   19.7784 C.ar    1  UNL1        0.1287
     27 C          -3.3608  -17.7343   18.7585 C.ar    1  UNL1        0.0364
     28 C          -1.8623  -17.7676   18.8152 C.ar    1  UNL1        0.0341
     29 C          -1.1697  -18.5494   19.8919 C.ar    1  UNL1        0.1593
     30 F           0.3289  -18.5826   19.9486 F       1  UNL1       -0.2025
     31 C          -1.9757  -19.2979   20.9117 C.ar    1  UNL1        0.1298
     32 N          -3.4742  -19.2646   20.8550 N.ar    1  UNL1       -0.2270
@<TRIPOS>BOND
     1    10     9    1
     2    10     8    1
     3     8     1    1
     4     1     2    2
     5     1     3   am
     6     3     4    1
     7     4     5    1
     8     5     6    1
     9     6     7    1
    10     7    23    1
    11    23    24    1
    12    24    26    1
    13    26    27   ar
    14    27    28   ar
    15    28    29   ar
    16    29    30    1
    17    29    31   ar
    18    31    32   ar
    19    10    13    1
    20    13    14    1
    21    14    15   ar
    22    15    16   ar
    23    16    17    1
    24    16    18   ar
    25    18    19    1
    26    18    20   ar
    27    20    21   ar
    28    21    22    1
    29     7     3    1
    30    32    26   ar
    31    21    14   ar
    32     9    11    1
    33     9    12    1
    34    24    25    1
@<TRIPOS>MOLECULE
*****
 32 34 0 0 0
SMALL
GASTEIGER

@<TRIPOS>ATOM
      1 C          -9.8001  -19.9309   22.9189 C.2     1  UNL1        0.2270
      2 O          -8.7787  -20.1885   23.9867 O.2     1  UNL1       -0.2748
      3 N          -9.3651  -19.7310   21.4973 N.am    1  UNL1       -0.2794
      4 C         -10.2669  -19.4662   20.3282 C.3     1  UNL1        0.0935
      5 C          -9.4110  -19.3323   19.1036 C.3     1  UNL1        0.0233
      6 C          -7.9803  -19.5143   19.5159 C.3     1  UNL1        0.0233
      7 C          -7.9519  -19.7607   20.9952 C.3     1  UNL1        0.0949
      8 C         -11.2567  -19.8733   23.2726 C.3     1  UNL1        0.1010
      9 N         -12.6909  -18.7277   25.1112 N.3     1  UNL1       -0.3215
     10 C         -11.8309  -18.6307   23.8860 C.3     1  UNL1        0.0644
     11 H         -12.7791  -19.7053   25.3882 H       1  UNL1        0.1188
     12 H         -13.6153  -18.3470   24.9087 H       1  UNL1        0.1188
     13 C         -11.5452  -17.2913   23.2744 C.3     1  UNL1        0.0447
     14 C         -10.1615  -16.7161   23.3410 C.ar    1  UNL1        0.0090
     15 C          -9.4374  -16.6540   24.6532 C.ar    1  UNL1        0.0300
     16 C          -8.0537  -16.0789   24.7199 C.ar    1  UNL1        0.1672
     17 F          -7.3296  -16.0167   26.0321 F       1  UNL1       -0.2018
     18 C          -7.3940  -15.5657   23.4743 C.ar    1  UNL1        0.1696
     19 F          -6.0103  -14.9905   23.5409 F       1  UNL1       -0.2017
     20 C          -8.1180  -15.6278   22.1620 C.ar    1  UNL1        0.0612
     21 C          -9.5018  -16.2030   22.0954 C.ar    1  UNL1        0.1386
     22 F         -10.2258  -16.2651   20.7833 F       1  UNL1       -0.2044
     23 C          -6.7257  -19.9955   21.8266 C.3     1  UNL1        0.1082
     24 N          -5.3891  -20.1525   21.1641 N.pl3   1  UNL1       -0.3167
     25 H          -5.1855  -20.9697   20.6542 H       1  UNL1        0.1482
     26 C          -4.3628  -19.0646   21.2787 C.ar    1  UNL1        0.1287
     27 C          -4.1038  -18.4144   22.6054 C.ar    1  UNL1        0.0364
     28 C          -3.0775  -17.3265   22.7198 C.ar    1  UNL1        0.0341
     29 C          -2.3102  -16.8888   21.5076 C.ar    1  UNL1        0.1593
     30 F          -1.2838  -15.8008   21.6221 F       1  UNL1       -0.2025
     31 C          -2.5691  -17.5389   20.1809 C.ar    1  UNL1        0.1298
     32 N          -3.5954  -18.6268   20.0664 N.ar    1  UNL1       -0.2270
@<TRIPOS>BOND
     1    10     9    1
     2    10     8    1
     3     8     1    1
     4     1     2    2
     5     1     3   am
     6     3     4    1
     7     4     5    1
     8     5     6    1
     9     6     7    1
    10     7    23    1
    11    23    24    1
    12    24    26    1
    13    26    27   ar
    14    27    28   ar
    15    28    29   ar
    16    29    30    1
    17    29    31   ar
    18    31    32   ar
    19    10    13    1
    20    13    14    1
    21    14    15   ar
    22    15    16   ar
    23    16    17    1
    24    16    18   ar
    25    18    19    1
    26    18    20   ar
    27    20    21   ar
    28    21    22    1
    29     7     3    1
    30    32    26   ar
    31    21    14   ar
    32     9    11    1
    33     9    12    1
    34    24    25    1
