@<TRIPOS>MOLECULE
*****
 20 21 0 0 0
SMALL
GASTEIGER

@<TRIPOS>ATOM
      1 C         -11.0730  -17.6874   23.4163 C.3     1  UNL1        0.0891
      2 C         -12.2945  -18.5081   23.7067 C.3     1  UNL1        0.0149
      3 C         -11.0066  -18.8032   24.4167 C.3     1  UNL1        0.0282
      4 C          -9.6577  -17.1947   23.4812 C.ar    1  UNL1       -0.0146
      5 C          -8.6027  -17.8291   22.6242 C.ar    1  UNL1       -0.0038
      6 C          -7.1874  -17.3364   22.6891 C.ar    1  UNL1       -0.0003
      7 C          -6.8272  -16.2093   23.6109 C.ar    1  UNL1       -0.0000
      8 C          -7.8821  -15.5750   24.4680 C.ar    1  UNL1       -0.0003
      9 C          -9.2974  -16.0676   24.4031 C.ar    1  UNL1       -0.0038
     10 C         -10.2245  -19.6176   25.4042 C.3     1  UNL1        0.0659
     11 N          -9.7497  -20.9915   25.0341 N.3     1  UNL1       -0.3211
     12 H         -10.5537  -21.6058   24.9048 H       1  UNL1        0.1189
     13 H          -9.1576  -21.3587   25.7791 H       1  UNL1        0.1189
     14 N         -11.8172  -17.1969   20.9759 N.am    1  UNL1       -0.2793
     15 C         -11.6309  -16.7428   22.3934 C.2     1  UNL1        0.2285
     16 O         -12.0025  -15.3441   22.7878 O.2     1  UNL1       -0.2746
     17 C         -11.4482  -15.4609   19.0785 C.3     1  UNL1        0.0233
     18 C         -12.3751  -16.2523   19.9530 C.3     1  UNL1        0.0935
     19 C         -11.4456  -18.5955   20.5815 C.3     1  UNL1        0.0935
     20 C         -10.2955  -18.8309   19.6477 C.3     1  UNL1        0.0233
@<TRIPOS>BOND
     1    17    18    1
     2    18    14    1
     3    14    19    1
     4    19    20    1
     5    14    15   am
     6    15    16    2
     7    15     1    1
     8     1     4    1
     9     4     5   ar
    10     5     6   ar
    11     6     7   ar
    12     7     8   ar
    13     8     9   ar
    14     1     2    1
    15     2     3    1
    16     3    10    1
    17    10    11    1
    18     3     1    1
    19     9     4   ar
    20    11    12    1
    21    11    13    1
@<TRIPOS>MOLECULE
*****
 20 21 0 0 0
SMALL
GASTEIGER

@<TRIPOS>ATOM
      1 C         -10.1599  -18.8325   22.0841 C.3     1  UNL1        0.0891
      2 C         -10.8800  -20.1062   21.7536 C.3     1  UNL1        0.0149
      3 C         -10.0450  -20.0176   22.9966 C.3     1  UNL1        0.0282
      4 C          -9.2956  -17.8521   22.8203 C.ar    1  UNL1       -0.0146
      5 C          -9.8036  -17.1946   24.0691 C.ar    1  UNL1       -0.0038
      6 C          -8.9393  -16.2142   24.8052 C.ar    1  UNL1       -0.0003
      7 C          -7.5671  -15.8915   24.2926 C.ar    1  UNL1       -0.0000
      8 C          -7.0591  -16.5490   23.0437 C.ar    1  UNL1       -0.0003
      9 C          -7.9234  -17.5294   22.3076 C.ar    1  UNL1       -0.0038
     10 C          -9.4966  -20.6505   24.2410 C.3     1  UNL1        0.0659
     11 N         -10.1896  -20.4442   25.5553 N.3     1  UNL1       -0.3211
     12 H         -10.1275  -19.4616   25.8219 H       1  UNL1        0.1189
     13 H          -9.7424  -21.0191   26.2694 H       1  UNL1        0.1189
     14 N         -11.6546  -16.9597   21.0801 N.am    1  UNL1       -0.2793
     15 C         -10.5749  -17.9880   20.9160 C.2     1  UNL1        0.2285
     16 O          -9.9102  -18.1715   19.5840 O.2     1  UNL1       -0.2746
     17 C         -11.0617  -15.2478   19.2179 C.3     1  UNL1        0.0233
     18 C         -12.0697  -16.1151   19.9121 C.3     1  UNL1        0.0935
     19 C         -12.3193  -16.7761   22.4122 C.3     1  UNL1        0.0935
     20 C         -13.3333  -17.7739   22.8882 C.3     1  UNL1        0.0233
@<TRIPOS>BOND
     1    17    18    1
     2    18    14    1
     3    14    19    1
     4    19    20    1
     5    14    15   am
     6    15    16    2
     7    15     1    1
     8     1     4    1
     9     4     5   ar
    10     5     6   ar
    11     6     7   ar
    12     7     8   ar
    13     8     9   ar
    14     1     2    1
    15     2     3    1
    16     3    10    1
    17    10    11    1
    18     3     1    1
    19     9     4   ar
    20    11    12    1
    21    11    13    1
@<TRIPOS>MOLECULE
*****
 20 21 0 0 0
SMALL
GASTEIGER

@<TRIPOS>ATOM
      1 C         -10.9072  -17.3321   22.0870 C.3     1  UNL1        0.0891
      2 C         -11.8413  -16.2514   22.5447 C.3     1  UNL1        0.0149
      3 C         -11.4961  -16.3780   21.0904 C.3     1  UNL1        0.0282
      4 C         -10.0775  -18.1843   21.1729 C.ar    1  UNL1       -0.0146
      5 C         -10.7396  -19.0039   20.1053 C.ar    1  UNL1       -0.0038
      6 C          -9.9100  -19.8561   19.1914 C.ar    1  UNL1       -0.0003
      7 C          -8.4182  -19.8887   19.3450 C.ar    1  UNL1       -0.0000
      8 C          -7.7561  -19.0691   20.4126 C.ar    1  UNL1       -0.0003
      9 C          -8.5858  -18.2169   21.3266 C.ar    1  UNL1       -0.0038
     10 C         -11.6367  -15.9004   19.6755 C.3     1  UNL1        0.0659
     11 N         -10.5975  -14.9957   19.0826 N.3     1  UNL1       -0.3211
     12 H         -10.6110  -14.0985   19.5678 H       1  UNL1        0.1189
     13 H         -10.7979  -14.8501   18.0931 H       1  UNL1        0.1189
     14 N          -9.7371  -17.2949   24.4063 N.am    1  UNL1       -0.2793
     15 C         -10.6064  -17.9902   23.4009 C.2     1  UNL1        0.2285
     16 O         -11.1748  -19.3436   23.7095 O.2     1  UNL1       -0.2746
     17 C          -8.8623  -17.1477   26.8483 C.3     1  UNL1        0.0233
     18 C          -9.4362  -17.9529   25.7202 C.3     1  UNL1        0.0935
     19 C          -9.1686  -15.9415   24.0978 C.3     1  UNL1        0.0935
     20 C          -7.7077  -15.7937   23.7913 C.3     1  UNL1        0.0233
@<TRIPOS>BOND
     1    17    18    1
     2    18    14    1
     3    14    19    1
     4    19    20    1
     5    14    15   am
     6    15    16    2
     7    15     1    1
     8     1     4    1
     9     4     5   ar
    10     5     6   ar
    11     6     7   ar
    12     7     8   ar
    13     8     9   ar
    14     1     2    1
    15     2     3    1
    16     3    10    1
    17    10    11    1
    18     3     1    1
    19     9     4   ar
    20    11    12    1
    21    11    13    1
@<TRIPOS>MOLECULE
*****
 20 21 0 0 0
SMALL
GASTEIGER

@<TRIPOS>ATOM
      1 C          -8.2325  -17.8656   21.9973 C.3     1  UNL1        0.0891
      2 C          -7.9640  -18.8465   20.8947 C.3     1  UNL1        0.0149
      3 C          -6.8986  -18.5458   21.9070 C.3     1  UNL1        0.0282
      4 C          -8.0112  -17.0188   23.2155 C.ar    1  UNL1       -0.0146
      5 C          -8.8681  -17.2147   24.4309 C.ar    1  UNL1       -0.0038
      6 C          -8.6467  -16.3679   25.6490 C.ar    1  UNL1       -0.0003
      7 C          -7.5684  -15.3252   25.6517 C.ar    1  UNL1       -0.0000
      8 C          -6.7115  -15.1292   24.4363 C.ar    1  UNL1       -0.0003
      9 C          -6.9329  -15.9760   23.2182 C.ar    1  UNL1       -0.0038
     10 C          -5.5135  -18.7649   22.4394 C.3     1  UNL1        0.0659
     11 N          -4.3257  -18.2847   21.6593 N.3     1  UNL1       -0.3211
     12 H          -4.2579  -18.8081   20.7865 H       1  UNL1        0.1189
     13 H          -3.4780  -18.4278   22.2083 H       1  UNL1        0.1189
     14 N         -10.7559  -18.4675   21.8542 N.am    1  UNL1       -0.2793
     15 C          -9.6433  -17.4794   21.6646 C.2     1  UNL1        0.2285
     16 O          -9.9415  -16.1053   21.1423 O.2     1  UNL1       -0.2746
     17 C         -13.0966  -17.6295   22.6082 C.3     1  UNL1        0.0233
     18 C         -12.1666  -18.0814   21.5215 C.3     1  UNL1        0.0935
     19 C         -10.4576  -19.8416   22.3765 C.3     1  UNL1        0.0935
     20 C         -10.5868  -20.1311   23.8427 C.3     1  UNL1        0.0233
@<TRIPOS>BOND
     1    17    18    1
     2    18    14    1
     3    14    19    1
     4    19    20    1
     5    14    15   am
     6    15    16    2
     7    15     1    1
     8     1     4    1
     9     4     5   ar
    10     5     6   ar
    11     6     7   ar
    12     7     8   ar
    13     8     9   ar
    14     1     2    1
    15     2     3    1
    16     3    10    1
    17    10    11    1
    18     3     1    1
    19     9     4   ar
    20    11    12    1
    21    11    13    1
@<TRIPOS>MOLECULE
*****
 20 21 0 0 0
SMALL
GASTEIGER

@<TRIPOS>ATOM
      1 C          -9.1812  -17.0253   22.8643 C.3     1  UNL1        0.0891
      2 C          -7.8158  -16.4043   22.8680 C.3     1  UNL1        0.0149
      3 C          -8.6856  -16.3107   24.0865 C.3     1  UNL1        0.0282
      4 C         -10.5382  -17.4494   23.3427 C.ar    1  UNL1       -0.0146
      5 C         -11.7643  -16.7482   22.8379 C.ar    1  UNL1       -0.0038
      6 C         -13.1212  -17.1723   23.3163 C.ar    1  UNL1       -0.0003
      7 C         -13.2520  -18.2975   24.2996 C.ar    1  UNL1       -0.0000
      8 C         -12.0258  -18.9986   24.8045 C.ar    1  UNL1       -0.0003
      9 C         -10.6689  -18.5746   24.3260 C.ar    1  UNL1       -0.0038
     10 C          -8.9018  -15.8440   25.4956 C.3     1  UNL1        0.0659
     11 N          -7.8238  -15.0806   26.2064 N.3     1  UNL1       -0.3211
     12 H          -7.0158  -15.6865   26.3492 H       1  UNL1        0.1189
     13 H          -8.1730  -14.7608   27.1099 H       1  UNL1        0.1189
     14 N          -8.4907  -18.8775   21.1783 N.am    1  UNL1       -0.2793
     15 C          -9.2055  -17.5928   21.4760 C.2     1  UNL1        0.2285
     16 O          -9.9446  -16.8756   20.3854 O.2     1  UNL1       -0.2746
     17 C          -9.8035  -19.9440   19.2062 C.3     1  UNL1        0.0233
     18 C          -8.5150  -19.4450   19.7900 C.3     1  UNL1        0.0935
     19 C          -7.7516  -19.5946   22.2689 C.3     1  UNL1        0.0935
     20 C          -6.4402  -20.2604   21.9738 C.3     1  UNL1        0.0233
@<TRIPOS>BOND
     1    17    18    1
     2    18    14    1
     3    14    19    1
     4    19    20    1
     5    14    15   am
     6    15    16    2
     7    15     1    1
     8     1     4    1
     9     4     5   ar
    10     5     6   ar
    11     6     7   ar
    12     7     8   ar
    13     8     9   ar
    14     1     2    1
    15     2     3    1
    16     3    10    1
    17    10    11    1
    18     3     1    1
    19     9     4   ar
    20    11    12    1
    21    11    13    1
@<TRIPOS>MOLECULE
*****
 20 21 0 0 0
SMALL
GASTEIGER

@<TRIPOS>ATOM
      1 C          -9.3710  -17.4822   23.3637 C.3     1  UNL1        0.0891
      2 C          -9.5076  -16.4098   24.4036 C.3     1  UNL1        0.0149
      3 C          -8.2463  -16.5180   23.5989 C.3     1  UNL1        0.0282
      4 C          -8.7716  -18.3209   22.2741 C.ar    1  UNL1       -0.0146
      5 C          -7.4888  -19.0597   22.5160 C.ar    1  UNL1       -0.0038
      6 C          -6.8894  -19.8984   21.4263 C.ar    1  UNL1       -0.0003
      7 C          -7.5729  -19.9983   20.0949 C.ar    1  UNL1       -0.0000
      8 C          -8.8557  -19.2596   19.8530 C.ar    1  UNL1       -0.0003
      9 C          -9.4551  -18.4209   20.9426 C.ar    1  UNL1       -0.0038
     10 C          -6.8687  -16.0238   23.2700 C.3     1  UNL1        0.0659
     11 N          -6.3677  -14.7441   23.8712 N.3     1  UNL1       -0.3211
     12 H          -6.9187  -13.9628   23.5158 H       1  UNL1        0.1189
     13 H          -5.3880  -14.6112   23.6202 H       1  UNL1        0.1189
     14 N         -11.9364  -17.5033   22.9538 N.am    1  UNL1       -0.2793
     15 C         -10.7039  -18.1551   23.5070 C.2     1  UNL1        0.2285
     16 O         -10.8043  -19.4799   24.2033 O.2     1  UNL1       -0.2746
     17 C         -14.0278  -18.0712   24.3868 C.3     1  UNL1        0.0233
     18 C         -13.2693  -18.1762   23.0969 C.3     1  UNL1        0.0935
     19 C         -11.8360  -16.1785   22.2574 C.3     1  UNL1        0.0935
     20 C         -12.0903  -16.0856   20.7820 C.3     1  UNL1        0.0233
@<TRIPOS>BOND
     1    17    18    1
     2    18    14    1
     3    14    19    1
     4    19    20    1
     5    14    15   am
     6    15    16    2
     7    15     1    1
     8     1     4    1
     9     4     5   ar
    10     5     6   ar
    11     6     7   ar
    12     7     8   ar
    13     8     9   ar
    14     1     2    1
    15     2     3    1
    16     3    10    1
    17    10    11    1
    18     3     1    1
    19     9     4   ar
    20    11    12    1
    21    11    13    1
@<TRIPOS>MOLECULE
*****
 20 21 0 0 0
SMALL
GASTEIGER

@<TRIPOS>ATOM
      1 C          -8.1649  -16.1176   23.7433 C.3     1  UNL1        0.0891
      2 C          -9.2353  -15.4352   24.5423 C.3     1  UNL1        0.0149
      3 C          -7.9657  -15.8741   25.2100 C.3     1  UNL1        0.0282
      4 C          -6.8690  -16.7975   23.4138 C.ar    1  UNL1       -0.0146
      5 C          -5.5693  -16.1805   23.8380 C.ar    1  UNL1       -0.0038
      6 C          -4.2735  -16.8604   23.5085 C.ar    1  UNL1       -0.0003
      7 C          -4.2774  -18.1573   22.7548 C.ar    1  UNL1       -0.0000
      8 C          -5.5771  -18.7743   22.3306 C.ar    1  UNL1       -0.0003
      9 C          -6.8729  -18.0944   22.6601 C.ar    1  UNL1       -0.0038
     10 C          -7.1178  -15.9869   26.4421 C.3     1  UNL1        0.0659
     11 N          -6.6014  -14.7487   27.1131 N.3     1  UNL1       -0.3211
     12 H          -5.9418  -14.2767   26.4945 H       1  UNL1        0.1189
     13 H          -6.1306  -15.0036   27.9812 H       1  UNL1        0.1189
     14 N          -9.9841  -17.0254   22.1258 N.am    1  UNL1       -0.2793
     15 C          -8.8140  -16.1251   22.3910 C.2     1  UNL1        0.2285
     16 O          -8.2931  -15.2323   21.3040 O.2     1  UNL1       -0.2746
     17 C         -10.6648  -18.2951   19.9637 C.3     1  UNL1        0.0233
     18 C         -10.6333  -17.0329   20.7736 C.3     1  UNL1        0.0935
     19 C         -10.5050  -17.9182   23.2128 C.3     1  UNL1        0.0935
     20 C         -11.9812  -18.0138   23.4618 C.3     1  UNL1        0.0233
@<TRIPOS>BOND
     1    17    18    1
     2    18    14    1
     3    14    19    1
     4    19    20    1
     5    14    15   am
     6    15    16    2
     7    15     1    1
     8     1     4    1
     9     4     5   ar
    10     5     6   ar
    11     6     7   ar
    12     7     8   ar
    13     8     9   ar
    14     1     2    1
    15     2     3    1
    16     3    10    1
    17    10    11    1
    18     3     1    1
    19     9     4   ar
    20    11    12    1
    21    11    13    1
@<TRIPOS>MOLECULE
*****
 20 21 0 0 0
SMALL
GASTEIGER

@<TRIPOS>ATOM
      1 C         -10.9131   -5.3420   18.5061 C.3     1  UNL1        0.0891
      2 C          -9.5631   -4.9701   19.0439 C.3     1  UNL1        0.0149
      3 C          -9.9335   -6.4145   18.8807 C.3     1  UNL1        0.0282
      4 C         -12.0615   -6.1885   18.0425 C.ar    1  UNL1       -0.0146
      5 C         -13.1075   -6.6343   19.0208 C.ar    1  UNL1       -0.0038
      6 C         -14.2558   -7.4806   18.5572 C.ar    1  UNL1       -0.0003
      7 C         -14.3581   -7.8812   17.1153 C.ar    1  UNL1       -0.0000
      8 C         -13.3121   -7.4355   16.1370 C.ar    1  UNL1       -0.0003
      9 C         -12.1638   -6.5891   16.6006 C.ar    1  UNL1       -0.0038
     10 C          -9.5819   -7.8676   19.0026 C.3     1  UNL1        0.0659
     11 N          -9.7730   -8.7862   17.8322 N.3     1  UNL1       -0.3211
     12 H         -10.7679   -8.8682   17.6233 H       1  UNL1        0.1189
     13 H          -9.3958   -9.7068   18.0574 H       1  UNL1        0.1189
     14 N         -11.1873   -3.2187   17.0344 N.am    1  UNL1       -0.2793
     15 C         -11.4939   -3.9756   18.2926 C.2     1  UNL1        0.2285
     16 O         -12.3813   -3.3662   19.3371 O.2     1  UNL1       -0.2746
     17 C         -11.0414   -0.6411   17.3258 C.3     1  UNL1        0.0233
     18 C         -11.7681   -1.8523   16.8208 C.3     1  UNL1        0.0935
     19 C         -10.2999   -3.8281   15.9898 C.3     1  UNL1        0.0935
     20 C          -8.8286   -3.5360   15.9923 C.3     1  UNL1        0.0233
@<TRIPOS>BOND
     1    17    18    1
     2    18    14    1
     3    14    19    1
     4    19    20    1
     5    14    15   am
     6    15    16    2
     7    15     1    1
     8     1     4    1
     9     4     5   ar
    10     5     6   ar
    11     6     7   ar
    12     7     8   ar
    13     8     9   ar
    14     1     2    1
    15     2     3    1
    16     3    10    1
    17    10    11    1
    18     3     1    1
    19     9     4   ar
    20    11    12    1
    21    11    13    1
@<TRIPOS>MOLECULE
*****
 20 21 0 0 0
SMALL
GASTEIGER

@<TRIPOS>ATOM
      1 C          -9.5374  -18.4103   22.9646 C.3     1  UNL1        0.0891
      2 C          -9.7637  -19.6913   22.2178 C.3     1  UNL1        0.0149
      3 C          -8.4004  -19.0659   22.2383 C.3     1  UNL1        0.0282
      4 C          -8.8312  -17.2124   23.5270 C.ar    1  UNL1       -0.0146
      5 C          -8.8622  -16.9480   25.0032 C.ar    1  UNL1       -0.0038
      6 C          -8.1560  -15.7501   25.5656 C.ar    1  UNL1       -0.0003
      7 C          -7.4187  -14.8167   24.6518 C.ar    1  UNL1       -0.0000
      8 C          -7.3876  -15.0811   23.1756 C.ar    1  UNL1       -0.0003
      9 C          -8.0938  -16.2789   22.6133 C.ar    1  UNL1       -0.0038
     10 C          -6.9569  -19.0831   21.8309 C.3     1  UNL1        0.0659
     11 N          -6.5518  -18.5635   20.4833 N.3     1  UNL1       -0.3211
     12 H          -6.9416  -19.1635   19.7563 H       1  UNL1        0.1189
     13 H          -5.5343  -18.5602   20.4120 H       1  UNL1        0.1189
     14 N         -11.8532  -17.2491   22.7682 N.am    1  UNL1       -0.2793
     15 C         -10.9197  -18.1707   23.4956 C.2     1  UNL1        0.2285
     16 O         -11.3684  -18.8527   24.7540 O.2     1  UNL1       -0.2746
     17 C         -13.9942  -18.1289   23.9479 C.3     1  UNL1        0.0233
     18 C         -13.2354  -17.0094   23.2991 C.3     1  UNL1        0.0935
     19 C         -11.4044  -16.5671   21.5098 C.3     1  UNL1        0.0935
     20 C         -11.6297  -17.2233   20.1798 C.3     1  UNL1        0.0233
@<TRIPOS>BOND
     1    17    18    1
     2    18    14    1
     3    14    19    1
     4    19    20    1
     5    14    15   am
     6    15    16    2
     7    15     1    1
     8     1     4    1
     9     4     5   ar
    10     5     6   ar
    11     6     7   ar
    12     7     8   ar
    13     8     9   ar
    14     1     2    1
    15     2     3    1
    16     3    10    1
    17    10    11    1
    18     3     1    1
    19     9     4   ar
    20    11    12    1
    21    11    13    1
