@<TRIPOS>MOLECULE
*****
 22 24 0 0 0
SMALL
GASTEIGER

@<TRIPOS>ATOM
      1 O          -6.2627  -16.6000   22.8945 O.2     1  UNL1       -0.2685
      2 C          -7.0882  -17.7721   22.4532 C.2     1  UNL1        0.2635
      3 N          -6.4396  -18.9186   21.7357 N.am    1  UNL1       -0.3013
      4 H          -6.9814  -19.6879   21.4462 H       1  UNL1        0.1497
      5 C          -8.5623  -17.7977   22.7295 C.2     1  UNL1        0.1341
      6 C          -9.6348  -17.2317   21.8466 C.2     1  UNL1        0.0257
      7 C         -10.9580  -17.4780   22.5086 C.2     1  UNL1        0.0261
      8 C         -12.3619  -17.1411   22.1019 C.2     1  UNL1        0.0594
      9 CL        -12.6167  -16.4229   20.8098 Cl      1  UNL1       -0.0822
     10 C         -13.5113  -17.5224   22.9872 C.2     1  UNL1        0.0189
     11 C         -13.2566  -18.2405   24.2792 C.2     1  UNL1        0.0422
     12 CL        -14.4060  -18.6218   25.1646 Cl      1  UNL1       -0.0865
     13 C         -11.8527  -18.5775   24.6860 C.3     1  UNL1        0.0837
     14 C         -10.7034  -18.1962   23.8007 C.2     1  UNL1        0.0652
     15 N          -9.2228  -18.3938   23.9372 N.2     1  UNL1       -0.2447
     16 C          -4.9655  -18.8931   21.4594 C.3     1  UNL1        0.0719
     17 C          -4.0864  -18.6128   22.6421 C.3     1  UNL1        0.0196
     18 C          -2.5902  -18.5214   22.6946 C.3     1  UNL1        0.0017
     19 C          -1.6033  -18.6878   21.5772 C.3     1  UNL1        0.0001
     20 C          -1.8691  -18.9866   20.1314 C.3     1  UNL1        0.0001
     21 C          -3.1873  -19.1929   19.4461 C.3     1  UNL1        0.0017
     22 C          -4.5653  -19.1513   20.0371 C.3     1  UNL1        0.0196
@<TRIPOS>BOND
     1     1     2    2
     2     2     3   am
     3     3    16    1
     4    16    17    1
     5    17    18    1
     6    18    19    1
     7    19    20    1
     8    20    21    1
     9    21    22    1
    10     2     5    1
    11     5     6    2
    12     6     7    1
    13     7     8    2
    14     8     9    1
    15     8    10    1
    16    10    11    2
    17    11    12    1
    18    11    13    1
    19    13    14    1
    20    14    15    2
    21    22    16    1
    22    15     5    1
    23    14     7    1
    24     3     4    1
@<TRIPOS>MOLECULE
*****
 22 24 0 0 0
SMALL
GASTEIGER

@<TRIPOS>ATOM
      1 O          -8.5981  -19.6975   20.7796 O.2     1  UNL1       -0.2685
      2 C          -7.8082  -18.6510   21.5084 C.2     1  UNL1        0.2635
      3 N          -8.5058  -17.6808   22.4150 N.am    1  UNL1       -0.3013
      4 H          -7.9874  -16.9940   22.8933 H       1  UNL1        0.1497
      5 C          -6.3208  -18.5749   21.3305 C.2     1  UNL1        0.1341
      6 C          -5.3109  -18.3823   22.4228 C.2     1  UNL1        0.0257
      7 C          -3.9481  -18.3663   21.7964 C.2     1  UNL1        0.0261
      8 C          -2.5761  -18.2090   22.3820 C.2     1  UNL1        0.0594
      9 CL         -2.4085  -18.0262   23.8614 Cl      1  UNL1       -0.0822
     10 C          -1.3717  -18.2344   21.4882 C.2     1  UNL1        0.0189
     11 C          -1.5393  -18.4171   20.0089 C.2     1  UNL1        0.0422
     12 CL         -0.3349  -18.4426   19.1151 Cl      1  UNL1       -0.0865
     13 C          -2.9112  -18.5745   19.4233 C.3     1  UNL1        0.0837
     14 C          -4.1156  -18.5491   20.3170 C.2     1  UNL1        0.0652
     15 N          -5.5821  -18.6780   20.0291 N.2     1  UNL1       -0.2447
     16 C          -9.9933  -17.7569   22.5929 C.3     1  UNL1        0.0719
     17 C         -10.8129  -17.2153   21.4593 C.3     1  UNL1        0.0196
     18 C         -12.3060  -17.1475   21.3337 C.3     1  UNL1        0.0017
     19 C         -13.3485  -17.6046   22.3107 C.3     1  UNL1        0.0001
     20 C         -13.1551  -18.2424   23.6545 C.3     1  UNL1        0.0001
     21 C         -11.8717  -18.5805   24.3533 C.3     1  UNL1        0.0017
     22 C         -10.4645  -18.3644   23.8809 C.3     1  UNL1        0.0196
@<TRIPOS>BOND
     1     1     2    2
     2     2     3   am
     3     3    16    1
     4    16    17    1
     5    17    18    1
     6    18    19    1
     7    19    20    1
     8    20    21    1
     9    21    22    1
    10     2     5    1
    11     5     6    2
    12     6     7    1
    13     7     8    2
    14     8     9    1
    15     8    10    1
    16    10    11    2
    17    11    12    1
    18    11    13    1
    19    13    14    1
    20    14    15    2
    21    22    16    1
    22    15     5    1
    23    14     7    1
    24     3     4    1
@<TRIPOS>MOLECULE
*****
 22 24 0 0 0
SMALL
GASTEIGER

@<TRIPOS>ATOM
      1 O          -8.2195  -16.8854   23.8756 O.2     1  UNL1       -0.2685
      2 C          -7.9353  -17.9745   22.8841 C.2     1  UNL1        0.2635
      3 N          -9.0520  -18.8400   22.3802 N.am    1  UNL1       -0.3013
      4 H          -8.8655  -19.5548   21.7295 H       1  UNL1        0.1497
      5 C          -6.5345  -18.1980   22.3964 C.2     1  UNL1        0.1341
      6 C          -6.0823  -19.3051   21.4910 C.2     1  UNL1        0.0257
      7 C          -4.6083  -19.1450   21.2636 C.2     1  UNL1        0.0261
      8 C          -3.6246  -19.9416   20.4588 C.2     1  UNL1        0.0594
      9 CL         -4.0833  -21.1478   19.6940 Cl      1  UNL1       -0.0822
     10 C          -2.1821  -19.5321   20.4189 C.2     1  UNL1        0.0189
     11 C          -1.7234  -18.3261   21.1837 C.2     1  UNL1        0.0422
     12 CL         -0.2809  -17.9165   21.1438 Cl      1  UNL1       -0.0865
     13 C          -2.7071  -17.5294   21.9884 C.3     1  UNL1        0.0837
     14 C          -4.1496  -17.9389   22.0284 C.2     1  UNL1        0.0652
     15 N          -5.3401  -17.3536   22.7285 N.2     1  UNL1       -0.2447
     16 C         -10.4528  -18.6166   22.8679 C.3     1  UNL1        0.0719
     17 C         -11.3896  -17.9775   21.8859 C.3     1  UNL1        0.0196
     18 C         -12.8364  -17.6257   22.0664 C.3     1  UNL1        0.0017
     19 C         -13.7041  -17.8261   23.2736 C.3     1  UNL1        0.0001
     20 C         -13.3390  -18.4278   24.5982 C.3     1  UNL1        0.0001
     21 C         -12.0162  -18.9777   25.0429 C.3     1  UNL1        0.0017
     22 C         -10.7317  -19.0617   24.2729 C.3     1  UNL1        0.0196
@<TRIPOS>BOND
     1     1     2    2
     2     2     3   am
     3     3    16    1
     4    16    17    1
     5    17    18    1
     6    18    19    1
     7    19    20    1
     8    20    21    1
     9    21    22    1
    10     2     5    1
    11     5     6    2
    12     6     7    1
    13     7     8    2
    14     8     9    1
    15     8    10    1
    16    10    11    2
    17    11    12    1
    18    11    13    1
    19    13    14    1
    20    14    15    2
    21    22    16    1
    22    15     5    1
    23    14     7    1
    24     3     4    1
@<TRIPOS>MOLECULE
*****
 22 24 0 0 0
SMALL
GASTEIGER

@<TRIPOS>ATOM
      1 O           4.3427    0.5694   25.6965 O.2     1  UNL1       -0.2685
      2 C           3.9415   -0.8590   25.4760 C.2     1  UNL1        0.2635
      3 N           3.5654   -1.7212   26.6444 N.am    1  UNL1       -0.3013
      4 H           3.3021   -2.6588   26.4996 H       1  UNL1        0.1497
      5 C           3.9164   -1.4251   24.0872 C.2     1  UNL1        0.1341
      6 C           3.1955   -0.8396   22.9093 C.2     1  UNL1        0.0257
      7 C           3.4414   -1.7288   21.7266 C.2     1  UNL1        0.0261
      8 C           2.9832   -1.6516   20.3004 C.2     1  UNL1        0.0594
      9 CL          2.1104   -0.5165   19.8534 Cl      1  UNL1       -0.0822
     10 C           3.3979   -2.7095   19.3211 C.2     1  UNL1        0.0189
     11 C           4.2707   -3.8446   19.7681 C.2     1  UNL1        0.0422
     12 CL          4.6854   -4.9025   18.7888 Cl      1  UNL1       -0.0865
     13 C           4.7288   -3.9218   21.1943 C.3     1  UNL1        0.0837
     14 C           4.3142   -2.8639   22.1735 C.2     1  UNL1        0.0652
     15 N           4.6078   -2.6762   23.6325 N.2     1  UNL1       -0.2447
     16 C           3.5905   -1.1551   28.0333 C.3     1  UNL1        0.0719
     17 C           2.2822   -0.6301   28.5458 C.3     1  UNL1        0.0196
     18 C           1.9807   -0.0092   29.8775 C.3     1  UNL1        0.0017
     19 C           2.9132    0.2400   31.0257 C.3     1  UNL1        0.0001
     20 C           4.3774   -0.0702   31.1257 C.3     1  UNL1        0.0001
     21 C           5.2707   -0.7061   30.1022 C.3     1  UNL1        0.0017
     22 C           4.9205   -1.1890   28.7259 C.3     1  UNL1        0.0196
@<TRIPOS>BOND
     1     1     2    2
     2     2     3   am
     3     3    16    1
     4    16    17    1
     5    17    18    1
     6    18    19    1
     7    19    20    1
     8    20    21    1
     9    21    22    1
    10     2     5    1
    11     5     6    2
    12     6     7    1
    13     7     8    2
    14     8     9    1
    15     8    10    1
    16    10    11    2
    17    11    12    1
    18    11    13    1
    19    13    14    1
    20    14    15    2
    21    22    16    1
    22    15     5    1
    23    14     7    1
    24     3     4    1
@<TRIPOS>MOLECULE
*****
 22 24 0 0 0
SMALL
GASTEIGER

@<TRIPOS>ATOM
      1 O           7.2775   -2.3832   22.1322 O.2     1  UNL1       -0.2685
      2 C           6.4510   -3.5916   22.4585 C.2     1  UNL1        0.2635
      3 N           5.2145   -3.8913   21.6640 N.am    1  UNL1       -0.3013
      4 H           4.6721   -4.6845   21.8782 H       1  UNL1        0.1497
      5 C           6.8611   -4.5004   23.5792 C.2     1  UNL1        0.1341
      6 C           6.5432   -4.3070   25.0323 C.2     1  UNL1        0.0257
      7 C           7.1466   -5.4492   25.7948 C.2     1  UNL1        0.0261
      8 C           7.1563   -5.7865   27.2563 C.2     1  UNL1        0.0594
      9 CL          6.4655   -4.8873   28.2383 Cl      1  UNL1       -0.0822
     10 C           7.8568   -7.0232   27.7359 C.2     1  UNL1        0.0189
     11 C           8.5476   -7.9224   26.7540 C.2     1  UNL1        0.0422
     12 CL          9.2481   -9.1591   27.2336 Cl      1  UNL1       -0.0865
     13 C           8.5379   -7.5851   25.2925 C.3     1  UNL1        0.0837
     14 C           7.8374   -6.3484   24.8129 C.2     1  UNL1        0.0652
     15 N           7.6609   -5.7620   23.4436 N.2     1  UNL1       -0.2447
     16 C           4.8044   -2.9826   20.5433 C.3     1  UNL1        0.0719
     17 C           3.7056   -2.0122   20.8611 C.3     1  UNL1        0.0196
     18 C           3.0783   -0.9840   19.9672 C.3     1  UNL1        0.0017
     19 C           3.3949   -0.6722   18.5344 C.3     1  UNL1        0.0001
     20 C           4.4170   -1.3117   17.6420 C.3     1  UNL1        0.0001
     21 C           5.3749   -2.4208   17.9617 C.3     1  UNL1        0.0017
     22 C           5.5473   -3.1645   19.2529 C.3     1  UNL1        0.0196
@<TRIPOS>BOND
     1     1     2    2
     2     2     3   am
     3     3    16    1
     4    16    17    1
     5    17    18    1
     6    18    19    1
     7    19    20    1
     8    20    21    1
     9    21    22    1
    10     2     5    1
    11     5     6    2
    12     6     7    1
    13     7     8    2
    14     8     9    1
    15     8    10    1
    16    10    11    2
    17    11    12    1
    18    11    13    1
    19    13    14    1
    20    14    15    2
    21    22    16    1
    22    15     5    1
    23    14     7    1
    24     3     4    1
@<TRIPOS>MOLECULE
*****
 22 24 0 0 0
SMALL
GASTEIGER

@<TRIPOS>ATOM
      1 O           7.3143   -2.6063   26.0268 O.2     1  UNL1       -0.2685
      2 C           6.4401   -3.6100   25.3352 C.2     1  UNL1        0.2635
      3 N           6.3459   -5.0115   25.8615 N.am    1  UNL1       -0.3013
      4 H           5.7722   -5.6702   25.4076 H       1  UNL1        0.1497
      5 C           5.6602   -3.2123   24.1172 C.2     1  UNL1        0.1341
      6 C           5.7832   -3.8236   22.7530 C.2     1  UNL1        0.0257
      7 C           4.8193   -3.1225   21.8423 C.2     1  UNL1        0.0261
      8 C           4.5032   -3.3004   20.3868 C.2     1  UNL1        0.0594
      9 CL          5.2218   -4.3450   19.5854 Cl      1  UNL1       -0.0822
     10 C           3.4683   -2.4335   19.7328 C.2     1  UNL1        0.0189
     11 C           2.7496   -1.3890   20.5341 C.2     1  UNL1        0.0422
     12 CL          1.7148   -0.5221   19.8801 Cl      1  UNL1       -0.0865
     13 C           3.0657   -1.2111   21.9896 C.3     1  UNL1        0.0837
     14 C           4.1006   -2.0779   22.6437 C.2     1  UNL1        0.0652
     15 N           4.6203   -2.1334   24.0497 N.2     1  UNL1       -0.2447
     16 C           7.1259   -5.4093   27.0795 C.3     1  UNL1        0.0719
     17 C           6.4140   -5.2471   28.3898 C.3     1  UNL1        0.0196
     18 C           6.9149   -5.5523   29.7703 C.3     1  UNL1        0.0017
     19 C           8.2515   -6.0950   30.1816 C.3     1  UNL1        0.0001
     20 C           9.4172   -6.4666   29.3138 C.3     1  UNL1        0.0001
     21 C           9.5342   -6.3872   27.8205 C.3     1  UNL1        0.0017
     22 C           8.5145   -5.9167   26.8261 C.3     1  UNL1        0.0196
@<TRIPOS>BOND
     1     1     2    2
     2     2     3   am
     3     3    16    1
     4    16    17    1
     5    17    18    1
     6    18    19    1
     7    19    20    1
     8    20    21    1
     9    21    22    1
    10     2     5    1
    11     5     6    2
    12     6     7    1
    13     7     8    2
    14     8     9    1
    15     8    10    1
    16    10    11    2
    17    11    12    1
    18    11    13    1
    19    13    14    1
    20    14    15    2
    21    22    16    1
    22    15     5    1
    23    14     7    1
    24     3     4    1
@<TRIPOS>MOLECULE
*****
 22 24 0 0 0
SMALL
GASTEIGER

@<TRIPOS>ATOM
      1 O           7.4482   -4.5871   24.8024 O.2     1  UNL1       -0.2685
      2 C           6.2927   -3.6544   25.0141 C.2     1  UNL1        0.2635
      3 N           5.9569   -3.1779   26.3962 N.am    1  UNL1       -0.3013
      4 H           5.1985   -2.5657   26.5351 H       1  UNL1        0.1497
      5 C           5.4729   -3.1983   23.8437 C.2     1  UNL1        0.1341
      6 C           5.4868   -3.7997   22.4696 C.2     1  UNL1        0.0257
      7 C           4.5178   -3.0337   21.6186 C.2     1  UNL1        0.0261
      8 C           4.1142   -3.1760   20.1809 C.2     1  UNL1        0.0594
      9 CL          4.7270   -4.2508   19.3327 Cl      1  UNL1       -0.0822
     10 C           3.0978   -2.2435   19.5914 C.2     1  UNL1        0.0189
     11 C           2.4851   -1.1688   20.4395 C.2     1  UNL1        0.0422
     12 CL          1.4687   -0.2362   19.8500 Cl      1  UNL1       -0.0865
     13 C           2.8886   -1.0264   21.8772 C.3     1  UNL1        0.0837
     14 C           3.9050   -1.9589   22.4667 C.2     1  UNL1        0.0652
     15 N           4.4953   -2.0606   23.8419 N.2     1  UNL1       -0.2447
     16 C           6.7767   -3.6340   27.5667 C.3     1  UNL1        0.0719
     17 C           7.9784   -2.7950   27.8860 C.3     1  UNL1        0.0196
     18 C           8.9865   -2.9834   28.9805 C.3     1  UNL1        0.0017
     19 C           9.0420   -4.0576   30.0261 C.3     1  UNL1        0.0001
     20 C           8.1030   -5.2085   30.2353 C.3     1  UNL1        0.0001
     21 C           6.8766   -5.5694   29.4507 C.3     1  UNL1        0.0017
     22 C           6.2863   -4.8687   28.2630 C.3     1  UNL1        0.0196
@<TRIPOS>BOND
     1     1     2    2
     2     2     3   am
     3     3    16    1
     4    16    17    1
     5    17    18    1
     6    18    19    1
     7    19    20    1
     8    20    21    1
     9    21    22    1
    10     2     5    1
    11     5     6    2
    12     6     7    1
    13     7     8    2
    14     8     9    1
    15     8    10    1
    16    10    11    2
    17    11    12    1
    18    11    13    1
    19    13    14    1
    20    14    15    2
    21    22    16    1
    22    15     5    1
    23    14     7    1
    24     3     4    1
@<TRIPOS>MOLECULE
*****
 22 24 0 0 0
SMALL
GASTEIGER

@<TRIPOS>ATOM
      1 O           6.1347   -1.2159   22.2081 O.2     1  UNL1       -0.2685
      2 C           5.7159   -2.6561   22.1823 C.2     1  UNL1        0.2635
      3 N           4.7162   -3.1284   21.1687 N.am    1  UNL1       -0.3013
      4 H           4.4414   -4.0736   21.1518 H       1  UNL1        0.1497
      5 C           6.2969   -3.6239   23.1702 C.2     1  UNL1        0.1341
      6 C           7.1830   -4.7898   22.8456 C.2     1  UNL1        0.0257
      7 C           7.5274   -5.4821   24.1309 C.2     1  UNL1        0.0261
      8 C           8.3672   -6.6892   24.4269 C.2     1  UNL1        0.0594
      9 CL          9.0405   -7.4273   23.3080 Cl      1  UNL1       -0.0822
     10 C           8.5336   -7.1583   25.8420 C.2     1  UNL1        0.0189
     11 C           7.8604   -6.4203   26.9609 C.2     1  UNL1        0.0422
     12 CL          8.0268   -6.8894   28.3759 Cl      1  UNL1       -0.0865
     13 C           7.0206   -5.2132   26.6648 C.3     1  UNL1        0.0837
     14 C           6.8542   -4.7441   25.2498 C.2     1  UNL1        0.0652
     15 N           6.0936   -3.5956   24.6561 N.2     1  UNL1       -0.2447
     16 C           4.1352   -2.1606   20.1808 C.3     1  UNL1        0.0719
     17 C           4.8288   -2.0914   18.8525 C.3     1  UNL1        0.0196
     18 C           4.4960   -1.2346   17.6672 C.3     1  UNL1        0.0017
     19 C           3.3874   -0.2353   17.5173 C.3     1  UNL1        0.0001
     20 C           2.3377    0.1538   18.5158 C.3     1  UNL1        0.0001
     21 C           2.1375   -0.3602   19.9106 C.3     1  UNL1        0.0017
     22 C           2.9375   -1.3902   20.6517 C.3     1  UNL1        0.0196
@<TRIPOS>BOND
     1     1     2    2
     2     2     3   am
     3     3    16    1
     4    16    17    1
     5    17    18    1
     6    18    19    1
     7    19    20    1
     8    20    21    1
     9    21    22    1
    10     2     5    1
    11     5     6    2
    12     6     7    1
    13     7     8    2
    14     8     9    1
    15     8    10    1
    16    10    11    2
    17    11    12    1
    18    11    13    1
    19    13    14    1
    20    14    15    2
    21    22    16    1
    22    15     5    1
    23    14     7    1
    24     3     4    1
@<TRIPOS>MOLECULE
*****
 22 24 0 0 0
SMALL
GASTEIGER

@<TRIPOS>ATOM
      1 O           3.4295    1.2659   22.1165 O.2     1  UNL1       -0.2685
      2 C           1.9898    0.8448   22.1115 C.2     1  UNL1        0.2635
      3 N           1.4902   -0.1057   21.0641 N.am    1  UNL1       -0.3013
      4 H           0.5453   -0.3822   21.0608 H       1  UNL1        0.1497
      5 C           1.0499    1.3741   23.1537 C.2     1  UNL1        0.1341
      6 C           0.9883    0.9392   24.5879 C.2     1  UNL1        0.0257
      7 C          -0.0932    1.7276   25.2653 C.2     1  UNL1        0.0261
      8 C          -0.6038    1.7249   26.6757 C.2     1  UNL1        0.0594
      9 CL          0.0029    0.8028   27.6914 Cl      1  UNL1       -0.0822
     10 C          -1.7213    2.6444   27.0704 C.2     1  UNL1        0.0189
     11 C          -2.3281    3.5665   26.0549 C.2     1  UNL1        0.0422
     12 CL         -3.4456    4.4861   26.4496 Cl      1  UNL1       -0.0865
     13 C          -1.8175    3.5692   24.6445 C.3     1  UNL1        0.0837
     14 C          -0.7000    2.6497   24.2497 C.2     1  UNL1        0.0652
     15 N           0.0064    2.4312   22.9446 N.2     1  UNL1       -0.2447
     16 C           2.4301   -0.6351   20.0218 C.3     1  UNL1        0.0719
     17 C           2.5106    0.1614   18.7533 C.3     1  UNL1        0.0196
     18 C           3.3460   -0.1012   17.5356 C.3     1  UNL1        0.0017
     19 C           4.3074   -1.2252   17.2855 C.3     1  UNL1        0.0001
     20 C           4.6707   -2.3641   18.1915 C.3     1  UNL1        0.0001
     21 C           4.1623   -2.6604   19.5713 C.3     1  UNL1        0.0017
     22 C           3.1652   -1.8909   20.3859 C.3     1  UNL1        0.0196
@<TRIPOS>BOND
     1     1     2    2
     2     2     3   am
     3     3    16    1
     4    16    17    1
     5    17    18    1
     6    18    19    1
     7    19    20    1
     8    20    21    1
     9    21    22    1
    10     2     5    1
    11     5     6    2
    12     6     7    1
    13     7     8    2
    14     8     9    1
    15     8    10    1
    16    10    11    2
    17    11    12    1
    18    11    13    1
    19    13    14    1
    20    14    15    2
    21    22    16    1
    22    15     5    1
    23    14     7    1
    24     3     4    1
